MODEL 1
REMARK VINA RESULT:    -8.268      0.000      0.000
REMARK INTER + INTRA:         -11.268
REMARK INTER:                 -10.685
REMARK INTRA:                  -0.583
REMARK UNBOUND:                -0.583
REMARK  Name = 
REMARK  5 active torsions:
REMARK  status: ('A' for Active; 'I' for Inactive)
REMARK    1  A    between atoms: C_2  and  C_5
REMARK    2  A    between atoms: C_9  and  C_10
REMARK    3  A    between atoms: C_10  and  O_11
REMARK    4  A    between atoms: O_11  and  C_12
REMARK    5  A    between atoms: C_17  and  C_18
REMARK                            x       y       z     vdW  Elec       q    Type
REMARK                         _______ _______ _______ _____ _____    ______ ____
ROOT
ATOM      1  C   UNL     1      44.999   4.296  12.377  0.00  0.00    +0.000 A 
ATOM      2  C   UNL     1      43.971   5.222  12.507  0.00  0.00    +0.000 A 
ATOM      3  C   UNL     1      44.278   6.564  12.748  0.00  0.00    +0.000 A 
ATOM      4  C   UNL     1      45.612   6.980  12.872  0.00  0.00    +0.000 A 
ATOM      5 CL   UNL     1      45.891   8.663  13.143  0.00  0.00    +0.000 Cl
ATOM      6  C   UNL     1      46.661   6.054  12.781  0.00  0.00    +0.000 A 
ATOM      7  C   UNL     1      46.321   4.710  12.556  0.00  0.00    +0.000 A 
ENDROOT
BRANCH   6   8
ATOM      8  C   UNL     1      48.138   6.401  12.923  0.00  0.00    +0.000 C 
ATOM      9  C   UNL     1      48.474   6.930  14.333  0.00  0.00    +0.000 C 
ATOM     10  C   UNL     1      49.888   7.488  14.398  0.00  0.00    +0.000 C 
ATOM     11  O   UNL     1      50.087   8.466  13.381  0.00  0.00    +0.000 OA
ATOM     12  C   UNL     1      49.987   7.903  12.076  0.00  0.00    +0.000 C 
ATOM     13  C   UNL     1      48.578   7.389  11.827  0.00  0.00    +0.000 C 
ENDBRANCH   6   8
BRANCH   1  14
ATOM     14  O   UNL     1      44.659   3.007  12.070  0.00  0.00    +0.000 OA
BRANCH  14  15
ATOM     15  C   UNL     1      43.917   2.877  10.846  0.00  0.00    +0.000 C 
BRANCH  15  20
ATOM     16  C   UNL     1      46.258   2.275   7.904  0.00  0.00    +0.000 A 
ATOM     17  C   UNL     1      46.309   3.574   7.421  0.00  0.00    +0.000 A 
ATOM     18  N   UNL     1      45.652   4.616   7.981  0.00  0.00    +0.000 NA
ATOM     19  C   UNL     1      44.916   4.353   9.084  0.00  0.00    +0.000 A 
ATOM     20  C   UNL     1      44.808   3.095   9.660  0.00  0.00    +0.000 A 
ATOM     21  C   UNL     1      45.481   2.038   9.039  0.00  0.00    +0.000 A 
BRANCH  16  23
ATOM     22  F   UNL     1      46.723   1.049   5.905  0.00  0.00    +0.000 F 
ATOM     23  C   UNL     1      47.006   1.172   7.231  0.00  0.00    +0.000 C 
ATOM     24  F   UNL     1      46.751  -0.049   7.774  0.00  0.00    +0.000 F 
ATOM     25  F   UNL     1      48.357   1.337   7.307  0.00  0.00    +0.000 F 
ENDBRANCH  16  23
ENDBRANCH  15  20
ENDBRANCH  14  15
ENDBRANCH   1  14
TORSDOF 5
ENDMDL
MODEL 2
REMARK VINA RESULT:    -7.396      2.514      3.231
REMARK INTER + INTRA:         -10.141
REMARK INTER:                  -9.376
REMARK INTRA:                  -0.766
REMARK UNBOUND:                -0.583
REMARK  Name = 
REMARK  5 active torsions:
REMARK  status: ('A' for Active; 'I' for Inactive)
REMARK    1  A    between atoms: C_2  and  C_5
REMARK    2  A    between atoms: C_9  and  C_10
REMARK    3  A    between atoms: C_10  and  O_11
REMARK    4  A    between atoms: O_11  and  C_12
REMARK    5  A    between atoms: C_17  and  C_18
REMARK                            x       y       z     vdW  Elec       q    Type
REMARK                         _______ _______ _______ _____ _____    ______ ____
ROOT
ATOM      1  C   UNL     1      45.625   5.657  12.405  0.00  0.00    +0.000 A 
ATOM      2  C   UNL     1      46.247   6.621  11.622  0.00  0.00    +0.000 A 
ATOM      3  C   UNL     1      47.492   7.125  12.007  0.00  0.00    +0.000 A 
ATOM      4  C   UNL     1      48.111   6.676  13.183  0.00  0.00    +0.000 A 
ATOM      5 CL   UNL     1      49.660   7.338  13.563  0.00  0.00    +0.000 Cl
ATOM      6  C   UNL     1      47.481   5.731  14.007  0.00  0.00    +0.000 A 
ATOM      7  C   UNL     1      46.222   5.255  13.602  0.00  0.00    +0.000 A 
ENDROOT
BRANCH   6   8
ATOM      8  C   UNL     1      48.058   5.196  15.311  0.00  0.00    +0.000 C 
ATOM      9  C   UNL     1      47.174   4.087  15.922  0.00  0.00    +0.000 C 
ATOM     10  C   UNL     1      47.627   3.723  17.327  0.00  0.00    +0.000 C 
ATOM     11  O   UNL     1      47.697   4.886  18.149  0.00  0.00    +0.000 OA
ATOM     12  C   UNL     1      48.683   5.804  17.685  0.00  0.00    +0.000 C 
ATOM     13  C   UNL     1      48.305   6.340  16.312  0.00  0.00    +0.000 C 
ENDBRANCH   6   8
BRANCH   1  14
ATOM     14  O   UNL     1      44.441   5.138  11.954  0.00  0.00    +0.000 OA
BRANCH  14  15
ATOM     15  C   UNL     1      44.212   5.349  10.551  0.00  0.00    +0.000 C 
BRANCH  15  20
ATOM     16  C   UNL     1      45.868   3.069   7.991  0.00  0.00    +0.000 A 
ATOM     17  C   UNL     1      45.383   1.857   8.460  0.00  0.00    +0.000 A 
ATOM     18  N   UNL     1      44.563   1.733   9.529  0.00  0.00    +0.000 NA
ATOM     19  C   UNL     1      44.199   2.874  10.155  0.00  0.00    +0.000 A 
ATOM     20  C   UNL     1      44.611   4.139   9.760  0.00  0.00    +0.000 A 
ATOM     21  C   UNL     1      45.478   4.226   8.667  0.00  0.00    +0.000 A 
BRANCH  16  23
ATOM     22  F   UNL     1      46.303   2.457   5.721  0.00  0.00    +0.000 F 
ATOM     23  C   UNL     1      46.775   3.130   6.806  0.00  0.00    +0.000 C 
ATOM     24  F   UNL     1      48.005   2.606   7.054  0.00  0.00    +0.000 F 
ATOM     25  F   UNL     1      46.994   4.407   6.383  0.00  0.00    +0.000 F 
ENDBRANCH  16  23
ENDBRANCH  15  20
ENDBRANCH  14  15
ENDBRANCH   1  14
TORSDOF 5
ENDMDL
MODEL 3
REMARK VINA RESULT:    -7.230      1.963      2.561
REMARK INTER + INTRA:          -9.926
REMARK INTER:                  -9.028
REMARK INTRA:                  -0.898
REMARK UNBOUND:                -0.583
REMARK  Name = 
REMARK  5 active torsions:
REMARK  status: ('A' for Active; 'I' for Inactive)
REMARK    1  A    between atoms: C_2  and  C_5
REMARK    2  A    between atoms: C_9  and  C_10
REMARK    3  A    between atoms: C_10  and  O_11
REMARK    4  A    between atoms: O_11  and  C_12
REMARK    5  A    between atoms: C_17  and  C_18
REMARK                            x       y       z     vdW  Elec       q    Type
REMARK                         _______ _______ _______ _____ _____    ______ ____
ROOT
ATOM      1  C   UNL     1      46.404   6.257  11.665  0.00  0.00    +0.000 A 
ATOM      2  C   UNL     1      46.027   5.443  12.726  0.00  0.00    +0.000 A 
ATOM      3  C   UNL     1      46.772   5.461  13.908  0.00  0.00    +0.000 A 
ATOM      4  C   UNL     1      47.903   6.282  14.026  0.00  0.00    +0.000 A 
ATOM      5 CL   UNL     1      48.744   6.254  15.535  0.00  0.00    +0.000 Cl
ATOM      6  C   UNL     1      48.321   7.082  12.953  0.00  0.00    +0.000 A 
ATOM      7  C   UNL     1      47.562   7.031  11.772  0.00  0.00    +0.000 A 
ENDROOT
BRANCH   6   8
ATOM      8  C   UNL     1      49.544   7.990  12.974  0.00  0.00    +0.000 C 
ATOM      9  C   UNL     1      49.228   9.371  13.587  0.00  0.00    +0.000 C 
ATOM     10  C   UNL     1      50.381  10.345  13.395  0.00  0.00    +0.000 C 
ATOM     11  O   UNL     1      50.747  10.423  12.019  0.00  0.00    +0.000 OA
ATOM     12  C   UNL     1      51.245   9.181  11.531  0.00  0.00    +0.000 C 
ATOM     13  C   UNL     1      50.155   8.121  11.566  0.00  0.00    +0.000 C 
ENDBRANCH   6   8
BRANCH   1  14
ATOM     14  O   UNL     1      45.606   6.263  10.553  0.00  0.00    +0.000 OA
BRANCH  14  15
ATOM     15  C   UNL     1      44.515   5.330  10.616  0.00  0.00    +0.000 C 
BRANCH  15  20
ATOM     16  C   UNL     1      45.915   3.037   7.918  0.00  0.00    +0.000 A 
ATOM     17  C   UNL     1      45.352   1.847   8.357  0.00  0.00    +0.000 A 
ATOM     18  N   UNL     1      44.557   1.742   9.447  0.00  0.00    +0.000 NA
ATOM     19  C   UNL     1      44.300   2.881  10.127  0.00  0.00    +0.000 A 
ATOM     20  C   UNL     1      44.797   4.126   9.767  0.00  0.00    +0.000 A 
ATOM     21  C   UNL     1      45.635   4.191   8.650  0.00  0.00    +0.000 A 
BRANCH  16  23
ATOM     22  F   UNL     1      46.785   4.280   6.071  0.00  0.00    +0.000 F 
ATOM     23  C   UNL     1      46.788   3.077   6.708  0.00  0.00    +0.000 C 
ATOM     24  F   UNL     1      46.428   2.164   5.766  0.00  0.00    +0.000 F 
ATOM     25  F   UNL     1      48.093   2.815   6.999  0.00  0.00    +0.000 F 
ENDBRANCH  16  23
ENDBRANCH  15  20
ENDBRANCH  14  15
ENDBRANCH   1  14
TORSDOF 5
ENDMDL
MODEL 4
REMARK VINA RESULT:    -7.021      2.006      2.819
REMARK INTER + INTRA:          -9.656
REMARK INTER:                  -8.956
REMARK INTRA:                  -0.700
REMARK UNBOUND:                -0.583
REMARK  Name = 
REMARK  5 active torsions:
REMARK  status: ('A' for Active; 'I' for Inactive)
REMARK    1  A    between atoms: C_2  and  C_5
REMARK    2  A    between atoms: C_9  and  C_10
REMARK    3  A    between atoms: C_10  and  O_11
REMARK    4  A    between atoms: O_11  and  C_12
REMARK    5  A    between atoms: C_17  and  C_18
REMARK                            x       y       z     vdW  Elec       q    Type
REMARK                         _______ _______ _______ _____ _____    ______ ____
ROOT
ATOM      1  C   UNL     1      45.877   7.167  12.441  0.00  0.00    +0.000 A 
ATOM      2  C   UNL     1      45.342   8.437  12.263  0.00  0.00    +0.000 A 
ATOM      3  C   UNL     1      46.197   9.535  12.143  0.00  0.00    +0.000 A 
ATOM      4  C   UNL     1      47.588   9.368  12.215  0.00  0.00    +0.000 A 
ATOM      5 CL   UNL     1      48.563  10.782  12.031  0.00  0.00    +0.000 Cl
ATOM      6  C   UNL     1      48.145   8.100  12.433  0.00  0.00    +0.000 A 
ATOM      7  C   UNL     1      47.260   7.017  12.566  0.00  0.00    +0.000 A 
ENDROOT
BRANCH   6   8
ATOM      8  C   UNL     1      49.638   7.817  12.548  0.00  0.00    +0.000 C 
ATOM      9  C   UNL     1      50.271   8.539  13.757  0.00  0.00    +0.000 C 
ATOM     10  C   UNL     1      51.789   8.442  13.733  0.00  0.00    +0.000 C 
ATOM     11  O   UNL     1      52.301   8.904  12.486  0.00  0.00    +0.000 OA
ATOM     12  C   UNL     1      51.875   8.083  11.402  0.00  0.00    +0.000 C 
ATOM     13  C   UNL     1      50.365   8.163  11.236  0.00  0.00    +0.000 C 
ENDBRANCH   6   8
BRANCH   1  14
ATOM     14  O   UNL     1      45.008   6.111  12.481  0.00  0.00    +0.000 OA
BRANCH  14  15
ATOM     15  C   UNL     1      44.107   6.057  11.363  0.00  0.00    +0.000 C 
BRANCH  15  20
ATOM     16  C   UNL     1      45.345   3.495   8.833  0.00  0.00    +0.000 A 
ATOM     17  C   UNL     1      44.667   2.388   9.323  0.00  0.00    +0.000 A 
ATOM     18  N   UNL     1      43.844   2.419  10.397  0.00  0.00    +0.000 NA
ATOM     19  C   UNL     1      43.678   3.614  11.006  0.00  0.00    +0.000 A 
ATOM     20  C   UNL     1      44.294   4.786  10.590  0.00  0.00    +0.000 A 
ATOM     21  C   UNL     1      45.157   4.711   9.493  0.00  0.00    +0.000 A 
BRANCH  16  23
ATOM     22  F   UNL     1      47.084   4.447   7.497  0.00  0.00    +0.000 F 
ATOM     23  C   UNL     1      46.243   3.386   7.645  0.00  0.00    +0.000 C 
ATOM     24  F   UNL     1      45.560   3.295   6.473  0.00  0.00    +0.000 F 
ATOM     25  F   UNL     1      47.042   2.284   7.696  0.00  0.00    +0.000 F 
ENDBRANCH  16  23
ENDBRANCH  15  20
ENDBRANCH  14  15
ENDBRANCH   1  14
TORSDOF 5
ENDMDL
MODEL 5
REMARK VINA RESULT:    -6.907      2.467      3.641
REMARK INTER + INTRA:          -9.510
REMARK INTER:                  -8.631
REMARK INTRA:                  -0.878
REMARK UNBOUND:                -0.583
REMARK  Name = 
REMARK  5 active torsions:
REMARK  status: ('A' for Active; 'I' for Inactive)
REMARK    1  A    between atoms: C_2  and  C_5
REMARK    2  A    between atoms: C_9  and  C_10
REMARK    3  A    between atoms: C_10  and  O_11
REMARK    4  A    between atoms: O_11  and  C_12
REMARK    5  A    between atoms: C_17  and  C_18
REMARK                            x       y       z     vdW  Elec       q    Type
REMARK                         _______ _______ _______ _____ _____    ______ ____
ROOT
ATOM      1  C   UNL     1      47.104   6.814  12.850  0.00  0.00    +0.000 A 
ATOM      2  C   UNL     1      47.678   7.355  11.706  0.00  0.00    +0.000 A 
ATOM      3  C   UNL     1      48.994   7.822  11.750  0.00  0.00    +0.000 A 
ATOM      4  C   UNL     1      49.733   7.763  12.942  0.00  0.00    +0.000 A 
ATOM      5 CL   UNL     1      51.360   8.343  12.891  0.00  0.00    +0.000 Cl
ATOM      6  C   UNL     1      49.157   7.257  14.116  0.00  0.00    +0.000 A 
ATOM      7  C   UNL     1      47.827   6.810  14.045  0.00  0.00    +0.000 A 
ENDROOT
BRANCH   6   8
ATOM      8  C   UNL     1      49.866   7.170  15.461  0.00  0.00    +0.000 C 
ATOM      9  C   UNL     1      49.251   6.083  16.369  0.00  0.00    +0.000 C 
ATOM     10  C   UNL     1      49.806   6.157  17.784  0.00  0.00    +0.000 C 
ATOM     11  O   UNL     1      49.650   7.471  18.314  0.00  0.00    +0.000 OA
ATOM     12  C   UNL     1      50.409   8.431  17.585  0.00  0.00    +0.000 C 
ATOM     13  C   UNL     1      49.892   8.543  16.158  0.00  0.00    +0.000 C 
ENDBRANCH   6   8
BRANCH   1  14
ATOM     14  O   UNL     1      45.839   6.303  12.745  0.00  0.00    +0.000 OA
BRANCH  14  15
ATOM     15  C   UNL     1      45.187   6.614  11.503  0.00  0.00    +0.000 C 
BRANCH  15  20
ATOM     16  C   UNL     1      45.354   3.807   8.936  0.00  0.00    +0.000 A 
ATOM     17  C   UNL     1      44.360   2.995   9.464  0.00  0.00    +0.000 A 
ATOM     18  N   UNL     1      43.647   3.296  10.574  0.00  0.00    +0.000 NA
ATOM     19  C   UNL     1      43.930   4.470  11.182  0.00  0.00    +0.000 A 
ATOM     20  C   UNL     1      44.891   5.363  10.730  0.00  0.00    +0.000 A 
ATOM     21  C   UNL     1      45.625   5.006   9.595  0.00  0.00    +0.000 A 
BRANCH  16  23
ATOM     22  F   UNL     1      45.313   3.244   6.612  0.00  0.00    +0.000 F 
ATOM     23  C   UNL     1      46.104   3.407   7.708  0.00  0.00    +0.000 C 
ATOM     24  F   UNL     1      46.771   2.231   7.856  0.00  0.00    +0.000 F 
ATOM     25  F   UNL     1      47.045   4.326   7.352  0.00  0.00    +0.000 F 
ENDBRANCH  16  23
ENDBRANCH  15  20
ENDBRANCH  14  15
ENDBRANCH   1  14
TORSDOF 5
ENDMDL
MODEL 6
REMARK VINA RESULT:    -6.858      4.823      7.793
REMARK INTER + INTRA:          -9.445
REMARK INTER:                  -8.442
REMARK INTRA:                  -1.004
REMARK UNBOUND:                -0.583
REMARK  Name = 
REMARK  5 active torsions:
REMARK  status: ('A' for Active; 'I' for Inactive)
REMARK    1  A    between atoms: C_2  and  C_5
REMARK    2  A    between atoms: C_9  and  C_10
REMARK    3  A    between atoms: C_10  and  O_11
REMARK    4  A    between atoms: O_11  and  C_12
REMARK    5  A    between atoms: C_17  and  C_18
REMARK                            x       y       z     vdW  Elec       q    Type
REMARK                         _______ _______ _______ _____ _____    ______ ____
ROOT
ATOM      1  C   UNL     1      47.597   6.772  13.134  0.00  0.00    +0.000 A 
ATOM      2  C   UNL     1      47.401   8.147  13.148  0.00  0.00    +0.000 A 
ATOM      3  C   UNL     1      46.269   8.688  12.533  0.00  0.00    +0.000 A 
ATOM      4  C   UNL     1      45.339   7.856  11.891  0.00  0.00    +0.000 A 
ATOM      5 CL   UNL     1      43.959   8.616  11.181  0.00  0.00    +0.000 Cl
ATOM      6  C   UNL     1      45.540   6.470  11.833  0.00  0.00    +0.000 A 
ATOM      7  C   UNL     1      46.696   5.957  12.446  0.00  0.00    +0.000 A 
ENDROOT
BRANCH   6   8
ATOM      8  C   UNL     1      44.604   5.486  11.143  0.00  0.00    +0.000 C 
ATOM      9  C   UNL     1      44.176   4.339  12.084  0.00  0.00    +0.000 C 
ATOM     10  C   UNL     1      43.435   3.245  11.331  0.00  0.00    +0.000 C 
ATOM     11  O   UNL     1      44.208   2.789  10.223  0.00  0.00    +0.000 OA
ATOM     12  C   UNL     1      44.405   3.816   9.255  0.00  0.00    +0.000 C 
ATOM     13  C   UNL     1      45.232   4.949   9.844  0.00  0.00    +0.000 C 
ENDBRANCH   6   8
BRANCH   1  14
ATOM     14  O   UNL     1      48.680   6.277  13.809  0.00  0.00    +0.000 OA
BRANCH  14  15
ATOM     15  C   UNL     1      49.138   7.127  14.874  0.00  0.00    +0.000 C 
BRANCH  15  20
ATOM     16  C   UNL     1      48.332   4.607  17.612  0.00  0.00    +0.000 A 
ATOM     17  C   UNL     1      48.442   5.456  18.703  0.00  0.00    +0.000 A 
ATOM     18  N   UNL     1      48.749   6.771  18.611  0.00  0.00    +0.000 NA
ATOM     19  C   UNL     1      48.943   7.267  17.369  0.00  0.00    +0.000 A 
ATOM     20  C   UNL     1      48.841   6.512  16.209  0.00  0.00    +0.000 A 
ATOM     21  C   UNL     1      48.549   5.152  16.346  0.00  0.00    +0.000 A 
BRANCH  16  23
ATOM     22  F   UNL     1      48.203   2.705  19.056  0.00  0.00    +0.000 F 
ATOM     23  C   UNL     1      47.996   3.163  17.790  0.00  0.00    +0.000 C 
ATOM     24  F   UNL     1      48.725   2.347  16.983  0.00  0.00    +0.000 F 
ATOM     25  F   UNL     1      46.690   2.894  17.508  0.00  0.00    +0.000 F 
ENDBRANCH  16  23
ENDBRANCH  15  20
ENDBRANCH  14  15
ENDBRANCH   1  14
TORSDOF 5
ENDMDL
MODEL 7
REMARK VINA RESULT:    -6.689      3.360      4.858
REMARK INTER + INTRA:          -9.228
REMARK INTER:                  -8.301
REMARK INTRA:                  -0.926
REMARK UNBOUND:                -0.583
REMARK  Name = 
REMARK  5 active torsions:
REMARK  status: ('A' for Active; 'I' for Inactive)
REMARK    1  A    between atoms: C_2  and  C_5
REMARK    2  A    between atoms: C_9  and  C_10
REMARK    3  A    between atoms: C_10  and  O_11
REMARK    4  A    between atoms: O_11  and  C_12
REMARK    5  A    between atoms: C_17  and  C_18
REMARK                            x       y       z     vdW  Elec       q    Type
REMARK                         _______ _______ _______ _____ _____    ______ ____
ROOT
ATOM      1  C   UNL     1      47.911   7.330  13.857  0.00  0.00    +0.000 A 
ATOM      2  C   UNL     1      47.973   8.653  14.278  0.00  0.00    +0.000 A 
ATOM      3  C   UNL     1      48.418   8.946  15.570  0.00  0.00    +0.000 A 
ATOM      4  C   UNL     1      48.788   7.915  16.448  0.00  0.00    +0.000 A 
ATOM      5 CL   UNL     1      49.349   8.378  18.015  0.00  0.00    +0.000 Cl
ATOM      6  C   UNL     1      48.696   6.573  16.054  0.00  0.00    +0.000 A 
ATOM      7  C   UNL     1      48.230   6.309  14.755  0.00  0.00    +0.000 A 
ENDROOT
BRANCH   6   8
ATOM      8  C   UNL     1      49.052   5.384  16.937  0.00  0.00    +0.000 C 
ATOM      9  C   UNL     1      50.570   5.102  16.941  0.00  0.00    +0.000 C 
ATOM     10  C   UNL     1      50.892   3.785  17.632  0.00  0.00    +0.000 C 
ATOM     11  O   UNL     1      50.136   2.721  17.059  0.00  0.00    +0.000 OA
ATOM     12  C   UNL     1      48.736   2.896  17.262  0.00  0.00    +0.000 C 
ATOM     13  C   UNL     1      48.245   4.137  16.532  0.00  0.00    +0.000 C 
ENDBRANCH   6   8
BRANCH   1  14
ATOM     14  O   UNL     1      47.539   7.092  12.562  0.00  0.00    +0.000 OA
BRANCH  14  15
ATOM     15  C   UNL     1      46.124   7.197  12.335  0.00  0.00    +0.000 C 
BRANCH  15  20
ATOM     16  C   UNL     1      44.900   3.994  10.679  0.00  0.00    +0.000 A 
ATOM     17  C   UNL     1      44.522   3.309  11.825  0.00  0.00    +0.000 A 
ATOM     18  N   UNL     1      44.629   3.812  13.077  0.00  0.00    +0.000 NA
ATOM     19  C   UNL     1      45.127   5.063  13.193  0.00  0.00    +0.000 A 
ATOM     20  C   UNL     1      45.520   5.842  12.114  0.00  0.00    +0.000 A 
ATOM     21  C   UNL     1      45.419   5.280  10.838  0.00  0.00    +0.000 A 
BRANCH  16  23
ATOM     22  F   UNL     1      44.027   2.225   9.328  0.00  0.00    +0.000 F 
ATOM     23  C   UNL     1      44.758   3.374   9.328  0.00  0.00    +0.000 C 
ATOM     24  F   UNL     1      45.953   3.046   8.769  0.00  0.00    +0.000 F 
ATOM     25  F   UNL     1      44.146   4.203   8.437  0.00  0.00    +0.000 F 
ENDBRANCH  16  23
ENDBRANCH  15  20
ENDBRANCH  14  15
ENDBRANCH   1  14
TORSDOF 5
ENDMDL
MODEL 8
REMARK VINA RESULT:    -6.408      2.774      4.253
REMARK INTER + INTRA:          -8.865
REMARK INTER:                  -8.102
REMARK INTRA:                  -0.763
REMARK UNBOUND:                -0.583
REMARK  Name = 
REMARK  5 active torsions:
REMARK  status: ('A' for Active; 'I' for Inactive)
REMARK    1  A    between atoms: C_2  and  C_5
REMARK    2  A    between atoms: C_9  and  C_10
REMARK    3  A    between atoms: C_10  and  O_11
REMARK    4  A    between atoms: O_11  and  C_12
REMARK    5  A    between atoms: C_17  and  C_18
REMARK                            x       y       z     vdW  Elec       q    Type
REMARK                         _______ _______ _______ _____ _____    ______ ____
ROOT
ATOM      1  C   UNL     1      47.883   7.425  12.114  0.00  0.00    +0.000 A 
ATOM      2  C   UNL     1      47.227   8.607  12.430  0.00  0.00    +0.000 A 
ATOM      3  C   UNL     1      47.893   9.827  12.284  0.00  0.00    +0.000 A 
ATOM      4  C   UNL     1      49.222   9.865  11.835  0.00  0.00    +0.000 A 
ATOM      5 CL   UNL     1      49.953  11.420  11.662  0.00  0.00    +0.000 Cl
ATOM      6  C   UNL     1      49.914   8.679  11.547  0.00  0.00    +0.000 A 
ATOM      7  C   UNL     1      49.223   7.468  11.719  0.00  0.00    +0.000 A 
ENDROOT
BRANCH   6   8
ATOM      8  C   UNL     1      51.360   8.612  11.076  0.00  0.00    +0.000 C 
ATOM      9  C   UNL     1      51.651   7.317  10.287  0.00  0.00    +0.000 C 
ATOM     10  C   UNL     1      53.140   7.147  10.022  0.00  0.00    +0.000 C 
ATOM     11  O   UNL     1      53.878   7.230  11.238  0.00  0.00    +0.000 OA
ATOM     12  C   UNL     1      53.769   8.517  11.838  0.00  0.00    +0.000 C 
ATOM     13  C   UNL     1      52.332   8.787  12.257  0.00  0.00    +0.000 C 
ENDBRANCH   6   8
BRANCH   1  14
ATOM     14  O   UNL     1      47.172   6.259  12.202  0.00  0.00    +0.000 OA
BRANCH  14  15
ATOM     15  C   UNL     1      45.749   6.451  12.267  0.00  0.00    +0.000 C 
BRANCH  15  20
ATOM     16  C   UNL     1      44.575   3.298  10.484  0.00  0.00    +0.000 A 
ATOM     17  C   UNL     1      43.759   2.794  11.487  0.00  0.00    +0.000 A 
ATOM     18  N   UNL     1      43.562   3.403  12.679  0.00  0.00    +0.000 NA
ATOM     19  C   UNL     1      44.201   4.577  12.879  0.00  0.00    +0.000 A 
ATOM     20  C   UNL     1      45.026   5.178  11.939  0.00  0.00    +0.000 A 
ATOM     21  C   UNL     1      45.225   4.508  10.728  0.00  0.00    +0.000 A 
BRANCH  16  23
ATOM     22  F   UNL     1      44.196   3.208   8.125  0.00  0.00    +0.000 F 
ATOM     23  C   UNL     1      44.749   2.569   9.193  0.00  0.00    +0.000 C 
ATOM     24  F   UNL     1      44.189   1.330   9.206  0.00  0.00    +0.000 F 
ATOM     25  F   UNL     1      46.060   2.381   8.874  0.00  0.00    +0.000 F 
ENDBRANCH  16  23
ENDBRANCH  15  20
ENDBRANCH  14  15
ENDBRANCH   1  14
TORSDOF 5
ENDMDL
MODEL 9
REMARK VINA RESULT:    -6.371      4.722      6.106
REMARK INTER + INTRA:          -8.817
REMARK INTER:                  -7.847
REMARK INTRA:                  -0.970
REMARK UNBOUND:                -0.583
REMARK  Name = 
REMARK  5 active torsions:
REMARK  status: ('A' for Active; 'I' for Inactive)
REMARK    1  A    between atoms: C_2  and  C_5
REMARK    2  A    between atoms: C_9  and  C_10
REMARK    3  A    between atoms: C_10  and  O_11
REMARK    4  A    between atoms: O_11  and  C_12
REMARK    5  A    between atoms: C_17  and  C_18
REMARK                            x       y       z     vdW  Elec       q    Type
REMARK                         _______ _______ _______ _____ _____    ______ ____
ROOT
ATOM      1  C   UNL     1      47.449   3.939  16.427  0.00  0.00    +0.000 A 
ATOM      2  C   UNL     1      47.841   2.900  17.261  0.00  0.00    +0.000 A 
ATOM      3  C   UNL     1      48.468   3.189  18.476  0.00  0.00    +0.000 A 
ATOM      4  C   UNL     1      48.718   4.518  18.851  0.00  0.00    +0.000 A 
ATOM      5 CL   UNL     1      49.475   4.777  20.382  0.00  0.00    +0.000 Cl
ATOM      6  C   UNL     1      48.364   5.579  18.005  0.00  0.00    +0.000 A 
ATOM      7  C   UNL     1      47.750   5.256  16.783  0.00  0.00    +0.000 A 
ENDROOT
BRANCH   6   8
ATOM      8  C   UNL     1      48.610   7.051  18.310  0.00  0.00    +0.000 C 
ATOM      9  C   UNL     1      47.486   7.656  19.179  0.00  0.00    +0.000 C 
ATOM     10  C   UNL     1      47.616   9.168  19.286  0.00  0.00    +0.000 C 
ATOM     11  O   UNL     1      47.688   9.757  17.990  0.00  0.00    +0.000 OA
ATOM     12  C   UNL     1      48.858   9.349  17.286  0.00  0.00    +0.000 C 
ATOM     13  C   UNL     1      48.818   7.854  17.012  0.00  0.00    +0.000 C 
ENDBRANCH   6   8
BRANCH   1  14
ATOM     14  O   UNL     1      46.774   3.615  15.281  0.00  0.00    +0.000 OA
BRANCH  14  15
ATOM     15  C   UNL     1      47.467   3.977  14.076  0.00  0.00    +0.000 C 
BRANCH  15  20
ATOM     16  C   UNL     1      44.566   5.603  12.222  0.00  0.00    +0.000 A 
ATOM     17  C   UNL     1      45.195   6.788  11.868  0.00  0.00    +0.000 A 
ATOM     18  N   UNL     1      46.478   7.086  12.179  0.00  0.00    +0.000 NA
ATOM     19  C   UNL     1      47.172   6.153  12.867  0.00  0.00    +0.000 A 
ATOM     20  C   UNL     1      46.647   4.929  13.257  0.00  0.00    +0.000 A 
ATOM     21  C   UNL     1      45.311   4.666  12.940  0.00  0.00    +0.000 A 
BRANCH  16  23
ATOM     22  F   UNL     1      42.956   4.160  11.202  0.00  0.00    +0.000 F 
ATOM     23  C   UNL     1      43.144   5.343  11.849  0.00  0.00    +0.000 C 
ATOM     24  F   UNL     1      42.631   6.295  11.024  0.00  0.00    +0.000 F 
ATOM     25  F   UNL     1      42.319   5.308  12.933  0.00  0.00    +0.000 F 
ENDBRANCH  16  23
ENDBRANCH  15  20
ENDBRANCH  14  15
ENDBRANCH   1  14
TORSDOF 5
ENDMDL
