MODEL 1
REMARK VINA RESULT:    -7.031      0.000      0.000
REMARK INTER + INTRA:          -9.525
REMARK INTER:                  -8.881
REMARK INTRA:                  -0.644
REMARK UNBOUND:                -0.644
REMARK  Name = 
REMARK  5 active torsions:
REMARK  status: ('A' for Active; 'I' for Inactive)
REMARK    1  A    between atoms: N_1  and  C_2
REMARK    2  A    between atoms: C_2  and  C_3
REMARK    3  A    between atoms: C_6  and  O_7
REMARK    4  A    between atoms: O_7  and  C_8
REMARK    5  A    between atoms: C_8  and  C_9
REMARK                            x       y       z     vdW  Elec       q    Type
REMARK                         _______ _______ _______ _____ _____    ______ ____
ROOT
ATOM      1  C   UNL     1      46.556   2.336   7.556  0.00  0.00    +0.000 A 
ATOM      2  C   UNL     1      46.440   3.734   7.570  0.00  0.00    +0.000 A 
ATOM      3  C   UNL     1      45.499   4.360   8.392  0.00  0.00    +0.000 A 
ATOM      4  C   UNL     1      44.656   3.598   9.202  0.00  0.00    +0.000 A 
ATOM      5  C   UNL     1      44.797   2.210   9.225  0.00  0.00    +0.000 A 
ATOM      6  C   UNL     1      45.731   1.583   8.399  0.00  0.00    +0.000 A 
ENDROOT
BRANCH   1   7
ATOM      7  C   UNL     1      47.545   1.651   6.650  0.00  0.00    +0.000 C 
BRANCH   7   8
ATOM      8  N   UNL     1      48.664   2.525   6.322  0.00  0.00    +0.000 NA
ATOM      9  H   UNL     1      49.417   1.968   5.927  0.00  0.00    +0.000 HD
ATOM     10  H   UNL     1      49.024   2.931   7.184  0.00  0.00    +0.000 HD
ENDBRANCH   7   8
ENDBRANCH   1   7
BRANCH   4  11
ATOM     11  O   UNL     1      43.733   4.304   9.926  0.00  0.00    +0.000 OA
BRANCH  11  12
ATOM     12  C   UNL     1      43.655   3.948  11.308  0.00  0.00    +0.000 C 
BRANCH  12  13
ATOM     13  C   UNL     1      44.862   4.470  12.047  0.00  0.00    +0.000 A 
ATOM     14  C   UNL     1      45.168   5.838  12.017  0.00  0.00    +0.000 A 
ATOM     15  C   UNL     1      46.235   6.339  12.763  0.00  0.00    +0.000 A 
ATOM     16  C   UNL     1      47.004   5.480  13.545  0.00  0.00    +0.000 A 
ATOM     17  C   UNL     1      46.707   4.117  13.582  0.00  0.00    +0.000 A 
ATOM     18  C   UNL     1      45.639   3.613  12.837  0.00  0.00    +0.000 A 
ENDBRANCH  12  13
ENDBRANCH  11  12
ENDBRANCH   4  11
TORSDOF 5
ENDMDL
MODEL 2
REMARK VINA RESULT:    -6.914      2.536      5.749
REMARK INTER + INTRA:          -9.377
REMARK INTER:                  -8.876
REMARK INTRA:                  -0.501
REMARK UNBOUND:                -0.644
REMARK  Name = 
REMARK  5 active torsions:
REMARK  status: ('A' for Active; 'I' for Inactive)
REMARK    1  A    between atoms: N_1  and  C_2
REMARK    2  A    between atoms: C_2  and  C_3
REMARK    3  A    between atoms: C_6  and  O_7
REMARK    4  A    between atoms: O_7  and  C_8
REMARK    5  A    between atoms: C_8  and  C_9
REMARK                            x       y       z     vdW  Elec       q    Type
REMARK                         _______ _______ _______ _____ _____    ______ ____
ROOT
ATOM      1  C   UNL     1      46.481   5.212  12.947  0.00  0.00    +0.000 A 
ATOM      2  C   UNL     1      46.116   5.985  11.835  0.00  0.00    +0.000 A 
ATOM      3  C   UNL     1      45.309   5.445  10.829  0.00  0.00    +0.000 A 
ATOM      4  C   UNL     1      44.867   4.124  10.916  0.00  0.00    +0.000 A 
ATOM      5  C   UNL     1      45.190   3.365  12.042  0.00  0.00    +0.000 A 
ATOM      6  C   UNL     1      46.002   3.901  13.043  0.00  0.00    +0.000 A 
ENDROOT
BRANCH   1   7
ATOM      7  C   UNL     1      47.376   5.775  14.020  0.00  0.00    +0.000 C 
BRANCH   7   8
ATOM      8  N   UNL     1      47.159   5.111  15.299  0.00  0.00    +0.000 NA
ATOM      9  H   UNL     1      47.063   4.111  15.143  0.00  0.00    +0.000 HD
ATOM     10  H   UNL     1      46.273   5.432  15.687  0.00  0.00    +0.000 HD
ENDBRANCH   7   8
ENDBRANCH   1   7
BRANCH   4  11
ATOM     11  O   UNL     1      44.129   3.674   9.854  0.00  0.00    +0.000 OA
BRANCH  11  12
ATOM     12  C   UNL     1      44.443   2.348   9.425  0.00  0.00    +0.000 C 
BRANCH  12  13
ATOM     13  C   UNL     1      45.534   2.382   8.385  0.00  0.00    +0.000 A 
ATOM     14  C   UNL     1      46.307   1.239   8.138  0.00  0.00    +0.000 A 
ATOM     15  C   UNL     1      47.263   1.239   7.123  0.00  0.00    +0.000 A 
ATOM     16  C   UNL     1      47.455   2.379   6.345  0.00  0.00    +0.000 A 
ATOM     17  C   UNL     1      46.691   3.521   6.583  0.00  0.00    +0.000 A 
ATOM     18  C   UNL     1      45.732   3.524   7.598  0.00  0.00    +0.000 A 
ENDBRANCH  12  13
ENDBRANCH  11  12
ENDBRANCH   4  11
TORSDOF 5
ENDMDL
MODEL 3
REMARK VINA RESULT:    -6.726      2.532      5.746
REMARK INTER + INTRA:          -9.140
REMARK INTER:                  -8.580
REMARK INTRA:                  -0.560
REMARK UNBOUND:                -0.644
REMARK  Name = 
REMARK  5 active torsions:
REMARK  status: ('A' for Active; 'I' for Inactive)
REMARK    1  A    between atoms: N_1  and  C_2
REMARK    2  A    between atoms: C_2  and  C_3
REMARK    3  A    between atoms: C_6  and  O_7
REMARK    4  A    between atoms: O_7  and  C_8
REMARK    5  A    between atoms: C_8  and  C_9
REMARK                            x       y       z     vdW  Elec       q    Type
REMARK                         _______ _______ _______ _____ _____    ______ ____
ROOT
ATOM      1  C   UNL     1      46.916   5.474  13.183  0.00  0.00    +0.000 A 
ATOM      2  C   UNL     1      46.472   4.154  13.351  0.00  0.00    +0.000 A 
ATOM      3  C   UNL     1      45.599   3.575  12.425  0.00  0.00    +0.000 A 
ATOM      4  C   UNL     1      45.151   4.310  11.327  0.00  0.00    +0.000 A 
ATOM      5  C   UNL     1      45.624   5.609  11.132  0.00  0.00    +0.000 A 
ATOM      6  C   UNL     1      46.489   6.190  12.060  0.00  0.00    +0.000 A 
ENDROOT
BRANCH   1   7
ATOM      7  C   UNL     1      47.830   6.117  14.193  0.00  0.00    +0.000 C 
BRANCH   7   8
ATOM      8  N   UNL     1      47.844   5.377  15.448  0.00  0.00    +0.000 NA
ATOM      9  H   UNL     1      47.371   5.924  16.163  0.00  0.00    +0.000 HD
ATOM     10  H   UNL     1      48.810   5.272  15.754  0.00  0.00    +0.000 HD
ENDBRANCH   7   8
ENDBRANCH   1   7
BRANCH   4  11
ATOM     11  O   UNL     1      44.256   3.672  10.511  0.00  0.00    +0.000 OA
BRANCH  11  12
ATOM     12  C   UNL     1      44.325   4.048   9.134  0.00  0.00    +0.000 C 
BRANCH  12  13
ATOM     13  C   UNL     1      45.315   3.174   8.406  0.00  0.00    +0.000 A 
ATOM     14  C   UNL     1      46.222   3.743   7.500  0.00  0.00    +0.000 A 
ATOM     15  C   UNL     1      47.193   2.954   6.884  0.00  0.00    +0.000 A 
ATOM     16  C   UNL     1      47.267   1.592   7.166  0.00  0.00    +0.000 A 
ATOM     17  C   UNL     1      46.370   1.017   8.067  0.00  0.00    +0.000 A 
ATOM     18  C   UNL     1      45.398   1.804   8.686  0.00  0.00    +0.000 A 
ENDBRANCH  12  13
ENDBRANCH  11  12
ENDBRANCH   4  11
TORSDOF 5
ENDMDL
MODEL 4
REMARK VINA RESULT:    -6.241      2.679      5.870
REMARK INTER + INTRA:          -8.527
REMARK INTER:                  -8.231
REMARK INTRA:                  -0.296
REMARK UNBOUND:                -0.644
REMARK  Name = 
REMARK  5 active torsions:
REMARK  status: ('A' for Active; 'I' for Inactive)
REMARK    1  A    between atoms: N_1  and  C_2
REMARK    2  A    between atoms: C_2  and  C_3
REMARK    3  A    between atoms: C_6  and  O_7
REMARK    4  A    between atoms: O_7  and  C_8
REMARK    5  A    between atoms: C_8  and  C_9
REMARK                            x       y       z     vdW  Elec       q    Type
REMARK                         _______ _______ _______ _____ _____    ______ ____
ROOT
ATOM      1  C   UNL     1      45.474   6.626  12.204  0.00  0.00    +0.000 A 
ATOM      2  C   UNL     1      44.317   5.859  12.407  0.00  0.00    +0.000 A 
ATOM      3  C   UNL     1      43.901   4.932  11.447  0.00  0.00    +0.000 A 
ATOM      4  C   UNL     1      44.629   4.768  10.268  0.00  0.00    +0.000 A 
ATOM      5  C   UNL     1      45.805   5.495  10.080  0.00  0.00    +0.000 A 
ATOM      6  C   UNL     1      46.217   6.426  11.035  0.00  0.00    +0.000 A 
ENDROOT
BRANCH   1   7
ATOM      7  C   UNL     1      45.912   7.649  13.218  0.00  0.00    +0.000 C 
BRANCH   7   8
ATOM      8  N   UNL     1      47.168   7.270  13.851  0.00  0.00    +0.000 NA
ATOM      9  H   UNL     1      47.563   8.082  14.319  0.00  0.00    +0.000 HD
ATOM     10  H   UNL     1      47.832   7.001  13.126  0.00  0.00    +0.000 HD
ENDBRANCH   7   8
ENDBRANCH   1   7
BRANCH   4  11
ATOM     11  O   UNL     1      44.107   3.876   9.368  0.00  0.00    +0.000 OA
BRANCH  11  12
ATOM     12  C   UNL     1      44.692   2.573   9.407  0.00  0.00    +0.000 C 
BRANCH  12  13
ATOM     13  C   UNL     1      45.600   2.376   8.219  0.00  0.00    +0.000 A 
ATOM     14  C   UNL     1      45.766   3.406   7.282  0.00  0.00    +0.000 A 
ATOM     15  C   UNL     1      46.665   3.261   6.225  0.00  0.00    +0.000 A 
ATOM     16  C   UNL     1      47.406   2.088   6.096  0.00  0.00    +0.000 A 
ATOM     17  C   UNL     1      47.249   1.058   7.023  0.00  0.00    +0.000 A 
ATOM     18  C   UNL     1      46.351   1.201   8.082  0.00  0.00    +0.000 A 
ENDBRANCH  12  13
ENDBRANCH  11  12
ENDBRANCH   4  11
TORSDOF 5
ENDMDL
MODEL 5
REMARK VINA RESULT:    -5.916      2.743      5.840
REMARK INTER + INTRA:          -8.117
REMARK INTER:                  -7.585
REMARK INTRA:                  -0.531
REMARK UNBOUND:                -0.644
REMARK  Name = 
REMARK  5 active torsions:
REMARK  status: ('A' for Active; 'I' for Inactive)
REMARK    1  A    between atoms: N_1  and  C_2
REMARK    2  A    between atoms: C_2  and  C_3
REMARK    3  A    between atoms: C_6  and  O_7
REMARK    4  A    between atoms: O_7  and  C_8
REMARK    5  A    between atoms: C_8  and  C_9
REMARK                            x       y       z     vdW  Elec       q    Type
REMARK                         _______ _______ _______ _____ _____    ______ ____
ROOT
ATOM      1  C   UNL     1      46.115   7.156  12.327  0.00  0.00    +0.000 A 
ATOM      2  C   UNL     1      46.745   5.936  12.615  0.00  0.00    +0.000 A 
ATOM      3  C   UNL     1      46.151   4.726  12.244  0.00  0.00    +0.000 A 
ATOM      4  C   UNL     1      44.917   4.718  11.594  0.00  0.00    +0.000 A 
ATOM      5  C   UNL     1      44.307   5.930  11.266  0.00  0.00    +0.000 A 
ATOM      6  C   UNL     1      44.896   7.139  11.642  0.00  0.00    +0.000 A 
ENDROOT
BRANCH   1   7
ATOM      7  C   UNL     1      46.732   8.463  12.750  0.00  0.00    +0.000 C 
BRANCH   7   8
ATOM      8  N   UNL     1      45.714   9.441  13.111  0.00  0.00    +0.000 NA
ATOM      9  H   UNL     1      45.986   9.901  13.977  0.00  0.00    +0.000 HD
ATOM     10  H   UNL     1      44.843   8.950  13.304  0.00  0.00    +0.000 HD
ENDBRANCH   7   8
ENDBRANCH   1   7
BRANCH   4  11
ATOM     11  O   UNL     1      44.395   3.481  11.325  0.00  0.00    +0.000 OA
BRANCH  11  12
ATOM     12  C   UNL     1      43.893   3.318   9.997  0.00  0.00    +0.000 C 
BRANCH  12  13
ATOM     13  C   UNL     1      45.032   3.079   9.037  0.00  0.00    +0.000 A 
ATOM     14  C   UNL     1      45.524   1.782   8.837  0.00  0.00    +0.000 A 
ATOM     15  C   UNL     1      46.522   1.542   7.893  0.00  0.00    +0.000 A 
ATOM     16  C   UNL     1      47.036   2.595   7.139  0.00  0.00    +0.000 A 
ATOM     17  C   UNL     1      46.552   3.890   7.329  0.00  0.00    +0.000 A 
ATOM     18  C   UNL     1      45.553   4.132   8.274  0.00  0.00    +0.000 A 
ENDBRANCH  12  13
ENDBRANCH  11  12
ENDBRANCH   4  11
TORSDOF 5
ENDMDL
MODEL 6
REMARK VINA RESULT:    -5.219      4.978      8.053
REMARK INTER + INTRA:          -7.236
REMARK INTER:                  -6.853
REMARK INTRA:                  -0.383
REMARK UNBOUND:                -0.644
REMARK  Name = 
REMARK  5 active torsions:
REMARK  status: ('A' for Active; 'I' for Inactive)
REMARK    1  A    between atoms: N_1  and  C_2
REMARK    2  A    between atoms: C_2  and  C_3
REMARK    3  A    between atoms: C_6  and  O_7
REMARK    4  A    between atoms: O_7  and  C_8
REMARK    5  A    between atoms: C_8  and  C_9
REMARK                            x       y       z     vdW  Elec       q    Type
REMARK                         _______ _______ _______ _____ _____    ______ ____
ROOT
ATOM      1  C   UNL     1      48.561   4.465  18.462  0.00  0.00    +0.000 A 
ATOM      2  C   UNL     1      48.477   5.459  17.476  0.00  0.00    +0.000 A 
ATOM      3  C   UNL     1      47.999   5.154  16.198  0.00  0.00    +0.000 A 
ATOM      4  C   UNL     1      47.611   3.850  15.886  0.00  0.00    +0.000 A 
ATOM      5  C   UNL     1      47.651   2.867  16.876  0.00  0.00    +0.000 A 
ATOM      6  C   UNL     1      48.134   3.170  18.150  0.00  0.00    +0.000 A 
ENDROOT
BRANCH   1   7
ATOM      7  C   UNL     1      49.103   4.778  19.832  0.00  0.00    +0.000 C 
BRANCH   7   8
ATOM      8  N   UNL     1      48.514   3.917  20.849  0.00  0.00    +0.000 NA
ATOM      9  H   UNL     1      49.171   3.175  21.078  0.00  0.00    +0.000 HD
ATOM     10  H   UNL     1      47.690   3.465  20.457  0.00  0.00    +0.000 HD
ENDBRANCH   7   8
ENDBRANCH   1   7
BRANCH   4  11
ATOM     11  O   UNL     1      47.212   3.644  14.593  0.00  0.00    +0.000 OA
BRANCH  11  12
ATOM     12  C   UNL     1      46.864   4.830  13.876  0.00  0.00    +0.000 C 
BRANCH  12  13
ATOM     13  C   UNL     1      45.582   4.617  13.110  0.00  0.00    +0.000 A 
ATOM     14  C   UNL     1      45.341   3.393  12.469  0.00  0.00    +0.000 A 
ATOM     15  C   UNL     1      44.124   3.160  11.827  0.00  0.00    +0.000 A 
ATOM     16  C   UNL     1      43.139   4.145  11.822  0.00  0.00    +0.000 A 
ATOM     17  C   UNL     1      43.369   5.365  12.458  0.00  0.00    +0.000 A 
ATOM     18  C   UNL     1      44.585   5.600  13.102  0.00  0.00    +0.000 A 
ENDBRANCH  12  13
ENDBRANCH  11  12
ENDBRANCH   4  11
TORSDOF 5
ENDMDL
MODEL 7
REMARK VINA RESULT:    -5.155      3.518      6.613
REMARK INTER + INTRA:          -7.156
REMARK INTER:                  -6.757
REMARK INTRA:                  -0.399
REMARK UNBOUND:                -0.644
REMARK  Name = 
REMARK  5 active torsions:
REMARK  status: ('A' for Active; 'I' for Inactive)
REMARK    1  A    between atoms: N_1  and  C_2
REMARK    2  A    between atoms: C_2  and  C_3
REMARK    3  A    between atoms: C_6  and  O_7
REMARK    4  A    between atoms: O_7  and  C_8
REMARK    5  A    between atoms: C_8  and  C_9
REMARK                            x       y       z     vdW  Elec       q    Type
REMARK                         _______ _______ _______ _____ _____    ______ ____
ROOT
ATOM      1  C   UNL     1      47.682   5.134  15.747  0.00  0.00    +0.000 A 
ATOM      2  C   UNL     1      48.241   6.247  15.101  0.00  0.00    +0.000 A 
ATOM      3  C   UNL     1      47.916   6.532  13.771  0.00  0.00    +0.000 A 
ATOM      4  C   UNL     1      47.039   5.705  13.068  0.00  0.00    +0.000 A 
ATOM      5  C   UNL     1      46.446   4.623  13.720  0.00  0.00    +0.000 A 
ATOM      6  C   UNL     1      46.775   4.332  15.045  0.00  0.00    +0.000 A 
ENDROOT
BRANCH   1   7
ATOM      7  C   UNL     1      48.050   4.800  17.169  0.00  0.00    +0.000 C 
BRANCH   7   8
ATOM      8  N   UNL     1      46.868   4.692  18.015  0.00  0.00    +0.000 NA
ATOM      9  H   UNL     1      46.497   5.623  18.190  0.00  0.00    +0.000 HD
ATOM     10  H   UNL     1      47.148   4.316  18.919  0.00  0.00    +0.000 HD
ENDBRANCH   7   8
ENDBRANCH   1   7
BRANCH   4  11
ATOM     11  O   UNL     1      46.831   6.039  11.757  0.00  0.00    +0.000 OA
BRANCH  11  12
ATOM     12  C   UNL     1      45.471   5.954  11.325  0.00  0.00    +0.000 C 
BRANCH  12  13
ATOM     13  C   UNL     1      45.315   4.839  10.321  0.00  0.00    +0.000 A 
ATOM     14  C   UNL     1      44.651   3.657  10.681  0.00  0.00    +0.000 A 
ATOM     15  C   UNL     1      44.431   2.655   9.737  0.00  0.00    +0.000 A 
ATOM     16  C   UNL     1      44.872   2.824   8.426  0.00  0.00    +0.000 A 
ATOM     17  C   UNL     1      45.533   3.996   8.058  0.00  0.00    +0.000 A 
ATOM     18  C   UNL     1      45.753   5.001   9.001  0.00  0.00    +0.000 A 
ENDBRANCH  12  13
ENDBRANCH  11  12
ENDBRANCH   4  11
TORSDOF 5
ENDMDL
MODEL 8
REMARK VINA RESULT:    -4.904      3.629      5.570
REMARK INTER + INTRA:          -6.839
REMARK INTER:                  -6.299
REMARK INTRA:                  -0.540
REMARK UNBOUND:                -0.644
REMARK  Name = 
REMARK  5 active torsions:
REMARK  status: ('A' for Active; 'I' for Inactive)
REMARK    1  A    between atoms: N_1  and  C_2
REMARK    2  A    between atoms: C_2  and  C_3
REMARK    3  A    between atoms: C_6  and  O_7
REMARK    4  A    between atoms: O_7  and  C_8
REMARK    5  A    between atoms: C_8  and  C_9
REMARK                            x       y       z     vdW  Elec       q    Type
REMARK                         _______ _______ _______ _____ _____    ______ ____
ROOT
ATOM      1  C   UNL     1      44.496   4.218  11.702  0.00  0.00    +0.000 A 
ATOM      2  C   UNL     1      45.041   4.430  12.977  0.00  0.00    +0.000 A 
ATOM      3  C   UNL     1      46.058   5.371  13.167  0.00  0.00    +0.000 A 
ATOM      4  C   UNL     1      46.550   6.101  12.085  0.00  0.00    +0.000 A 
ATOM      5  C   UNL     1      45.981   5.925  10.823  0.00  0.00    +0.000 A 
ATOM      6  C   UNL     1      44.971   4.982  10.631  0.00  0.00    +0.000 A 
ENDROOT
BRANCH   1   7
ATOM      7  C   UNL     1      43.423   3.184  11.483  0.00  0.00    +0.000 C 
BRANCH   7   8
ATOM      8  N   UNL     1      43.503   2.113  12.467  0.00  0.00    +0.000 NA
ATOM      9  H   UNL     1      43.315   1.225  12.009  0.00  0.00    +0.000 HD
ATOM     10  H   UNL     1      42.765   2.247  13.157  0.00  0.00    +0.000 HD
ENDBRANCH   7   8
ENDBRANCH   1   7
BRANCH   4  11
ATOM     11  O   UNL     1      47.583   6.955  12.366  0.00  0.00    +0.000 OA
BRANCH  11  12
ATOM     12  C   UNL     1      47.281   7.966  13.330  0.00  0.00    +0.000 C 
BRANCH  12  13
ATOM     13  C   UNL     1      46.647   9.155  12.654  0.00  0.00    +0.000 A 
ATOM     14  C   UNL     1      47.451  10.126  12.040  0.00  0.00    +0.000 A 
ATOM     15  C   UNL     1      46.870  11.187  11.344  0.00  0.00    +0.000 A 
ATOM     16  C   UNL     1      45.483  11.285  11.254  0.00  0.00    +0.000 A 
ATOM     17  C   UNL     1      44.675  10.324  11.861  0.00  0.00    +0.000 A 
ATOM     18  C   UNL     1      45.253   9.262  12.558  0.00  0.00    +0.000 A 
ENDBRANCH  12  13
ENDBRANCH  11  12
ENDBRANCH   4  11
TORSDOF 5
ENDMDL
MODEL 9
REMARK VINA RESULT:    -4.809      3.785      5.743
REMARK INTER + INTRA:          -6.718
REMARK INTER:                  -6.406
REMARK INTRA:                  -0.312
REMARK UNBOUND:                -0.644
REMARK  Name = 
REMARK  5 active torsions:
REMARK  status: ('A' for Active; 'I' for Inactive)
REMARK    1  A    between atoms: N_1  and  C_2
REMARK    2  A    between atoms: C_2  and  C_3
REMARK    3  A    between atoms: C_6  and  O_7
REMARK    4  A    between atoms: O_7  and  C_8
REMARK    5  A    between atoms: C_8  and  C_9
REMARK                            x       y       z     vdW  Elec       q    Type
REMARK                         _______ _______ _______ _____ _____    ______ ____
ROOT
ATOM      1  C   UNL     1      44.823   4.951  11.594  0.00  0.00    +0.000 A 
ATOM      2  C   UNL     1      45.295   3.962  12.470  0.00  0.00    +0.000 A 
ATOM      3  C   UNL     1      46.420   4.197  13.266  0.00  0.00    +0.000 A 
ATOM      4  C   UNL     1      47.094   5.416  13.188  0.00  0.00    +0.000 A 
ATOM      5  C   UNL     1      46.604   6.418  12.350  0.00  0.00    +0.000 A 
ATOM      6  C   UNL     1      45.485   6.183  11.550  0.00  0.00    +0.000 A 
ENDROOT
BRANCH   1   7
ATOM      7  C   UNL     1      43.631   4.695  10.710  0.00  0.00    +0.000 C 
BRANCH   7   8
ATOM      8  N   UNL     1      42.706   3.750  11.321  0.00  0.00    +0.000 NA
ATOM      9  H   UNL     1      42.675   3.915  12.324  0.00  0.00    +0.000 HD
ATOM     10  H   UNL     1      43.069   2.807  11.192  0.00  0.00    +0.000 HD
ENDBRANCH   7   8
ENDBRANCH   1   7
BRANCH   4  11
ATOM     11  O   UNL     1      48.216   5.525  13.966  0.00  0.00    +0.000 OA
BRANCH  11  12
ATOM     12  C   UNL     1      47.996   6.090  15.260  0.00  0.00    +0.000 C 
BRANCH  12  13
ATOM     13  C   UNL     1      48.213   5.045  16.326  0.00  0.00    +0.000 A 
ATOM     14  C   UNL     1      49.350   5.101  17.144  0.00  0.00    +0.000 A 
ATOM     15  C   UNL     1      49.517   4.186  18.184  0.00  0.00    +0.000 A 
ATOM     16  C   UNL     1      48.550   3.210  18.417  0.00  0.00    +0.000 A 
ATOM     17  C   UNL     1      47.414   3.148  17.609  0.00  0.00    +0.000 A 
ATOM     18  C   UNL     1      47.245   4.062  16.568  0.00  0.00    +0.000 A 
ENDBRANCH  12  13
ENDBRANCH  11  12
ENDBRANCH   4  11
TORSDOF 5
ENDMDL
