MODEL 1
REMARK VINA RESULT:    -6.766      0.000      0.000
REMARK INTER + INTRA:          -9.419
REMARK INTER:                  -8.743
REMARK INTRA:                  -0.676
REMARK UNBOUND:                -0.676
REMARK  Name = 
REMARK  6 active torsions:
REMARK  status: ('A' for Active; 'I' for Inactive)
REMARK    1  A    between atoms: C_1  and  S_2
REMARK    2  A    between atoms: S_2  and  C_3
REMARK    3  A    between atoms: C_5  and  C_6
REMARK    4  A    between atoms: C_11  and  O_12
REMARK    5  A    between atoms: O_12  and  C_13
REMARK    6  A    between atoms: C_13  and  C_14
REMARK                            x       y       z     vdW  Elec       q    Type
REMARK                         _______ _______ _______ _____ _____    ______ ____
ROOT
ATOM      1  C   UNL     1      47.364   6.250  12.696  0.00  0.00    +0.000 A 
ATOM      2  N   UNL     1      47.864   5.870  13.897  0.00  0.00    +0.000 NA
ATOM      3  C   UNL     1      47.158   4.941  14.592  0.00  0.00    +0.000 A 
ATOM      4  C   UNL     1      45.979   4.370  14.139  0.00  0.00    +0.000 A 
ATOM      5  C   UNL     1      45.494   4.757  12.891  0.00  0.00    +0.000 A 
ATOM      6  C   UNL     1      46.193   5.704  12.140  0.00  0.00    +0.000 A 
ENDROOT
BRANCH   3   7
ATOM      7  C   UNL     1      47.722   4.547  15.923  0.00  0.00    +0.000 C 
ATOM      8  N   UNL     1      46.991   3.617  16.613  0.00  0.00    +0.000 N 
ATOM      9  O   UNL     1      48.755   5.021  16.368  0.00  0.00    +0.000 OA
ATOM     10  H   UNL     1      46.120   3.273  16.224  0.00  0.00    +0.000 HD
ATOM     11  H   UNL     1      47.294   3.324  17.530  0.00  0.00    +0.000 HD
ENDBRANCH   3   7
BRANCH   1  13
ATOM     12  C   UNL     1      49.717   7.669  12.944  0.00  0.00    +0.000 C 
ATOM     13  S   UNL     1      48.313   7.489  11.814  0.00  0.00    +0.000 S 
ENDBRANCH   1  13
BRANCH   6  14
ATOM     14  O   UNL     1      45.764   6.186  10.932  0.00  0.00    +0.000 OA
BRANCH  14  15
ATOM     15  C   UNL     1      44.687   5.496  10.289  0.00  0.00    +0.000 C 
BRANCH  15  16
ATOM     16  C   UNL     1      45.243   4.436   9.353  0.00  0.00    +0.000 A 
ATOM     17  C   UNL     1      46.125   4.802   8.319  0.00  0.00    +0.000 A 
ATOM     18  C   UNL     1      46.664   3.845   7.456  0.00  0.00    +0.000 A 
ATOM     19  C   UNL     1      46.341   2.502   7.627  0.00  0.00    +0.000 A 
ATOM     20 CL   UNL     1      47.008   1.321   6.569  0.00  0.00    +0.000 Cl
ATOM     21  C   UNL     1      45.488   2.109   8.653  0.00  0.00    +0.000 A 
ATOM     22  C   UNL     1      44.947   3.070   9.515  0.00  0.00    +0.000 A 
ATOM     23 CL   UNL     1      43.914   2.503  10.780  0.00  0.00    +0.000 Cl
ENDBRANCH  15  16
ENDBRANCH  14  15
ENDBRANCH   6  14
TORSDOF 5
ENDMDL
MODEL 2
REMARK VINA RESULT:    -6.538      2.034      2.930
REMARK INTER + INTRA:          -9.125
REMARK INTER:                  -8.415
REMARK INTRA:                  -0.709
REMARK UNBOUND:                -0.676
REMARK  Name = 
REMARK  6 active torsions:
REMARK  status: ('A' for Active; 'I' for Inactive)
REMARK    1  A    between atoms: C_1  and  S_2
REMARK    2  A    between atoms: S_2  and  C_3
REMARK    3  A    between atoms: C_5  and  C_6
REMARK    4  A    between atoms: C_11  and  O_12
REMARK    5  A    between atoms: O_12  and  C_13
REMARK    6  A    between atoms: C_13  and  C_14
REMARK                            x       y       z     vdW  Elec       q    Type
REMARK                         _______ _______ _______ _____ _____    ______ ____
ROOT
ATOM      1  C   UNL     1      47.069   5.415  13.112  0.00  0.00    +0.000 A 
ATOM      2  N   UNL     1      48.281   5.981  13.338  0.00  0.00    +0.000 NA
ATOM      3  C   UNL     1      48.514   7.187  12.761  0.00  0.00    +0.000 A 
ATOM      4  C   UNL     1      47.592   7.858  11.974  0.00  0.00    +0.000 A 
ATOM      5  C   UNL     1      46.343   7.271  11.772  0.00  0.00    +0.000 A 
ATOM      6  C   UNL     1      46.059   6.034  12.354  0.00  0.00    +0.000 A 
ENDROOT
BRANCH   3   7
ATOM      7  C   UNL     1      49.864   7.786  13.013  0.00  0.00    +0.000 C 
ATOM      8  N   UNL     1      50.461   7.406  14.185  0.00  0.00    +0.000 N 
ATOM      9  O   UNL     1      50.397   8.562  12.234  0.00  0.00    +0.000 OA
ATOM     10  H   UNL     1      49.971   6.787  14.821  0.00  0.00    +0.000 HD
ATOM     11  H   UNL     1      51.359   7.792  14.436  0.00  0.00    +0.000 HD
ENDBRANCH   3   7
BRANCH   1  13
ATOM     12  C   UNL     1      47.227   4.215  15.591  0.00  0.00    +0.000 C 
ATOM     13  S   UNL     1      46.801   3.816  13.877  0.00  0.00    +0.000 S 
ENDBRANCH   1  13
BRANCH   6  14
ATOM     14  O   UNL     1      44.884   5.356  12.166  0.00  0.00    +0.000 OA
BRANCH  14  15
ATOM     15  C   UNL     1      44.246   5.481  10.890  0.00  0.00    +0.000 C 
BRANCH  15  16
ATOM     16  C   UNL     1      44.813   4.450   9.930  0.00  0.00    +0.000 A 
ATOM     17  C   UNL     1      45.677   4.852   8.894  0.00  0.00    +0.000 A 
ATOM     18  C   UNL     1      46.226   3.921   8.008  0.00  0.00    +0.000 A 
ATOM     19  C   UNL     1      45.931   2.569   8.158  0.00  0.00    +0.000 A 
ATOM     20 CL   UNL     1      46.611   1.421   7.073  0.00  0.00    +0.000 Cl
ATOM     21  C   UNL     1      45.097   2.140   9.185  0.00  0.00    +0.000 A 
ATOM     22  C   UNL     1      44.546   3.075  10.069  0.00  0.00    +0.000 A 
ATOM     23 CL   UNL     1      43.537   2.465  11.334  0.00  0.00    +0.000 Cl
ENDBRANCH  15  16
ENDBRANCH  14  15
ENDBRANCH   6  14
TORSDOF 5
ENDMDL
MODEL 3
REMARK VINA RESULT:    -5.834      4.202      7.312
REMARK INTER + INTRA:          -8.216
REMARK INTER:                  -7.653
REMARK INTRA:                  -0.562
REMARK UNBOUND:                -0.676
REMARK  Name = 
REMARK  6 active torsions:
REMARK  status: ('A' for Active; 'I' for Inactive)
REMARK    1  A    between atoms: C_1  and  S_2
REMARK    2  A    between atoms: S_2  and  C_3
REMARK    3  A    between atoms: C_5  and  C_6
REMARK    4  A    between atoms: C_11  and  O_12
REMARK    5  A    between atoms: O_12  and  C_13
REMARK    6  A    between atoms: C_13  and  C_14
REMARK                            x       y       z     vdW  Elec       q    Type
REMARK                         _______ _______ _______ _____ _____    ______ ____
ROOT
ATOM      1  C   UNL     1      46.499   5.818  12.996  0.00  0.00    +0.000 A 
ATOM      2  N   UNL     1      45.683   5.616  11.932  0.00  0.00    +0.000 NA
ATOM      3  C   UNL     1      45.261   4.345  11.713  0.00  0.00    +0.000 A 
ATOM      4  C   UNL     1      45.610   3.266  12.510  0.00  0.00    +0.000 A 
ATOM      5  C   UNL     1      46.431   3.498  13.613  0.00  0.00    +0.000 A 
ATOM      6  C   UNL     1      46.882   4.792  13.880  0.00  0.00    +0.000 A 
ENDROOT
BRANCH   3   7
ATOM      7  C   UNL     1      44.372   4.143  10.524  0.00  0.00    +0.000 C 
ATOM      8  N   UNL     1      44.673   4.913   9.433  0.00  0.00    +0.000 N 
ATOM      9  O   UNL     1      43.439   3.353  10.524  0.00  0.00    +0.000 OA
ATOM     10  H   UNL     1      45.433   5.582   9.485  0.00  0.00    +0.000 HD
ATOM     11  H   UNL     1      44.099   4.853   8.605  0.00  0.00    +0.000 HD
ENDBRANCH   3   7
BRANCH   1  13
ATOM     12  C   UNL     1      45.530   8.395  12.820  0.00  0.00    +0.000 C 
ATOM     13  S   UNL     1      47.049   7.506  13.246  0.00  0.00    +0.000 S 
ENDBRANCH   1  13
BRANCH   6  14
ATOM     14  O   UNL     1      47.735   5.106  14.904  0.00  0.00    +0.000 OA
BRANCH  14  15
ATOM     15  C   UNL     1      47.495   4.493  16.175  0.00  0.00    +0.000 C 
BRANCH  15  16
ATOM     16  C   UNL     1      48.778   3.870  16.695  0.00  0.00    +0.000 A 
ATOM     17  C   UNL     1      48.981   2.481  16.590  0.00  0.00    +0.000 A 
ATOM     18  C   UNL     1      50.160   1.886  17.045  0.00  0.00    +0.000 A 
ATOM     19  C   UNL     1      51.164   2.676  17.596  0.00  0.00    +0.000 A 
ATOM     20 CL   UNL     1      52.620   1.946  18.150  0.00  0.00    +0.000 Cl
ATOM     21  C   UNL     1      51.001   4.054  17.694  0.00  0.00    +0.000 A 
ATOM     22  C   UNL     1      49.817   4.648  17.240  0.00  0.00    +0.000 A 
ATOM     23 CL   UNL     1      49.696   6.368  17.374  0.00  0.00    +0.000 Cl
ENDBRANCH  15  16
ENDBRANCH  14  15
ENDBRANCH   6  14
TORSDOF 5
ENDMDL
MODEL 4
REMARK VINA RESULT:    -5.806      2.580      3.820
REMARK INTER + INTRA:          -8.180
REMARK INTER:                  -7.683
REMARK INTRA:                  -0.497
REMARK UNBOUND:                -0.676
REMARK  Name = 
REMARK  6 active torsions:
REMARK  status: ('A' for Active; 'I' for Inactive)
REMARK    1  A    between atoms: C_1  and  S_2
REMARK    2  A    between atoms: S_2  and  C_3
REMARK    3  A    between atoms: C_5  and  C_6
REMARK    4  A    between atoms: C_11  and  O_12
REMARK    5  A    between atoms: O_12  and  C_13
REMARK    6  A    between atoms: C_13  and  C_14
REMARK                            x       y       z     vdW  Elec       q    Type
REMARK                         _______ _______ _______ _____ _____    ______ ____
ROOT
ATOM      1  C   UNL     1      48.527   5.729  16.099  0.00  0.00    +0.000 A 
ATOM      2  N   UNL     1      48.964   5.699  17.382  0.00  0.00    +0.000 NA
ATOM      3  C   UNL     1      48.568   4.647  18.143  0.00  0.00    +0.000 A 
ATOM      4  C   UNL     1      47.764   3.618  17.680  0.00  0.00    +0.000 A 
ATOM      5  C   UNL     1      47.344   3.655  16.350  0.00  0.00    +0.000 A 
ATOM      6  C   UNL     1      47.733   4.715  15.531  0.00  0.00    +0.000 A 
ENDROOT
BRANCH   3   7
ATOM      7  C   UNL     1      49.052   4.643  19.561  0.00  0.00    +0.000 C 
ATOM      8  N   UNL     1      48.438   3.736  20.384  0.00  0.00    +0.000 N 
ATOM      9  O   UNL     1      49.926   5.396  19.962  0.00  0.00    +0.000 OA
ATOM     10  H   UNL     1      47.692   3.153  20.020  0.00  0.00    +0.000 HD
ATOM     11  H   UNL     1      48.691   3.696  21.360  0.00  0.00    +0.000 HD
ENDBRANCH   3   7
BRANCH   1  13
ATOM     12  C   UNL     1      50.795   7.226  15.623  0.00  0.00    +0.000 C 
ATOM     13  S   UNL     1      49.054   7.141  15.128  0.00  0.00    +0.000 S 
ENDBRANCH   1  13
BRANCH   6  14
ATOM     14  O   UNL     1      47.325   4.865  14.233  0.00  0.00    +0.000 OA
BRANCH  14  15
ATOM     15  C   UNL     1      45.917   4.955  13.989  0.00  0.00    +0.000 C 
BRANCH  15  16
ATOM     16  C   UNL     1      45.633   4.690  12.520  0.00  0.00    +0.000 A 
ATOM     17  C   UNL     1      45.137   3.437  12.114  0.00  0.00    +0.000 A 
ATOM     18  C   UNL     1      44.850   3.174  10.771  0.00  0.00    +0.000 A 
ATOM     19  C   UNL     1      45.039   4.169   9.818  0.00  0.00    +0.000 A 
ATOM     20 CL   UNL     1      44.680   3.849   8.166  0.00  0.00    +0.000 Cl
ATOM     21  C   UNL     1      45.507   5.423  10.193  0.00  0.00    +0.000 A 
ATOM     22  C   UNL     1      45.797   5.684  11.538  0.00  0.00    +0.000 A 
ATOM     23 CL   UNL     1      46.354   7.273  11.932  0.00  0.00    +0.000 Cl
ENDBRANCH  15  16
ENDBRANCH  14  15
ENDBRANCH   6  14
TORSDOF 5
ENDMDL
MODEL 5
REMARK VINA RESULT:    -5.762      1.860      2.390
REMARK INTER + INTRA:          -8.123
REMARK INTER:                  -7.551
REMARK INTRA:                  -0.572
REMARK UNBOUND:                -0.676
REMARK  Name = 
REMARK  6 active torsions:
REMARK  status: ('A' for Active; 'I' for Inactive)
REMARK    1  A    between atoms: C_1  and  S_2
REMARK    2  A    between atoms: S_2  and  C_3
REMARK    3  A    between atoms: C_5  and  C_6
REMARK    4  A    between atoms: C_11  and  O_12
REMARK    5  A    between atoms: O_12  and  C_13
REMARK    6  A    between atoms: C_13  and  C_14
REMARK                            x       y       z     vdW  Elec       q    Type
REMARK                         _______ _______ _______ _____ _____    ______ ____
ROOT
ATOM      1  C   UNL     1      48.283   6.248  14.880  0.00  0.00    +0.000 A 
ATOM      2  N   UNL     1      48.939   5.848  15.997  0.00  0.00    +0.000 NA
ATOM      3  C   UNL     1      48.521   4.694  16.577  0.00  0.00    +0.000 A 
ATOM      4  C   UNL     1      47.482   3.917  16.090  0.00  0.00    +0.000 A 
ATOM      5  C   UNL     1      46.834   4.334  14.927  0.00  0.00    +0.000 A 
ATOM      6  C   UNL     1      47.238   5.511  14.294  0.00  0.00    +0.000 A 
ENDROOT
BRANCH   3   7
ATOM      7  C   UNL     1      49.251   4.279  17.817  0.00  0.00    +0.000 C 
ATOM      8  N   UNL     1      49.112   2.962  18.164  0.00  0.00    +0.000 N 
ATOM      9  O   UNL     1      49.921   5.058  18.480  0.00  0.00    +0.000 OA
ATOM     10  H   UNL     1      48.519   2.357  17.607  0.00  0.00    +0.000 HD
ATOM     11  H   UNL     1      49.551   2.617  19.004  0.00  0.00    +0.000 HD
ENDBRANCH   3   7
BRANCH   1  13
ATOM     12  C   UNL     1      49.987   8.343  15.445  0.00  0.00    +0.000 C 
ATOM     13  S   UNL     1      48.851   7.784  14.150  0.00  0.00    +0.000 S 
ENDBRANCH   1  13
BRANCH   6  14
ATOM     14  O   UNL     1      46.626   6.026  13.183  0.00  0.00    +0.000 OA
BRANCH  14  15
ATOM     15  C   UNL     1      45.287   5.600  12.907  0.00  0.00    +0.000 C 
BRANCH  15  16
ATOM     16  C   UNL     1      45.208   5.035  11.500  0.00  0.00    +0.000 A 
ATOM     17  C   UNL     1      45.851   5.697  10.437  0.00  0.00    +0.000 A 
ATOM     18  C   UNL     1      45.808   5.188   9.136  0.00  0.00    +0.000 A 
ATOM     19  C   UNL     1      45.135   3.997   8.884  0.00  0.00    +0.000 A 
ATOM     20 CL   UNL     1      45.086   3.366   7.284  0.00  0.00    +0.000 Cl
ATOM     21  C   UNL     1      44.508   3.310   9.917  0.00  0.00    +0.000 A 
ATOM     22  C   UNL     1      44.550   3.824  11.219  0.00  0.00    +0.000 A 
ATOM     23 CL   UNL     1      43.768   2.902  12.456  0.00  0.00    +0.000 Cl
ENDBRANCH  15  16
ENDBRANCH  14  15
ENDBRANCH   6  14
TORSDOF 5
ENDMDL
MODEL 6
REMARK VINA RESULT:    -5.757      2.377      3.508
REMARK INTER + INTRA:          -8.116
REMARK INTER:                  -7.587
REMARK INTRA:                  -0.529
REMARK UNBOUND:                -0.676
REMARK  Name = 
REMARK  6 active torsions:
REMARK  status: ('A' for Active; 'I' for Inactive)
REMARK    1  A    between atoms: C_1  and  S_2
REMARK    2  A    between atoms: S_2  and  C_3
REMARK    3  A    between atoms: C_5  and  C_6
REMARK    4  A    between atoms: C_11  and  O_12
REMARK    5  A    between atoms: O_12  and  C_13
REMARK    6  A    between atoms: C_13  and  C_14
REMARK                            x       y       z     vdW  Elec       q    Type
REMARK                         _______ _______ _______ _____ _____    ______ ____
ROOT
ATOM      1  C   UNL     1      47.924   5.411  15.228  0.00  0.00    +0.000 A 
ATOM      2  N   UNL     1      49.035   6.072  15.638  0.00  0.00    +0.000 NA
ATOM      3  C   UNL     1      49.544   7.002  14.791  0.00  0.00    +0.000 A 
ATOM      4  C   UNL     1      48.992   7.310  13.558  0.00  0.00    +0.000 A 
ATOM      5  C   UNL     1      47.837   6.636  13.165  0.00  0.00    +0.000 A 
ATOM      6  C   UNL     1      47.275   5.676  14.008  0.00  0.00    +0.000 A 
ENDROOT
BRANCH   3   7
ATOM      7  C   UNL     1      50.780   7.709  15.259  0.00  0.00    +0.000 C 
ATOM      8  N   UNL     1      51.782   7.807  14.331  0.00  0.00    +0.000 N 
ATOM      9  O   UNL     1      50.893   8.163  16.387  0.00  0.00    +0.000 OA
ATOM     10  H   UNL     1      51.663   7.386  13.416  0.00  0.00    +0.000 HD
ATOM     11  H   UNL     1      52.656   8.244  14.584  0.00  0.00    +0.000 HD
ENDBRANCH   3   7
BRANCH   1  13
ATOM     12  C   UNL     1      48.104   4.709  17.890  0.00  0.00    +0.000 C 
ATOM     13  S   UNL     1      47.287   4.178  16.363  0.00  0.00    +0.000 S 
ENDBRANCH   1  13
BRANCH   6  14
ATOM     14  O   UNL     1      46.176   4.926  13.683  0.00  0.00    +0.000 OA
BRANCH  14  15
ATOM     15  C   UNL     1      45.139   5.564  12.930  0.00  0.00    +0.000 C 
BRANCH  15  16
ATOM     16  C   UNL     1      45.116   5.008  11.516  0.00  0.00    +0.000 A 
ATOM     17  C   UNL     1      45.787   5.687  10.482  0.00  0.00    +0.000 A 
ATOM     18  C   UNL     1      45.796   5.188   9.177  0.00  0.00    +0.000 A 
ATOM     19  C   UNL     1      45.148   3.990   8.891  0.00  0.00    +0.000 A 
ATOM     20 CL   UNL     1      45.163   3.371   7.287  0.00  0.00    +0.000 Cl
ATOM     21  C   UNL     1      44.494   3.287   9.898  0.00  0.00    +0.000 A 
ATOM     22  C   UNL     1      44.484   3.791  11.204  0.00  0.00    +0.000 A 
ATOM     23 CL   UNL     1      43.671   2.850  12.406  0.00  0.00    +0.000 Cl
ENDBRANCH  15  16
ENDBRANCH  14  15
ENDBRANCH   6  14
TORSDOF 5
ENDMDL
MODEL 7
REMARK VINA RESULT:    -5.692      1.816      2.604
REMARK INTER + INTRA:          -8.032
REMARK INTER:                  -8.301
REMARK INTRA:                   0.268
REMARK UNBOUND:                -0.676
REMARK  Name = 
REMARK  6 active torsions:
REMARK  status: ('A' for Active; 'I' for Inactive)
REMARK    1  A    between atoms: C_1  and  S_2
REMARK    2  A    between atoms: S_2  and  C_3
REMARK    3  A    between atoms: C_5  and  C_6
REMARK    4  A    between atoms: C_11  and  O_12
REMARK    5  A    between atoms: O_12  and  C_13
REMARK    6  A    between atoms: C_13  and  C_14
REMARK                            x       y       z     vdW  Elec       q    Type
REMARK                         _______ _______ _______ _____ _____    ______ ____
ROOT
ATOM      1  C   UNL     1      44.937   5.281  12.588  0.00  0.00    +0.000 A 
ATOM      2  N   UNL     1      45.661   5.201  13.731  0.00  0.00    +0.000 NA
ATOM      3  C   UNL     1      46.940   5.653  13.681  0.00  0.00    +0.000 A 
ATOM      4  C   UNL     1      47.528   6.187  12.545  0.00  0.00    +0.000 A 
ATOM      5  C   UNL     1      46.759   6.281  11.386  0.00  0.00    +0.000 A 
ATOM      6  C   UNL     1      45.436   5.836  11.395  0.00  0.00    +0.000 A 
ENDROOT
BRANCH   3   7
ATOM      7  C   UNL     1      47.726   5.542  14.952  0.00  0.00    +0.000 C 
ATOM      8  N   UNL     1      47.162   4.756  15.921  0.00  0.00    +0.000 N 
ATOM      9  O   UNL     1      48.793   6.114  15.120  0.00  0.00    +0.000 OA
ATOM     10  H   UNL     1      46.258   4.327  15.755  0.00  0.00    +0.000 HD
ATOM     11  H   UNL     1      47.620   4.658  16.814  0.00  0.00    +0.000 HD
ENDBRANCH   3   7
BRANCH   1  13
ATOM     12  C   UNL     1      43.582   2.880  12.692  0.00  0.00    +0.000 C 
ATOM     13  S   UNL     1      43.257   4.661  12.685  0.00  0.00    +0.000 S 
ENDBRANCH   1  13
BRANCH   6  14
ATOM     14  O   UNL     1      44.624   5.836  10.292  0.00  0.00    +0.000 OA
BRANCH  14  15
ATOM     15  C   UNL     1      44.124   4.574   9.838  0.00  0.00    +0.000 C 
BRANCH  15  16
ATOM     16  C   UNL     1      45.119   3.942   8.881  0.00  0.00    +0.000 A 
ATOM     17  C   UNL     1      46.037   4.750   8.184  0.00  0.00    +0.000 A 
ATOM     18  C   UNL     1      46.974   4.191   7.311  0.00  0.00    +0.000 A 
ATOM     19  C   UNL     1      47.018   2.811   7.137  0.00  0.00    +0.000 A 
ATOM     20 CL   UNL     1      48.176   2.120   6.067  0.00  0.00    +0.000 Cl
ATOM     21  C   UNL     1      46.137   1.986   7.828  0.00  0.00    +0.000 A 
ATOM     22  C   UNL     1      45.197   2.549   8.700  0.00  0.00    +0.000 A 
ATOM     23 CL   UNL     1      44.151   1.459   9.542  0.00  0.00    +0.000 Cl
ENDBRANCH  15  16
ENDBRANCH  14  15
ENDBRANCH   6  14
TORSDOF 5
ENDMDL
MODEL 8
REMARK VINA RESULT:    -5.443      4.154      7.640
REMARK INTER + INTRA:          -7.711
REMARK INTER:                  -7.253
REMARK INTRA:                  -0.458
REMARK UNBOUND:                -0.676
REMARK  Name = 
REMARK  6 active torsions:
REMARK  status: ('A' for Active; 'I' for Inactive)
REMARK    1  A    between atoms: C_1  and  S_2
REMARK    2  A    between atoms: S_2  and  C_3
REMARK    3  A    between atoms: C_5  and  C_6
REMARK    4  A    between atoms: C_11  and  O_12
REMARK    5  A    between atoms: O_12  and  C_13
REMARK    6  A    between atoms: C_13  and  C_14
REMARK                            x       y       z     vdW  Elec       q    Type
REMARK                         _______ _______ _______ _____ _____    ______ ____
ROOT
ATOM      1  C   UNL     1      46.411   5.976  13.065  0.00  0.00    +0.000 A 
ATOM      2  N   UNL     1      45.444   6.070  12.119  0.00  0.00    +0.000 NA
ATOM      3  C   UNL     1      44.852   4.912  11.728  0.00  0.00    +0.000 A 
ATOM      4  C   UNL     1      45.175   3.667  12.244  0.00  0.00    +0.000 A 
ATOM      5  C   UNL     1      46.155   3.595  13.233  0.00  0.00    +0.000 A 
ATOM      6  C   UNL     1      46.785   4.762  13.669  0.00  0.00    +0.000 A 
ENDROOT
BRANCH   3   7
ATOM      7  C   UNL     1      43.797   5.038  10.672  0.00  0.00    +0.000 C 
ATOM      8  N   UNL     1      44.153   4.574   9.434  0.00  0.00    +0.000 N 
ATOM      9  O   UNL     1      42.698   5.524  10.892  0.00  0.00    +0.000 OA
ATOM     10  H   UNL     1      45.088   4.210   9.284  0.00  0.00    +0.000 HD
ATOM     11  H   UNL     1      43.504   4.652   8.665  0.00  0.00    +0.000 HD
ENDBRANCH   3   7
BRANCH   1  13
ATOM     12  C   UNL     1      45.965   8.694  12.893  0.00  0.00    +0.000 C 
ATOM     13  S   UNL     1      47.182   7.522  13.546  0.00  0.00    +0.000 S 
ENDBRANCH   1  13
BRANCH   6  14
ATOM     14  O   UNL     1      47.795   4.783  14.593  0.00  0.00    +0.000 OA
BRANCH  14  15
ATOM     15  C   UNL     1      47.494   4.319  15.913  0.00  0.00    +0.000 C 
BRANCH  15  16
ATOM     16  C   UNL     1      48.549   4.816  16.885  0.00  0.00    +0.000 A 
ATOM     17  C   UNL     1      48.540   6.159  17.309  0.00  0.00    +0.000 A 
ATOM     18  C   UNL     1      49.488   6.637  18.217  0.00  0.00    +0.000 A 
ATOM     19  C   UNL     1      50.452   5.773  18.728  0.00  0.00    +0.000 A 
ATOM     20 CL   UNL     1      51.616   6.358  19.850  0.00  0.00    +0.000 Cl
ATOM     21  C   UNL     1      50.473   4.437  18.343  0.00  0.00    +0.000 A 
ATOM     22  C   UNL     1      49.523   3.960  17.431  0.00  0.00    +0.000 A 
ATOM     23 CL   UNL     1      49.599   2.283  17.018  0.00  0.00    +0.000 Cl
ENDBRANCH  15  16
ENDBRANCH  14  15
ENDBRANCH   6  14
TORSDOF 5
ENDMDL
MODEL 9
REMARK VINA RESULT:    -5.403      4.553      7.348
REMARK INTER + INTRA:          -7.658
REMARK INTER:                  -6.982
REMARK INTRA:                  -0.676
REMARK UNBOUND:                -0.676
REMARK  Name = 
REMARK  6 active torsions:
REMARK  status: ('A' for Active; 'I' for Inactive)
REMARK    1  A    between atoms: C_1  and  S_2
REMARK    2  A    between atoms: S_2  and  C_3
REMARK    3  A    between atoms: C_5  and  C_6
REMARK    4  A    between atoms: C_11  and  O_12
REMARK    5  A    between atoms: O_12  and  C_13
REMARK    6  A    between atoms: C_13  and  C_14
REMARK                            x       y       z     vdW  Elec       q    Type
REMARK                         _______ _______ _______ _____ _____    ______ ____
ROOT
ATOM      1  C   UNL     1      45.307   5.161  13.223  0.00  0.00    +0.000 A 
ATOM      2  N   UNL     1      44.871   6.256  12.553  0.00  0.00    +0.000 NA
ATOM      3  C   UNL     1      45.694   7.335  12.535  0.00  0.00    +0.000 A 
ATOM      4  C   UNL     1      46.937   7.369  13.148  0.00  0.00    +0.000 A 
ATOM      5  C   UNL     1      47.377   6.225  13.812  0.00  0.00    +0.000 A 
ATOM      6  C   UNL     1      46.565   5.090  13.849  0.00  0.00    +0.000 A 
ENDROOT
BRANCH   3   7
ATOM      7  C   UNL     1      45.185   8.539  11.802  0.00  0.00    +0.000 C 
ATOM      8  N   UNL     1      44.033   8.343  11.088  0.00  0.00    +0.000 N 
ATOM      9  O   UNL     1      45.757   9.618  11.829  0.00  0.00    +0.000 OA
ATOM     10  H   UNL     1      43.609   7.422  11.063  0.00  0.00    +0.000 HD
ATOM     11  H   UNL     1      43.647   9.101  10.545  0.00  0.00    +0.000 HD
ENDBRANCH   3   7
BRANCH   1  13
ATOM     12  C   UNL     1      43.414   3.961  11.614  0.00  0.00    +0.000 C 
ATOM     13  S   UNL     1      44.188   3.761  13.239  0.00  0.00    +0.000 S 
ENDBRANCH   1  13
BRANCH   6  14
ATOM     14  O   UNL     1      46.889   3.943  14.522  0.00  0.00    +0.000 OA
BRANCH  14  15
ATOM     15  C   UNL     1      46.842   3.981  15.953  0.00  0.00    +0.000 C 
BRANCH  15  16
ATOM     16  C   UNL     1      48.214   3.661  16.520  0.00  0.00    +0.000 A 
ATOM     17  C   UNL     1      48.718   2.348  16.449  0.00  0.00    +0.000 A 
ATOM     18  C   UNL     1      49.984   2.032  16.947  0.00  0.00    +0.000 A 
ATOM     19  C   UNL     1      50.774   3.030  17.509  0.00  0.00    +0.000 A 
ATOM     20 CL   UNL     1      52.336   2.644  18.117  0.00  0.00    +0.000 Cl
ATOM     21  C   UNL     1      50.311   4.340  17.574  0.00  0.00    +0.000 A 
ATOM     22  C   UNL     1      49.041   4.654  17.077  0.00  0.00    +0.000 A 
ATOM     23 CL   UNL     1      48.544   6.308  17.172  0.00  0.00    +0.000 Cl
ENDBRANCH  15  16
ENDBRANCH  14  15
ENDBRANCH   6  14
TORSDOF 5
ENDMDL
