MODEL 1
REMARK VINA RESULT:    -8.288      0.000      0.000
REMARK INTER + INTRA:         -10.992
REMARK INTER:                 -10.711
REMARK INTRA:                  -0.281
REMARK UNBOUND:                -0.281
REMARK  Name = 
REMARK  6 active torsions:
REMARK  status: ('A' for Active; 'I' for Inactive)
REMARK    1  A    between atoms: C_1  and  C_2
REMARK    2  A    between atoms: C_4  and  C_5
REMARK    3  A    between atoms: C_10  and  C_11
REMARK    4  A    between atoms: C_11  and  C_12
REMARK    5  A    between atoms: C_15  and  O_16
REMARK    6  A    between atoms: O_16  and  C_17
REMARK                            x       y       z     vdW  Elec       q    Type
REMARK                         _______ _______ _______ _____ _____    ______ ____
ROOT
ATOM      1  C   UNL     1      44.377   3.792  11.216  0.00  0.00    +0.000 C 
ATOM      2  C   UNL     1      42.947   4.264  11.489  0.00  0.00    +0.000 C 
ATOM      3  C   UNL     1      43.268   2.830  11.705  0.00  0.00    +0.000 C 
ENDROOT
BRANCH   1  10
ATOM      4  C   UNL     1      45.289   6.690  11.669  0.00  0.00    +0.000 C 
ATOM      5  C   UNL     1      45.780   5.553  12.522  0.00  0.00    +0.000 A 
ATOM      6  C   UNL     1      46.577   5.841  13.644  0.00  0.00    +0.000 A 
ATOM      7  C   UNL     1      47.062   4.790  14.405  0.00  0.00    +0.000 A 
ATOM      8  N   UNL     1      46.842   3.480  14.116  0.00  0.00    +0.000 NA
ATOM      9  C   UNL     1      46.047   3.242  13.048  0.00  0.00    +0.000 A 
ATOM     10  C   UNL     1      45.437   4.211  12.239  0.00  0.00    +0.000 A 
BRANCH   7  11
ATOM     11  C   UNL     1      47.832   5.059  15.659  0.00  0.00    +0.000 C 
ATOM     12  N   UNL     1      47.216   4.626  16.812  0.00  0.00    +0.000 N 
ATOM     13  O   UNL     1      48.910   5.630  15.683  0.00  0.00    +0.000 OA
ATOM     14  H   UNL     1      46.298   4.197  16.748  0.00  0.00    +0.000 HD
ATOM     15  H   UNL     1      47.639   4.824  17.707  0.00  0.00    +0.000 HD
ENDBRANCH   7  11
ENDBRANCH   1  10
BRANCH   1  16
ATOM     16  C   UNL     1      44.796   3.444   9.785  0.00  0.00    +0.000 A 
ATOM     17  C   UNL     1      45.209   4.467   8.913  0.00  0.00    +0.000 A 
ATOM     18  C   UNL     1      46.065   4.202   7.844  0.00  0.00    +0.000 A 
ATOM     19  C   UNL     1      46.520   2.906   7.634  0.00  0.00    +0.000 A 
ATOM     20  C   UNL     1      45.933   1.854   8.338  0.00  0.00    +0.000 A 
ATOM     21  C   UNL     1      45.062   2.121   9.399  0.00  0.00    +0.000 A 
BRANCH  19  22
ATOM     22  O   UNL     1      47.505   2.580   6.753  0.00  0.00    +0.000 OA
BRANCH  22  23
ATOM     23  C   UNL     1      47.228   2.789   5.365  0.00  0.00    +0.000 C 
ATOM     24  F   UNL     1      47.073   4.082   5.006  0.00  0.00    +0.000 F 
ATOM     25  F   UNL     1      48.240   2.276   4.626  0.00  0.00    +0.000 F 
ATOM     26  F   UNL     1      46.096   2.122   5.042  0.00  0.00    +0.000 F 
ENDBRANCH  22  23
ENDBRANCH  19  22
ENDBRANCH   1  16
TORSDOF 5
ENDMDL
MODEL 2
REMARK VINA RESULT:    -7.703      1.828      2.413
REMARK INTER + INTRA:         -10.235
REMARK INTER:                 -10.247
REMARK INTRA:                   0.012
REMARK UNBOUND:                -0.281
REMARK  Name = 
REMARK  6 active torsions:
REMARK  status: ('A' for Active; 'I' for Inactive)
REMARK    1  A    between atoms: C_1  and  C_2
REMARK    2  A    between atoms: C_4  and  C_5
REMARK    3  A    between atoms: C_10  and  C_11
REMARK    4  A    between atoms: C_11  and  C_12
REMARK    5  A    between atoms: C_15  and  O_16
REMARK    6  A    between atoms: O_16  and  C_17
REMARK                            x       y       z     vdW  Elec       q    Type
REMARK                         _______ _______ _______ _____ _____    ______ ____
ROOT
ATOM      1  C   UNL     1      44.050   5.038  11.322  0.00  0.00    +0.000 C 
ATOM      2  C   UNL     1      42.719   5.785  11.428  0.00  0.00    +0.000 C 
ATOM      3  C   UNL     1      42.831   4.452  12.073  0.00  0.00    +0.000 C 
ENDROOT
BRANCH   1  10
ATOM      4  C   UNL     1      46.001   3.270  12.904  0.00  0.00    +0.000 C 
ATOM      5  C   UNL     1      46.163   4.763  12.817  0.00  0.00    +0.000 A 
ATOM      6  C   UNL     1      47.315   5.354  13.364  0.00  0.00    +0.000 A 
ATOM      7  C   UNL     1      47.444   6.733  13.318  0.00  0.00    +0.000 A 
ATOM      8  N   UNL     1      46.501   7.565  12.802  0.00  0.00    +0.000 NA
ATOM      9  C   UNL     1      45.421   6.960  12.257  0.00  0.00    +0.000 A 
ATOM     10  C   UNL     1      45.201   5.577  12.175  0.00  0.00    +0.000 A 
BRANCH   7  11
ATOM     11  C   UNL     1      48.697   7.390  13.802  0.00  0.00    +0.000 C 
ATOM     12  N   UNL     1      49.812   7.125  13.040  0.00  0.00    +0.000 N 
ATOM     13  O   UNL     1      48.752   8.093  14.799  0.00  0.00    +0.000 OA
ATOM     14  H   UNL     1      49.728   6.498  12.246  0.00  0.00    +0.000 HD
ATOM     15  H   UNL     1      50.711   7.479  13.332  0.00  0.00    +0.000 HD
ENDBRANCH   7  11
ENDBRANCH   1  10
BRANCH   1  16
ATOM     16  C   UNL     1      44.352   4.214  10.067  0.00  0.00    +0.000 A 
ATOM     17  C   UNL     1      45.160   4.760   9.054  0.00  0.00    +0.000 A 
ATOM     18  C   UNL     1      45.885   3.941   8.189  0.00  0.00    +0.000 A 
ATOM     19  C   UNL     1      45.811   2.561   8.327  0.00  0.00    +0.000 A 
ATOM     20  C   UNL     1      44.838   2.009   9.162  0.00  0.00    +0.000 A 
ATOM     21  C   UNL     1      44.101   2.834  10.017  0.00  0.00    +0.000 A 
BRANCH  19  22
ATOM     22  O   UNL     1      46.625   1.687   7.672  0.00  0.00    +0.000 OA
BRANCH  22  23
ATOM     23  C   UNL     1      47.327   2.187   6.532  0.00  0.00    +0.000 C 
ATOM     24  F   UNL     1      48.078   1.270   5.881  0.00  0.00    +0.000 F 
ATOM     25  F   UNL     1      46.437   2.691   5.645  0.00  0.00    +0.000 F 
ATOM     26  F   UNL     1      48.139   3.194   6.926  0.00  0.00    +0.000 F 
ENDBRANCH  22  23
ENDBRANCH  19  22
ENDBRANCH   1  16
TORSDOF 5
ENDMDL
MODEL 3
REMARK VINA RESULT:    -7.199      3.860      6.697
REMARK INTER + INTRA:          -9.584
REMARK INTER:                  -9.157
REMARK INTRA:                  -0.427
REMARK UNBOUND:                -0.281
REMARK  Name = 
REMARK  6 active torsions:
REMARK  status: ('A' for Active; 'I' for Inactive)
REMARK    1  A    between atoms: C_1  and  C_2
REMARK    2  A    between atoms: C_4  and  C_5
REMARK    3  A    between atoms: C_10  and  C_11
REMARK    4  A    between atoms: C_11  and  C_12
REMARK    5  A    between atoms: C_15  and  O_16
REMARK    6  A    between atoms: O_16  and  C_17
REMARK                            x       y       z     vdW  Elec       q    Type
REMARK                         _______ _______ _______ _____ _____    ______ ____
ROOT
ATOM      1  C   UNL     1      44.392   3.783  11.343  0.00  0.00    +0.000 C 
ATOM      2  C   UNL     1      43.368   2.772  11.861  0.00  0.00    +0.000 C 
ATOM      3  C   UNL     1      42.879   4.098  11.404  0.00  0.00    +0.000 C 
ENDROOT
BRANCH   1  10
ATOM      4  C   UNL     1      45.517   5.941   9.468  0.00  0.00    +0.000 C 
ATOM      5  C   UNL     1      45.604   4.475   9.145  0.00  0.00    +0.000 A 
ATOM      6  C   UNL     1      46.338   4.071   8.017  0.00  0.00    +0.000 A 
ATOM      7  C   UNL     1      46.384   2.723   7.698  0.00  0.00    +0.000 A 
ATOM      8  N   UNL     1      45.729   1.757   8.395  0.00  0.00    +0.000 NA
ATOM      9  C   UNL     1      45.058   2.179   9.491  0.00  0.00    +0.000 A 
ATOM     10  C   UNL     1      44.990   3.498   9.963  0.00  0.00    +0.000 A 
BRANCH   7  11
ATOM     11  C   UNL     1      47.232   2.245   6.563  0.00  0.00    +0.000 C 
ATOM     12  N   UNL     1      47.181   3.037   5.438  0.00  0.00    +0.000 N 
ATOM     13  O   UNL     1      47.909   1.229   6.604  0.00  0.00    +0.000 OA
ATOM     14  H   UNL     1      46.569   3.847   5.433  0.00  0.00    +0.000 HD
ATOM     15  H   UNL     1      47.676   2.752   4.605  0.00  0.00    +0.000 HD
ENDBRANCH   7  11
ENDBRANCH   1  10
BRANCH   1  16
ATOM     16  C   UNL     1      45.161   4.655  12.340  0.00  0.00    +0.000 A 
ATOM     17  C   UNL     1      46.359   4.178  12.903  0.00  0.00    +0.000 A 
ATOM     18  C   UNL     1      47.339   5.056  13.366  0.00  0.00    +0.000 A 
ATOM     19  C   UNL     1      47.132   6.426  13.271  0.00  0.00    +0.000 A 
ATOM     20  C   UNL     1      45.864   6.905  12.941  0.00  0.00    +0.000 A 
ATOM     21  C   UNL     1      44.878   6.021  12.493  0.00  0.00    +0.000 A 
BRANCH  19  22
ATOM     22  O   UNL     1      48.097   7.358  13.506  0.00  0.00    +0.000 OA
BRANCH  22  23
ATOM     23  C   UNL     1      48.677   7.992  12.363  0.00  0.00    +0.000 C 
ATOM     24  F   UNL     1      48.462   7.354  11.191  0.00  0.00    +0.000 F 
ATOM     25  F   UNL     1      48.176   9.244  12.245  0.00  0.00    +0.000 F 
ATOM     26  F   UNL     1      50.013   8.092  12.550  0.00  0.00    +0.000 F 
ENDBRANCH  22  23
ENDBRANCH  19  22
ENDBRANCH   1  16
TORSDOF 5
ENDMDL
MODEL 4
REMARK VINA RESULT:    -6.951      2.311      2.696
REMARK INTER + INTRA:          -9.264
REMARK INTER:                  -9.002
REMARK INTRA:                  -0.261
REMARK UNBOUND:                -0.281
REMARK  Name = 
REMARK  6 active torsions:
REMARK  status: ('A' for Active; 'I' for Inactive)
REMARK    1  A    between atoms: C_1  and  C_2
REMARK    2  A    between atoms: C_4  and  C_5
REMARK    3  A    between atoms: C_10  and  C_11
REMARK    4  A    between atoms: C_11  and  C_12
REMARK    5  A    between atoms: C_15  and  O_16
REMARK    6  A    between atoms: O_16  and  C_17
REMARK                            x       y       z     vdW  Elec       q    Type
REMARK                         _______ _______ _______ _____ _____    ______ ____
ROOT
ATOM      1  C   UNL     1      45.331   5.252  12.086  0.00  0.00    +0.000 C 
ATOM      2  C   UNL     1      44.188   5.053  13.084  0.00  0.00    +0.000 C 
ATOM      3  C   UNL     1      45.192   3.969  12.940  0.00  0.00    +0.000 C 
ENDROOT
BRANCH   1  10
ATOM      4  C   UNL     1      45.017   8.305  11.967  0.00  0.00    +0.000 C 
ATOM      5  C   UNL     1      46.243   7.648  12.539  0.00  0.00    +0.000 A 
ATOM      6  C   UNL     1      47.217   8.449  13.158  0.00  0.00    +0.000 A 
ATOM      7  C   UNL     1      48.364   7.846  13.649  0.00  0.00    +0.000 A 
ATOM      8  N   UNL     1      48.627   6.518  13.540  0.00  0.00    +0.000 NA
ATOM      9  C   UNL     1      47.655   5.773  12.966  0.00  0.00    +0.000 A 
ATOM     10  C   UNL     1      46.423   6.245  12.493  0.00  0.00    +0.000 A 
BRANCH   7  11
ATOM     11  C   UNL     1      49.377   8.651  14.400  0.00  0.00    +0.000 C 
ATOM     12  N   UNL     1      49.857   8.046  15.540  0.00  0.00    +0.000 N 
ATOM     13  O   UNL     1      49.748   9.763  14.057  0.00  0.00    +0.000 OA
ATOM     14  H   UNL     1      49.485   7.141  15.810  0.00  0.00    +0.000 HD
ATOM     15  H   UNL     1      50.497   8.547  16.137  0.00  0.00    +0.000 HD
ENDBRANCH   7  11
ENDBRANCH   1  10
BRANCH   1  16
ATOM     16  C   UNL     1      45.101   4.937  10.605  0.00  0.00    +0.000 A 
ATOM     17  C   UNL     1      45.942   5.510   9.633  0.00  0.00    +0.000 A 
ATOM     18  C   UNL     1      46.137   4.896   8.396  0.00  0.00    +0.000 A 
ATOM     19  C   UNL     1      45.492   3.698   8.115  0.00  0.00    +0.000 A 
ATOM     20  C   UNL     1      44.481   3.251   8.966  0.00  0.00    +0.000 A 
ATOM     21  C   UNL     1      44.276   3.877  10.199  0.00  0.00    +0.000 A 
BRANCH  19  22
ATOM     22  O   UNL     1      45.768   2.924   7.029  0.00  0.00    +0.000 OA
BRANCH  22  23
ATOM     23  C   UNL     1      46.940   2.108   7.097  0.00  0.00    +0.000 C 
ATOM     24  F   UNL     1      48.107   2.787   7.075  0.00  0.00    +0.000 F 
ATOM     25  F   UNL     1      46.911   1.380   8.239  0.00  0.00    +0.000 F 
ATOM     26  F   UNL     1      46.933   1.247   6.054  0.00  0.00    +0.000 F 
ENDBRANCH  22  23
ENDBRANCH  19  22
ENDBRANCH   1  16
TORSDOF 5
ENDMDL
MODEL 5
REMARK VINA RESULT:    -6.939      3.309      4.223
REMARK INTER + INTRA:          -9.248
REMARK INTER:                  -8.860
REMARK INTRA:                  -0.388
REMARK UNBOUND:                -0.281
REMARK  Name = 
REMARK  6 active torsions:
REMARK  status: ('A' for Active; 'I' for Inactive)
REMARK    1  A    between atoms: C_1  and  C_2
REMARK    2  A    between atoms: C_4  and  C_5
REMARK    3  A    between atoms: C_10  and  C_11
REMARK    4  A    between atoms: C_11  and  C_12
REMARK    5  A    between atoms: C_15  and  O_16
REMARK    6  A    between atoms: O_16  and  C_17
REMARK                            x       y       z     vdW  Elec       q    Type
REMARK                         _______ _______ _______ _____ _____    ______ ____
ROOT
ATOM      1  C   UNL     1      44.145   4.954  11.372  0.00  0.00    +0.000 C 
ATOM      2  C   UNL     1      42.880   4.224  11.828  0.00  0.00    +0.000 C 
ATOM      3  C   UNL     1      44.112   4.077  12.645  0.00  0.00    +0.000 C 
ENDROOT
BRANCH   1  10
ATOM      4  C   UNL     1      46.412   6.487  12.768  0.00  0.00    +0.000 C 
ATOM      5  C   UNL     1      45.252   7.189  12.118  0.00  0.00    +0.000 A 
ATOM      6  C   UNL     1      45.271   8.592  12.029  0.00  0.00    +0.000 A 
ATOM      7  C   UNL     1      44.184   9.240  11.466  0.00  0.00    +0.000 A 
ATOM      8  N   UNL     1      43.071   8.602  11.017  0.00  0.00    +0.000 NA
ATOM      9  C   UNL     1      43.100   7.252  11.090  0.00  0.00    +0.000 A 
ATOM     10  C   UNL     1      44.163   6.472  11.571  0.00  0.00    +0.000 A 
BRANCH   7  11
ATOM     11  C   UNL     1      44.209  10.722  11.266  0.00  0.00    +0.000 C 
ATOM     12  N   UNL     1      44.924  11.138  10.166  0.00  0.00    +0.000 N 
ATOM     13  O   UNL     1      43.662  11.516  12.016  0.00  0.00    +0.000 OA
ATOM     14  H   UNL     1      45.400  10.445   9.597  0.00  0.00    +0.000 HD
ATOM     15  H   UNL     1      45.043  12.126   9.994  0.00  0.00    +0.000 HD
ENDBRANCH   7  11
ENDBRANCH   1  10
BRANCH   1  16
ATOM     16  C   UNL     1      45.039   4.316  10.305  0.00  0.00    +0.000 A 
ATOM     17  C   UNL     1      44.913   2.944  10.020  0.00  0.00    +0.000 A 
ATOM     18  C   UNL     1      45.275   2.429   8.776  0.00  0.00    +0.000 A 
ATOM     19  C   UNL     1      45.770   3.282   7.797  0.00  0.00    +0.000 A 
ATOM     20  C   UNL     1      46.122   4.587   8.144  0.00  0.00    +0.000 A 
ATOM     21  C   UNL     1      45.772   5.097   9.398  0.00  0.00    +0.000 A 
BRANCH  19  22
ATOM     22  O   UNL     1      45.961   2.919   6.499  0.00  0.00    +0.000 OA
BRANCH  22  23
ATOM     23  C   UNL     1      47.169   2.218   6.194  0.00  0.00    +0.000 C 
ATOM     24  F   UNL     1      47.042   0.875   6.118  0.00  0.00    +0.000 F 
ATOM     25  F   UNL     1      47.648   2.651   5.004  0.00  0.00    +0.000 F 
ATOM     26  F   UNL     1      48.090   2.502   7.143  0.00  0.00    +0.000 F 
ENDBRANCH  22  23
ENDBRANCH  19  22
ENDBRANCH   1  16
TORSDOF 5
ENDMDL
MODEL 6
REMARK VINA RESULT:    -6.853      4.812      7.252
REMARK INTER + INTRA:          -9.137
REMARK INTER:                  -8.747
REMARK INTRA:                  -0.390
REMARK UNBOUND:                -0.281
REMARK  Name = 
REMARK  6 active torsions:
REMARK  status: ('A' for Active; 'I' for Inactive)
REMARK    1  A    between atoms: C_1  and  C_2
REMARK    2  A    between atoms: C_4  and  C_5
REMARK    3  A    between atoms: C_10  and  C_11
REMARK    4  A    between atoms: C_11  and  C_12
REMARK    5  A    between atoms: C_15  and  O_16
REMARK    6  A    between atoms: O_16  and  C_17
REMARK                            x       y       z     vdW  Elec       q    Type
REMARK                         _______ _______ _______ _____ _____    ______ ____
ROOT
ATOM      1  C   UNL     1      44.170   4.671  11.320  0.00  0.00    +0.000 C 
ATOM      2  C   UNL     1      42.691   4.449  11.642  0.00  0.00    +0.000 C 
ATOM      3  C   UNL     1      43.088   5.730  11.004  0.00  0.00    +0.000 C 
ENDROOT
BRANCH   1  10
ATOM      4  C   UNL     1      46.066   5.837   9.203  0.00  0.00    +0.000 C 
ATOM      5  C   UNL     1      45.689   4.382   9.226  0.00  0.00    +0.000 A 
ATOM      6  C   UNL     1      46.326   3.502   8.334  0.00  0.00    +0.000 A 
ATOM      7  C   UNL     1      45.949   2.168   8.329  0.00  0.00    +0.000 A 
ATOM      8  N   UNL     1      44.968   1.655   9.118  0.00  0.00    +0.000 NA
ATOM      9  C   UNL     1      44.398   2.524   9.984  0.00  0.00    +0.000 A 
ATOM     10  C   UNL     1      44.735   3.877  10.139  0.00  0.00    +0.000 A 
BRANCH   7  11
ATOM     11  C   UNL     1      46.670   1.184   7.464  0.00  0.00    +0.000 C 
ATOM     12  N   UNL     1      47.248   1.728   6.339  0.00  0.00    +0.000 N 
ATOM     13  O   UNL     1      46.737  -0.011   7.708  0.00  0.00    +0.000 OA
ATOM     14  H   UNL     1      47.128   2.718   6.154  0.00  0.00    +0.000 HD
ATOM     15  H   UNL     1      47.701   1.122   5.670  0.00  0.00    +0.000 HD
ENDBRANCH   7  11
ENDBRANCH   1  10
BRANCH   1  16
ATOM     16  C   UNL     1      45.112   5.178  12.416  0.00  0.00    +0.000 A 
ATOM     17  C   UNL     1      45.826   4.256  13.202  0.00  0.00    +0.000 A 
ATOM     18  C   UNL     1      47.030   4.607  13.811  0.00  0.00    +0.000 A 
ATOM     19  C   UNL     1      47.537   5.890  13.642  0.00  0.00    +0.000 A 
ATOM     20  C   UNL     1      46.728   6.874  13.072  0.00  0.00    +0.000 A 
ATOM     21  C   UNL     1      45.513   6.522  12.476  0.00  0.00    +0.000 A 
BRANCH  19  22
ATOM     22  O   UNL     1      48.788   6.269  14.023  0.00  0.00    +0.000 OA
BRANCH  22  23
ATOM     23  C   UNL     1      48.960   6.653  15.389  0.00  0.00    +0.000 C 
ATOM     24  F   UNL     1      50.239   6.647  15.823  0.00  0.00    +0.000 F 
ATOM     25  F   UNL     1      48.474   7.905  15.565  0.00  0.00    +0.000 F 
ATOM     26  F   UNL     1      48.245   5.814  16.172  0.00  0.00    +0.000 F 
ENDBRANCH  22  23
ENDBRANCH  19  22
ENDBRANCH   1  16
TORSDOF 5
ENDMDL
MODEL 7
REMARK VINA RESULT:    -6.553      2.201      3.495
REMARK INTER + INTRA:          -8.749
REMARK INTER:                  -9.134
REMARK INTRA:                   0.385
REMARK UNBOUND:                -0.281
REMARK  Name = 
REMARK  6 active torsions:
REMARK  status: ('A' for Active; 'I' for Inactive)
REMARK    1  A    between atoms: C_1  and  C_2
REMARK    2  A    between atoms: C_4  and  C_5
REMARK    3  A    between atoms: C_10  and  C_11
REMARK    4  A    between atoms: C_11  and  C_12
REMARK    5  A    between atoms: C_15  and  O_16
REMARK    6  A    between atoms: O_16  and  C_17
REMARK                            x       y       z     vdW  Elec       q    Type
REMARK                         _______ _______ _______ _____ _____    ______ ____
ROOT
ATOM      1  C   UNL     1      46.186   6.904  12.245  0.00  0.00    +0.000 C 
ATOM      2  C   UNL     1      46.794   8.304  12.131  0.00  0.00    +0.000 C 
ATOM      3  C   UNL     1      45.423   8.175  12.687  0.00  0.00    +0.000 C 
ENDROOT
BRANCH   1  10
ATOM      4  C   UNL     1      48.816   7.448  13.737  0.00  0.00    +0.000 C 
ATOM      5  C   UNL     1      47.903   6.313  14.112  0.00  0.00    +0.000 A 
ATOM      6  C   UNL     1      48.193   5.559  15.261  0.00  0.00    +0.000 A 
ATOM      7  C   UNL     1      47.373   4.490  15.583  0.00  0.00    +0.000 A 
ATOM      8  N   UNL     1      46.311   4.096  14.831  0.00  0.00    +0.000 NA
ATOM      9  C   UNL     1      46.044   4.862  13.749  0.00  0.00    +0.000 A 
ATOM     10  C   UNL     1      46.749   6.008  13.353  0.00  0.00    +0.000 A 
BRANCH   7  11
ATOM     11  C   UNL     1      47.592   3.725  16.849  0.00  0.00    +0.000 C 
ATOM     12  N   UNL     1      47.128   4.352  17.983  0.00  0.00    +0.000 N 
ATOM     13  O   UNL     1      48.151   2.640  16.898  0.00  0.00    +0.000 OA
ATOM     14  H   UNL     1      46.711   5.274  17.901  0.00  0.00    +0.000 HD
ATOM     15  H   UNL     1      47.291   3.932  18.887  0.00  0.00    +0.000 HD
ENDBRANCH   7  11
ENDBRANCH   1  10
BRANCH   1  16
ATOM     16  C   UNL     1      45.513   6.272  11.023  0.00  0.00    +0.000 A 
ATOM     17  C   UNL     1      46.240   6.124   9.828  0.00  0.00    +0.000 A 
ATOM     18  C   UNL     1      45.909   5.137   8.900  0.00  0.00    +0.000 A 
ATOM     19  C   UNL     1      44.844   4.283   9.157  0.00  0.00    +0.000 A 
ATOM     20  C   UNL     1      43.977   4.571  10.212  0.00  0.00    +0.000 A 
ATOM     21  C   UNL     1      44.302   5.572  11.132  0.00  0.00    +0.000 A 
BRANCH  19  22
ATOM     22  O   UNL     1      44.567   3.171   8.421  0.00  0.00    +0.000 OA
BRANCH  22  23
ATOM     23  C   UNL     1      45.173   1.947   8.844  0.00  0.00    +0.000 C 
ATOM     24  F   UNL     1      46.130   1.472   8.017  0.00  0.00    +0.000 F 
ATOM     25  F   UNL     1      45.737   2.126  10.062  0.00  0.00    +0.000 F 
ATOM     26  F   UNL     1      44.212   1.003   8.964  0.00  0.00    +0.000 F 
ENDBRANCH  22  23
ENDBRANCH  19  22
ENDBRANCH   1  16
TORSDOF 5
ENDMDL
MODEL 8
REMARK VINA RESULT:    -6.356      4.088      7.064
REMARK INTER + INTRA:          -8.494
REMARK INTER:                  -8.366
REMARK INTRA:                  -0.128
REMARK UNBOUND:                -0.281
REMARK  Name = 
REMARK  6 active torsions:
REMARK  status: ('A' for Active; 'I' for Inactive)
REMARK    1  A    between atoms: C_1  and  C_2
REMARK    2  A    between atoms: C_4  and  C_5
REMARK    3  A    between atoms: C_10  and  C_11
REMARK    4  A    between atoms: C_11  and  C_12
REMARK    5  A    between atoms: C_15  and  O_16
REMARK    6  A    between atoms: O_16  and  C_17
REMARK                            x       y       z     vdW  Elec       q    Type
REMARK                         _______ _______ _______ _____ _____    ______ ____
ROOT
ATOM      1  C   UNL     1      44.281   5.479  11.436  0.00  0.00    +0.000 C 
ATOM      2  C   UNL     1      42.822   5.126  11.730  0.00  0.00    +0.000 C 
ATOM      3  C   UNL     1      43.111   6.412  11.045  0.00  0.00    +0.000 C 
ENDROOT
BRANCH   1  10
ATOM      4  C   UNL     1      43.907   2.467  10.963  0.00  0.00    +0.000 C 
ATOM      5  C   UNL     1      44.701   3.332  10.024  0.00  0.00    +0.000 A 
ATOM      6  C   UNL     1      45.176   2.775   8.825  0.00  0.00    +0.000 A 
ATOM      7  C   UNL     1      45.941   3.562   7.979  0.00  0.00    +0.000 A 
ATOM      8  N   UNL     1      46.295   4.845   8.254  0.00  0.00    +0.000 NA
ATOM      9  C   UNL     1      45.796   5.358   9.402  0.00  0.00    +0.000 A 
ATOM     10  C   UNL     1      44.955   4.694  10.307  0.00  0.00    +0.000 A 
BRANCH   7  11
ATOM     11  C   UNL     1      46.382   3.035   6.651  0.00  0.00    +0.000 C 
ATOM     12  N   UNL     1      46.731   1.704   6.652  0.00  0.00    +0.000 N 
ATOM     13  O   UNL     1      46.451   3.717   5.641  0.00  0.00    +0.000 OA
ATOM     14  H   UNL     1      46.702   1.187   7.525  0.00  0.00    +0.000 HD
ATOM     15  H   UNL     1      47.099   1.284   5.810  0.00  0.00    +0.000 HD
ENDBRANCH   7  11
ENDBRANCH   1  10
BRANCH   1  16
ATOM     16  C   UNL     1      45.136   6.122  12.532  0.00  0.00    +0.000 A 
ATOM     17  C   UNL     1      45.926   5.309  13.366  0.00  0.00    +0.000 A 
ATOM     18  C   UNL     1      47.070   5.809  13.986  0.00  0.00    +0.000 A 
ATOM     19  C   UNL     1      47.441   7.133  13.780  0.00  0.00    +0.000 A 
ATOM     20  C   UNL     1      46.545   8.003  13.158  0.00  0.00    +0.000 A 
ATOM     21  C   UNL     1      45.390   7.502  12.550  0.00  0.00    +0.000 A 
BRANCH  19  22
ATOM     22  O   UNL     1      48.634   7.657  14.172  0.00  0.00    +0.000 OA
BRANCH  22  23
ATOM     23  C   UNL     1      49.624   7.844  13.158  0.00  0.00    +0.000 C 
ATOM     24  F   UNL     1      49.504   8.989  12.451  0.00  0.00    +0.000 F 
ATOM     25  F   UNL     1      50.853   7.841  13.727  0.00  0.00    +0.000 F 
ATOM     26  F   UNL     1      49.563   6.805  12.293  0.00  0.00    +0.000 F 
ENDBRANCH  22  23
ENDBRANCH  19  22
ENDBRANCH   1  16
TORSDOF 5
ENDMDL
MODEL 9
REMARK VINA RESULT:    -6.126      6.231      9.088
REMARK INTER + INTRA:          -8.197
REMARK INTER:                  -7.628
REMARK INTRA:                  -0.568
REMARK UNBOUND:                -0.281
REMARK  Name = 
REMARK  6 active torsions:
REMARK  status: ('A' for Active; 'I' for Inactive)
REMARK    1  A    between atoms: C_1  and  C_2
REMARK    2  A    between atoms: C_4  and  C_5
REMARK    3  A    between atoms: C_10  and  C_11
REMARK    4  A    between atoms: C_11  and  C_12
REMARK    5  A    between atoms: C_15  and  O_16
REMARK    6  A    between atoms: O_16  and  C_17
REMARK                            x       y       z     vdW  Elec       q    Type
REMARK                         _______ _______ _______ _____ _____    ______ ____
ROOT
ATOM      1  C   UNL     1      48.171   7.375  13.316  0.00  0.00    +0.000 C 
ATOM      2  C   UNL     1      48.519   8.147  12.042  0.00  0.00    +0.000 C 
ATOM      3  C   UNL     1      49.311   6.934  12.368  0.00  0.00    +0.000 C 
ENDROOT
BRANCH   1  10
ATOM      4  C   UNL     1      45.397   8.549  12.712  0.00  0.00    +0.000 C 
ATOM      5  C   UNL     1      45.618   7.073  12.899  0.00  0.00    +0.000 A 
ATOM      6  C   UNL     1      44.551   6.190  12.660  0.00  0.00    +0.000 A 
ATOM      7  C   UNL     1      44.746   4.835  12.871  0.00  0.00    +0.000 A 
ATOM      8  N   UNL     1      45.907   4.299  13.333  0.00  0.00    +0.000 NA
ATOM      9  C   UNL     1      46.921   5.174  13.523  0.00  0.00    +0.000 A 
ATOM     10  C   UNL     1      46.878   6.555  13.281  0.00  0.00    +0.000 A 
BRANCH   7  11
ATOM     11  C   UNL     1      43.666   3.857  12.536  0.00  0.00    +0.000 C 
ATOM     12  N   UNL     1      42.643   4.374  11.772  0.00  0.00    +0.000 N 
ATOM     13  O   UNL     1      43.662   2.695  12.913  0.00  0.00    +0.000 OA
ATOM     14  H   UNL     1      42.666   5.357  11.521  0.00  0.00    +0.000 HD
ATOM     15  H   UNL     1      41.844   3.797  11.554  0.00  0.00    +0.000 HD
ENDBRANCH   7  11
ENDBRANCH   1  10
BRANCH   1  16
ATOM     16  C   UNL     1      48.740   7.840  14.659  0.00  0.00    +0.000 A 
ATOM     17  C   UNL     1      48.269   9.033  15.239  0.00  0.00    +0.000 A 
ATOM     18  C   UNL     1      48.328   9.237  16.617  0.00  0.00    +0.000 A 
ATOM     19  C   UNL     1      48.861   8.248  17.436  0.00  0.00    +0.000 A 
ATOM     20  C   UNL     1      49.543   7.178  16.857  0.00  0.00    +0.000 A 
ATOM     21  C   UNL     1      49.496   6.983  15.474  0.00  0.00    +0.000 A 
BRANCH  19  22
ATOM     22  O   UNL     1      48.782   8.264  18.795  0.00  0.00    +0.000 OA
BRANCH  22  23
ATOM     23  C   UNL     1      47.531   7.887  19.375  0.00  0.00    +0.000 C 
ATOM     24  F   UNL     1      46.925   6.834  18.784  0.00  0.00    +0.000 F 
ATOM     25  F   UNL     1      47.720   7.573  20.679  0.00  0.00    +0.000 F 
ATOM     26  F   UNL     1      46.688   8.945  19.318  0.00  0.00    +0.000 F 
ENDBRANCH  22  23
ENDBRANCH  19  22
ENDBRANCH   1  16
TORSDOF 5
ENDMDL
