MODEL 1
REMARK VINA RESULT:    -8.062      0.000      0.000
REMARK INTER + INTRA:         -12.353
REMARK INTER:                 -11.361
REMARK INTRA:                  -0.992
REMARK UNBOUND:                -0.992
REMARK  Name = 
REMARK  8 active torsions:
REMARK  status: ('A' for Active; 'I' for Inactive)
REMARK    1  A    between atoms: C_1  and  O_2
REMARK    2  A    between atoms: O_2  and  C_3
REMARK    3  A    between atoms: C_5  and  C_6
REMARK    4  A    between atoms: C_6  and  N_7
REMARK    5  A    between atoms: C_8  and  C_10
REMARK    6  A    between atoms: C_22  and  C_23
REMARK    7  A    between atoms: C_23  and  N_24
REMARK    8  A    between atoms: C_25  and  C_27
REMARK                            x       y       z     vdW  Elec       q    Type
REMARK                         _______ _______ _______ _____ _____    ______ ____
ROOT
ATOM      1  C   UNL     1      44.257   5.966  12.035  0.00  0.00    +0.000 A 
ATOM      2  C   UNL     1      44.987   6.834  12.855  0.00  0.00    +0.000 A 
ATOM      3  C   UNL     1      46.258   7.292  12.474  0.00  0.00    +0.000 A 
ATOM      4  C   UNL     1      46.797   6.871  11.254  0.00  0.00    +0.000 A 
ATOM      5  C   UNL     1      46.073   6.013  10.429  0.00  0.00    +0.000 A 
ATOM      6  C   UNL     1      44.792   5.570  10.796  0.00  0.00    +0.000 A 
ENDROOT
BRANCH   1   8
ATOM      7  C   UNL     1      43.053   4.355  13.311  0.00  0.00    +0.000 C 
ATOM      8  O   UNL     1      43.040   5.429  12.374  0.00  0.00    +0.000 OA
ENDBRANCH   1   8
BRANCH   3   9
ATOM      9  C   UNL     1      47.016   8.240  13.365  0.00  0.00    +0.000 C 
BRANCH   9  10
ATOM     10  N   UNL     1      47.466   7.590  14.571  0.00  0.00    +0.000 N 
ATOM     11  C   UNL     1      48.628   6.856  14.634  0.00  0.00    +0.000 C 
ATOM     12  O   UNL     1      49.322   6.702  13.628  0.00  0.00    +0.000 OA
ATOM     13  H   UNL     1      46.797   7.525  15.331  0.00  0.00    +0.000 HD
BRANCH  11  14
ATOM     14  C   UNL     1      49.000   6.338  15.953  0.00  0.00    +0.000 A 
ATOM     15  S   UNL     1      50.181   7.260  16.831  0.00  0.00    +0.000 S 
ATOM     16  C   UNL     1      50.113   6.226  18.185  0.00  0.00    +0.000 A 
ATOM     17  C   UNL     1      49.250   5.190  17.961  0.00  0.00    +0.000 A 
ATOM     18  N   UNL     1      49.032   4.170  18.899  0.00  0.00    +0.000 NA
ATOM     19  C   UNL     1      48.209   3.256  18.507  0.00  0.00    +0.000 A 
ATOM     20  N   UNL     1      47.549   3.216  17.307  0.00  0.00    +0.000 N 
ATOM     21  C   UNL     1      47.644   4.205  16.359  0.00  0.00    +0.000 A 
ATOM     22  O   UNL     1      46.947   4.195  15.353  0.00  0.00    +0.000 OA
ATOM     23  C   UNL     1      48.592   5.240  16.701  0.00  0.00    +0.000 A 
ATOM     24  H   UNL     1      46.897   2.472  17.105  0.00  0.00    +0.000 HD
ENDBRANCH  11  14
ENDBRANCH   9  10
ENDBRANCH   3   9
BRANCH   6  25
ATOM     25  C   UNL     1      44.024   4.700   9.835  0.00  0.00    +0.000 C 
BRANCH  25  26
ATOM     26  N   UNL     1      44.852   4.226   8.757  0.00  0.00    +0.000 N 
ATOM     27  C   UNL     1      45.388   2.958   8.700  0.00  0.00    +0.000 C 
ATOM     28  O   UNL     1      45.188   2.129   9.589  0.00  0.00    +0.000 OA
ATOM     29  H   UNL     1      44.956   4.825   7.948  0.00  0.00    +0.000 HD
BRANCH  27  30
ATOM     30  C   UNL     1      46.205   2.683   7.526  0.00  0.00    +0.000 A 
ATOM     31  C   UNL     1      46.371   3.489   6.415  0.00  0.00    +0.000 A 
ATOM     32  C   UNL     1      47.224   2.904   5.432  0.00  0.00    +0.000 A 
ATOM     33  C   UNL     1      47.681   1.666   5.820  0.00  0.00    +0.000 A 
ATOM     34  S   UNL     1      47.092   1.221   7.360  0.00  0.00    +0.000 S 
ENDBRANCH  27  30
ENDBRANCH  25  26
ENDBRANCH   6  25
TORSDOF 7
ENDMDL
MODEL 2
REMARK VINA RESULT:    -7.735      1.980      2.487
REMARK INTER + INTRA:         -11.893
REMARK INTER:                 -10.534
REMARK INTRA:                  -1.360
REMARK UNBOUND:                -0.992
REMARK  Name = 
REMARK  8 active torsions:
REMARK  status: ('A' for Active; 'I' for Inactive)
REMARK    1  A    between atoms: C_1  and  O_2
REMARK    2  A    between atoms: O_2  and  C_3
REMARK    3  A    between atoms: C_5  and  C_6
REMARK    4  A    between atoms: C_6  and  N_7
REMARK    5  A    between atoms: C_8  and  C_10
REMARK    6  A    between atoms: C_22  and  C_23
REMARK    7  A    between atoms: C_23  and  N_24
REMARK    8  A    between atoms: C_25  and  C_27
REMARK                            x       y       z     vdW  Elec       q    Type
REMARK                         _______ _______ _______ _____ _____    ______ ____
ROOT
ATOM      1  C   UNL     1      45.673   5.045  12.767  0.00  0.00    +0.000 A 
ATOM      2  C   UNL     1      46.256   6.217  13.262  0.00  0.00    +0.000 A 
ATOM      3  C   UNL     1      45.948   7.469  12.707  0.00  0.00    +0.000 A 
ATOM      4  C   UNL     1      45.042   7.539  11.644  0.00  0.00    +0.000 A 
ATOM      5  C   UNL     1      44.452   6.378  11.150  0.00  0.00    +0.000 A 
ATOM      6  C   UNL     1      44.741   5.126  11.717  0.00  0.00    +0.000 A 
ENDROOT
BRANCH   1   8
ATOM      7  C   UNL     1      47.141   3.659  14.030  0.00  0.00    +0.000 C 
ATOM      8  O   UNL     1      45.978   3.785  13.217  0.00  0.00    +0.000 OA
ENDBRANCH   1   8
BRANCH   3   9
ATOM      9  C   UNL     1      46.573   8.717  13.270  0.00  0.00    +0.000 C 
BRANCH   9  10
ATOM     10  N   UNL     1      47.132   8.487  14.580  0.00  0.00    +0.000 N 
ATOM     11  C   UNL     1      48.213   9.186  15.063  0.00  0.00    +0.000 C 
ATOM     12  O   UNL     1      48.772  10.032  14.363  0.00  0.00    +0.000 OA
ATOM     13  H   UNL     1      46.824   7.651  15.066  0.00  0.00    +0.000 HD
BRANCH  11  14
ATOM     14  C   UNL     1      48.604   8.906  16.447  0.00  0.00    +0.000 A 
ATOM     15  S   UNL     1      48.473  10.231  17.562  0.00  0.00    +0.000 S 
ATOM     16  C   UNL     1      48.979   9.285  18.886  0.00  0.00    +0.000 A 
ATOM     17  C   UNL     1      49.277   8.011  18.487  0.00  0.00    +0.000 A 
ATOM     18  N   UNL     1      49.754   7.033  19.371  0.00  0.00    +0.000 NA
ATOM     19  C   UNL     1      50.013   5.896  18.815  0.00  0.00    +0.000 A 
ATOM     20  N   UNL     1      49.849   5.582  17.492  0.00  0.00    +0.000 N 
ATOM     21  C   UNL     1      49.322   6.451  16.569  0.00  0.00    +0.000 A 
ATOM     22  O   UNL     1      49.077   6.096  15.423  0.00  0.00    +0.000 OA
ATOM     23  C   UNL     1      49.056   7.767  17.103  0.00  0.00    +0.000 A 
ATOM     24  H   UNL     1      50.050   4.651  17.157  0.00  0.00    +0.000 HD
ENDBRANCH  11  14
ENDBRANCH   9  10
ENDBRANCH   3   9
BRANCH   6  25
ATOM     25  C   UNL     1      44.023   3.910  11.190  0.00  0.00    +0.000 C 
BRANCH  25  26
ATOM     26  N   UNL     1      44.841   3.152  10.279  0.00  0.00    +0.000 N 
ATOM     27  C   UNL     1      44.927   3.409   8.929  0.00  0.00    +0.000 C 
ATOM     28  O   UNL     1      44.294   4.325   8.401  0.00  0.00    +0.000 OA
ATOM     29  H   UNL     1      45.467   2.462  10.675  0.00  0.00    +0.000 HD
BRANCH  27  30
ATOM     30  C   UNL     1      45.807   2.519   8.184  0.00  0.00    +0.000 A 
ATOM     31  C   UNL     1      45.984   1.161   8.378  0.00  0.00    +0.000 A 
ATOM     32  C   UNL     1      46.944   0.598   7.486  0.00  0.00    +0.000 A 
ATOM     33  C   UNL     1      47.474   1.542   6.638  0.00  0.00    +0.000 A 
ATOM     34  S   UNL     1      46.812   3.092   6.912  0.00  0.00    +0.000 S 
ENDBRANCH  27  30
ENDBRANCH  25  26
ENDBRANCH   6  25
TORSDOF 7
ENDMDL
MODEL 3
REMARK VINA RESULT:    -7.685      1.515      1.733
REMARK INTER + INTRA:         -11.823
REMARK INTER:                 -10.871
REMARK INTRA:                  -0.951
REMARK UNBOUND:                -0.992
REMARK  Name = 
REMARK  8 active torsions:
REMARK  status: ('A' for Active; 'I' for Inactive)
REMARK    1  A    between atoms: C_1  and  O_2
REMARK    2  A    between atoms: O_2  and  C_3
REMARK    3  A    between atoms: C_5  and  C_6
REMARK    4  A    between atoms: C_6  and  N_7
REMARK    5  A    between atoms: C_8  and  C_10
REMARK    6  A    between atoms: C_22  and  C_23
REMARK    7  A    between atoms: C_23  and  N_24
REMARK    8  A    between atoms: C_25  and  C_27
REMARK                            x       y       z     vdW  Elec       q    Type
REMARK                         _______ _______ _______ _____ _____    ______ ____
ROOT
ATOM      1  C   UNL     1      44.733   5.762  11.857  0.00  0.00    +0.000 A 
ATOM      2  C   UNL     1      45.489   6.788  12.436  0.00  0.00    +0.000 A 
ATOM      3  C   UNL     1      46.598   6.501  13.248  0.00  0.00    +0.000 A 
ATOM      4  C   UNL     1      46.948   5.167  13.477  0.00  0.00    +0.000 A 
ATOM      5  C   UNL     1      46.205   4.139  12.899  0.00  0.00    +0.000 A 
ATOM      6  C   UNL     1      45.108   4.423  12.068  0.00  0.00    +0.000 A 
ENDROOT
BRANCH   1   8
ATOM      7  C   UNL     1      42.357   5.912  11.801  0.00  0.00    +0.000 C 
ATOM      8  O   UNL     1      43.601   5.969  11.109  0.00  0.00    +0.000 OA
ENDBRANCH   1   8
BRANCH   3   9
ATOM      9  C   UNL     1      47.406   7.622  13.844  0.00  0.00    +0.000 C 
BRANCH   9  10
ATOM     10  N   UNL     1      47.903   7.281  15.154  0.00  0.00    +0.000 N 
ATOM     11  C   UNL     1      49.225   6.993  15.399  0.00  0.00    +0.000 C 
ATOM     12  O   UNL     1      50.042   6.987  14.477  0.00  0.00    +0.000 OA
ATOM     13  H   UNL     1      47.209   7.066  15.863  0.00  0.00    +0.000 HD
BRANCH  11  14
ATOM     14  C   UNL     1      49.593   6.759  16.798  0.00  0.00    +0.000 A 
ATOM     15  S   UNL     1      50.840   7.781  17.442  0.00  0.00    +0.000 S 
ATOM     16  C   UNL     1      50.739   7.080  18.992  0.00  0.00    +0.000 A 
ATOM     17  C   UNL     1      49.815   6.072  19.010  0.00  0.00    +0.000 A 
ATOM     18  N   UNL     1      49.558   5.301  20.153  0.00  0.00    +0.000 NA
ATOM     19  C   UNL     1      48.676   4.373  19.979  0.00  0.00    +0.000 A 
ATOM     20  N   UNL     1      47.992   4.107  18.822  0.00  0.00    +0.000 N 
ATOM     21  C   UNL     1      48.126   4.854  17.677  0.00  0.00    +0.000 A 
ATOM     22  O   UNL     1      47.410   4.662  16.702  0.00  0.00    +0.000 OA
ATOM     23  C   UNL     1      49.137   5.881  17.775  0.00  0.00    +0.000 A 
ATOM     24  H   UNL     1      47.296   3.377  18.795  0.00  0.00    +0.000 HD
ENDBRANCH  11  14
ENDBRANCH   9  10
ENDBRANCH   3   9
BRANCH   6  25
ATOM     25  C   UNL     1      44.382   3.277  11.412  0.00  0.00    +0.000 C 
BRANCH  25  26
ATOM     26  N   UNL     1      45.145   2.701  10.335  0.00  0.00    +0.000 N 
ATOM     27  C   UNL     1      45.051   3.110   9.023  0.00  0.00    +0.000 C 
ATOM     28  O   UNL     1      44.291   4.017   8.678  0.00  0.00    +0.000 OA
ATOM     29  H   UNL     1      45.865   2.032  10.577  0.00  0.00    +0.000 HD
BRANCH  27  30
ATOM     30  C   UNL     1      45.905   2.391   8.088  0.00  0.00    +0.000 A 
ATOM     31  C   UNL     1      46.205   1.041   8.096  0.00  0.00    +0.000 A 
ATOM     32  C   UNL     1      47.096   0.668   7.047  0.00  0.00    +0.000 A 
ATOM     33  C   UNL     1      47.454   1.745   6.270  0.00  0.00    +0.000 A 
ATOM     34  S   UNL     1      46.713   3.189   6.798  0.00  0.00    +0.000 S 
ENDBRANCH  27  30
ENDBRANCH  25  26
ENDBRANCH   6  25
TORSDOF 7
ENDMDL
MODEL 4
REMARK VINA RESULT:    -7.556      1.856      2.165
REMARK INTER + INTRA:         -11.640
REMARK INTER:                 -10.234
REMARK INTRA:                  -1.406
REMARK UNBOUND:                -0.992
REMARK  Name = 
REMARK  8 active torsions:
REMARK  status: ('A' for Active; 'I' for Inactive)
REMARK    1  A    between atoms: C_1  and  O_2
REMARK    2  A    between atoms: O_2  and  C_3
REMARK    3  A    between atoms: C_5  and  C_6
REMARK    4  A    between atoms: C_6  and  N_7
REMARK    5  A    between atoms: C_8  and  C_10
REMARK    6  A    between atoms: C_22  and  C_23
REMARK    7  A    between atoms: C_23  and  N_24
REMARK    8  A    between atoms: C_25  and  C_27
REMARK                            x       y       z     vdW  Elec       q    Type
REMARK                         _______ _______ _______ _____ _____    ______ ____
ROOT
ATOM      1  C   UNL     1      46.018   5.727  12.460  0.00  0.00    +0.000 A 
ATOM      2  C   UNL     1      46.776   6.591  13.259  0.00  0.00    +0.000 A 
ATOM      3  C   UNL     1      46.675   7.984  13.117  0.00  0.00    +0.000 A 
ATOM      4  C   UNL     1      45.801   8.511  12.162  0.00  0.00    +0.000 A 
ATOM      5  C   UNL     1      45.038   7.658  11.367  0.00  0.00    +0.000 A 
ATOM      6  C   UNL     1      45.119   6.264  11.521  0.00  0.00    +0.000 A 
ENDROOT
BRANCH   1   8
ATOM      7  C   UNL     1      46.788   3.797  13.622  0.00  0.00    +0.000 C 
ATOM      8  O   UNL     1      46.115   4.359  12.500  0.00  0.00    +0.000 OA
ENDBRANCH   1   8
BRANCH   3   9
ATOM      9  C   UNL     1      47.487   8.892  14.002  0.00  0.00    +0.000 C 
BRANCH   9  10
ATOM     10  N   UNL     1      47.734   8.295  15.292  0.00  0.00    +0.000 N 
ATOM     11  C   UNL     1      48.716   8.742  16.145  0.00  0.00    +0.000 C 
ATOM     12  O   UNL     1      49.455   9.670  15.812  0.00  0.00    +0.000 OA
ATOM     13  H   UNL     1      47.287   7.403  15.474  0.00  0.00    +0.000 HD
BRANCH  11  14
ATOM     14  C   UNL     1      48.781   8.096  17.458  0.00  0.00    +0.000 A 
ATOM     15  S   UNL     1      48.671   9.148  18.835  0.00  0.00    +0.000 S 
ATOM     16  C   UNL     1      48.743   7.855  19.943  0.00  0.00    +0.000 A 
ATOM     17  C   UNL     1      48.887   6.663  19.289  0.00  0.00    +0.000 A 
ATOM     18  N   UNL     1      49.010   5.440  19.963  0.00  0.00    +0.000 NA
ATOM     19  C   UNL     1      49.169   4.420  19.188  0.00  0.00    +0.000 A 
ATOM     20  N   UNL     1      49.210   4.438  17.818  0.00  0.00    +0.000 N 
ATOM     21  C   UNL     1      49.027   5.577  17.072  0.00  0.00    +0.000 A 
ATOM     22  O   UNL     1      48.948   5.535  15.851  0.00  0.00    +0.000 OA
ATOM     23  C   UNL     1      48.896   6.773  17.871  0.00  0.00    +0.000 A 
ATOM     24  H   UNL     1      49.307   3.579  17.297  0.00  0.00    +0.000 HD
ENDBRANCH  11  14
ENDBRANCH   9  10
ENDBRANCH   3   9
BRANCH   6  25
ATOM     25  C   UNL     1      44.221   5.390  10.684  0.00  0.00    +0.000 C 
BRANCH  25  26
ATOM     26  N   UNL     1      44.963   4.621   9.719  0.00  0.00    +0.000 N 
ATOM     27  C   UNL     1      44.766   3.277   9.493  0.00  0.00    +0.000 C 
ATOM     28  O   UNL     1      43.922   2.631  10.116  0.00  0.00    +0.000 OA
ATOM     29  H   UNL     1      45.589   5.123   9.102  0.00  0.00    +0.000 HD
BRANCH  27  30
ATOM     30  C   UNL     1      45.628   2.686   8.479  0.00  0.00    +0.000 A 
ATOM     31  C   UNL     1      45.970   1.353   8.343  0.00  0.00    +0.000 A 
ATOM     32  C   UNL     1      46.858   1.120   7.251  0.00  0.00    +0.000 A 
ATOM     33  C   UNL     1      47.171   2.283   6.586  0.00  0.00    +0.000 A 
ATOM     34  S   UNL     1      46.393   3.640   7.270  0.00  0.00    +0.000 S 
ENDBRANCH  27  30
ENDBRANCH  25  26
ENDBRANCH   6  25
TORSDOF 7
ENDMDL
MODEL 5
REMARK VINA RESULT:    -7.262      3.116      4.326
REMARK INTER + INTRA:         -11.226
REMARK INTER:                  -9.812
REMARK INTRA:                  -1.413
REMARK UNBOUND:                -0.992
REMARK  Name = 
REMARK  8 active torsions:
REMARK  status: ('A' for Active; 'I' for Inactive)
REMARK    1  A    between atoms: C_1  and  O_2
REMARK    2  A    between atoms: O_2  and  C_3
REMARK    3  A    between atoms: C_5  and  C_6
REMARK    4  A    between atoms: C_6  and  N_7
REMARK    5  A    between atoms: C_8  and  C_10
REMARK    6  A    between atoms: C_22  and  C_23
REMARK    7  A    between atoms: C_23  and  N_24
REMARK    8  A    between atoms: C_25  and  C_27
REMARK                            x       y       z     vdW  Elec       q    Type
REMARK                         _______ _______ _______ _____ _____    ______ ____
ROOT
ATOM      1  C   UNL     1      45.636   5.022  12.831  0.00  0.00    +0.000 A 
ATOM      2  C   UNL     1      46.029   6.279  13.303  0.00  0.00    +0.000 A 
ATOM      3  C   UNL     1      45.534   7.458  12.724  0.00  0.00    +0.000 A 
ATOM      4  C   UNL     1      44.632   7.368  11.660  0.00  0.00    +0.000 A 
ATOM      5  C   UNL     1      44.230   6.120  11.188  0.00  0.00    +0.000 A 
ATOM      6  C   UNL     1      44.706   4.939  11.779  0.00  0.00    +0.000 A 
ENDROOT
BRANCH   1   8
ATOM      7  C   UNL     1      47.089   3.911  14.355  0.00  0.00    +0.000 C 
ATOM      8  O   UNL     1      46.129   3.833  13.305  0.00  0.00    +0.000 OA
ENDBRANCH   1   8
BRANCH   3   9
ATOM      9  C   UNL     1      45.958   8.799  13.263  0.00  0.00    +0.000 C 
BRANCH   9  10
ATOM     10  N   UNL     1      47.351   9.062  12.995  0.00  0.00    +0.000 N 
ATOM     11  C   UNL     1      48.299   9.142  13.988  0.00  0.00    +0.000 C 
ATOM     12  O   UNL     1      47.976   9.017  15.170  0.00  0.00    +0.000 OA
ATOM     13  H   UNL     1      47.581   9.385  12.061  0.00  0.00    +0.000 HD
BRANCH  11  14
ATOM     14  C   UNL     1      49.686   9.320  13.550  0.00  0.00    +0.000 A 
ATOM     15  S   UNL     1      50.588  10.567  14.354  0.00  0.00    +0.000 S 
ATOM     16  C   UNL     1      52.012  10.224  13.483  0.00  0.00    +0.000 A 
ATOM     17  C   UNL     1      51.799   9.219  12.580  0.00  0.00    +0.000 A 
ATOM     18  N   UNL     1      52.796   8.762  11.706  0.00  0.00    +0.000 NA
ATOM     19  C   UNL     1      52.409   7.829  10.901  0.00  0.00    +0.000 A 
ATOM     20  N   UNL     1      51.162   7.266  10.849  0.00  0.00    +0.000 N 
ATOM     21  C   UNL     1      50.146   7.598  11.712  0.00  0.00    +0.000 A 
ATOM     22  O   UNL     1      49.084   6.988  11.714  0.00  0.00    +0.000 OA
ATOM     23  C   UNL     1      50.484   8.677  12.611  0.00  0.00    +0.000 A 
ATOM     24  H   UNL     1      50.965   6.516  10.203  0.00  0.00    +0.000 HD
ENDBRANCH  11  14
ENDBRANCH   9  10
ENDBRANCH   3   9
BRANCH   6  25
ATOM     25  C   UNL     1      44.185   3.617  11.275  0.00  0.00    +0.000 C 
BRANCH  25  26
ATOM     26  N   UNL     1      45.061   3.031  10.294  0.00  0.00    +0.000 N 
ATOM     27  C   UNL     1      44.998   3.307   8.946  0.00  0.00    +0.000 C 
ATOM     28  O   UNL     1      44.170   4.092   8.482  0.00  0.00    +0.000 OA
ATOM     29  H   UNL     1      45.831   2.467  10.631  0.00  0.00    +0.000 HD
BRANCH  27  30
ATOM     30  C   UNL     1      45.971   2.601   8.124  0.00  0.00    +0.000 A 
ATOM     31  C   UNL     1      46.224   1.241   8.108  0.00  0.00    +0.000 A 
ATOM     32  C   UNL     1      47.263   0.885   7.198  0.00  0.00    +0.000 A 
ATOM     33  C   UNL     1      47.775   1.983   6.547  0.00  0.00    +0.000 A 
ATOM     34  S   UNL     1      47.002   3.428   7.026  0.00  0.00    +0.000 S 
ENDBRANCH  27  30
ENDBRANCH  25  26
ENDBRANCH   6  25
TORSDOF 7
ENDMDL
MODEL 6
REMARK VINA RESULT:    -7.115      2.957      8.719
REMARK INTER + INTRA:         -11.019
REMARK INTER:                  -9.710
REMARK INTRA:                  -1.309
REMARK UNBOUND:                -0.992
REMARK  Name = 
REMARK  8 active torsions:
REMARK  status: ('A' for Active; 'I' for Inactive)
REMARK    1  A    between atoms: C_1  and  O_2
REMARK    2  A    between atoms: O_2  and  C_3
REMARK    3  A    between atoms: C_5  and  C_6
REMARK    4  A    between atoms: C_6  and  N_7
REMARK    5  A    between atoms: C_8  and  C_10
REMARK    6  A    between atoms: C_22  and  C_23
REMARK    7  A    between atoms: C_23  and  N_24
REMARK    8  A    between atoms: C_25  and  C_27
REMARK                            x       y       z     vdW  Elec       q    Type
REMARK                         _______ _______ _______ _____ _____    ______ ____
ROOT
ATOM      1  C   UNL     1      48.787   6.281  15.672  0.00  0.00    +0.000 A 
ATOM      2  C   UNL     1      48.012   6.456  14.519  0.00  0.00    +0.000 A 
ATOM      3  C   UNL     1      48.438   7.302  13.483  0.00  0.00    +0.000 A 
ATOM      4  C   UNL     1      49.657   7.975  13.609  0.00  0.00    +0.000 A 
ATOM      5  C   UNL     1      50.437   7.800  14.751  0.00  0.00    +0.000 A 
ATOM      6  C   UNL     1      50.025   6.938  15.780  0.00  0.00    +0.000 A 
ENDROOT
BRANCH   1   8
ATOM      7  C   UNL     1      47.575   4.396  16.477  0.00  0.00    +0.000 C 
ATOM      8  O   UNL     1      48.402   5.523  16.750  0.00  0.00    +0.000 OA
ENDBRANCH   1   8
BRANCH   3   9
ATOM      9  C   UNL     1      47.596   7.459  12.245  0.00  0.00    +0.000 C 
BRANCH   9  10
ATOM     10  N   UNL     1      46.850   6.259  11.954  0.00  0.00    +0.000 N 
ATOM     11  C   UNL     1      45.478   6.237  11.859  0.00  0.00    +0.000 C 
ATOM     12  O   UNL     1      44.824   7.263  12.055  0.00  0.00    +0.000 OA
ATOM     13  H   UNL     1      47.357   5.382  12.014  0.00  0.00    +0.000 HD
BRANCH  11  14
ATOM     14  C   UNL     1      44.873   4.964  11.463  0.00  0.00    +0.000 A 
ATOM     15  S   UNL     1      43.888   4.179  12.659  0.00  0.00    +0.000 S 
ATOM     16  C   UNL     1      43.481   2.897  11.614  0.00  0.00    +0.000 A 
ATOM     17  C   UNL     1      44.106   3.038  10.406  0.00  0.00    +0.000 A 
ATOM     18  N   UNL     1      43.974   2.101   9.371  0.00  0.00    +0.000 NA
ATOM     19  C   UNL     1      44.659   2.379   8.312  0.00  0.00    +0.000 A 
ATOM     20  N   UNL     1      45.456   3.478   8.125  0.00  0.00    +0.000 N 
ATOM     21  C   UNL     1      45.589   4.482   9.052  0.00  0.00    +0.000 A 
ATOM     22  O   UNL     1      46.212   5.505   8.801  0.00  0.00    +0.000 OA
ATOM     23  C   UNL     1      44.893   4.217  10.290  0.00  0.00    +0.000 A 
ATOM     24  H   UNL     1      45.929   3.624   7.245  0.00  0.00    +0.000 HD
ENDBRANCH  11  14
ENDBRANCH   9  10
ENDBRANCH   3   9
BRANCH   6  25
ATOM     25  C   UNL     1      50.940   6.732  16.960  0.00  0.00    +0.000 C 
BRANCH  25  26
ATOM     26  N   UNL     1      51.430   5.380  17.032  0.00  0.00    +0.000 N 
ATOM     27  C   UNL     1      51.288   4.569  18.136  0.00  0.00    +0.000 C 
ATOM     28  O   UNL     1      50.719   4.957  19.157  0.00  0.00    +0.000 OA
ATOM     29  H   UNL     1      51.805   4.973  16.185  0.00  0.00    +0.000 HD
BRANCH  27  30
ATOM     30  C   UNL     1      51.864   3.238  18.004  0.00  0.00    +0.000 A 
ATOM     31  C   UNL     1      51.282   2.128  17.418  0.00  0.00    +0.000 A 
ATOM     32  C   UNL     1      52.113   0.971  17.482  0.00  0.00    +0.000 A 
ATOM     33  C   UNL     1      53.305   1.229  18.119  0.00  0.00    +0.000 A 
ATOM     34  S   UNL     1      53.420   2.856  18.625  0.00  0.00    +0.000 S 
ENDBRANCH  27  30
ENDBRANCH  25  26
ENDBRANCH   6  25
TORSDOF 7
ENDMDL
MODEL 7
REMARK VINA RESULT:    -6.768      2.270      3.070
REMARK INTER + INTRA:         -10.530
REMARK INTER:                  -9.500
REMARK INTRA:                  -1.030
REMARK UNBOUND:                -0.992
REMARK  Name = 
REMARK  8 active torsions:
REMARK  status: ('A' for Active; 'I' for Inactive)
REMARK    1  A    between atoms: C_1  and  O_2
REMARK    2  A    between atoms: O_2  and  C_3
REMARK    3  A    between atoms: C_5  and  C_6
REMARK    4  A    between atoms: C_6  and  N_7
REMARK    5  A    between atoms: C_8  and  C_10
REMARK    6  A    between atoms: C_22  and  C_23
REMARK    7  A    between atoms: C_23  and  N_24
REMARK    8  A    between atoms: C_25  and  C_27
REMARK                            x       y       z     vdW  Elec       q    Type
REMARK                         _______ _______ _______ _____ _____    ______ ____
ROOT
ATOM      1  C   UNL     1      45.487   7.946  11.992  0.00  0.00    +0.000 A 
ATOM      2  C   UNL     1      46.440   8.453  12.883  0.00  0.00    +0.000 A 
ATOM      3  C   UNL     1      47.422   7.622  13.444  0.00  0.00    +0.000 A 
ATOM      4  C   UNL     1      47.445   6.267  13.101  0.00  0.00    +0.000 A 
ATOM      5  C   UNL     1      46.505   5.755  12.209  0.00  0.00    +0.000 A 
ATOM      6  C   UNL     1      45.534   6.588  11.629  0.00  0.00    +0.000 A 
ENDROOT
BRANCH   1   8
ATOM      7  C   UNL     1      44.588  10.102  11.533  0.00  0.00    +0.000 C 
ATOM      8  O   UNL     1      44.462   8.685  11.459  0.00  0.00    +0.000 OA
ENDBRANCH   1   8
BRANCH   3   9
ATOM      9  C   UNL     1      48.447   8.196  14.385  0.00  0.00    +0.000 C 
BRANCH   9  10
ATOM     10  N   UNL     1      49.063   7.169  15.190  0.00  0.00    +0.000 N 
ATOM     11  C   UNL     1      48.969   7.139  16.562  0.00  0.00    +0.000 C 
ATOM     12  O   UNL     1      48.365   8.028  17.164  0.00  0.00    +0.000 OA
ATOM     13  H   UNL     1      49.739   6.571  14.726  0.00  0.00    +0.000 HD
BRANCH  11  14
ATOM     14  C   UNL     1      49.566   5.980  17.230  0.00  0.00    +0.000 A 
ATOM     15  S   UNL     1      48.477   4.969  18.128  0.00  0.00    +0.000 S 
ATOM     16  C   UNL     1      49.708   3.872  18.559  0.00  0.00    +0.000 A 
ATOM     17  C   UNL     1      50.917   4.282  18.070  0.00  0.00    +0.000 A 
ATOM     18  N   UNL     1      52.107   3.580  18.309  0.00  0.00    +0.000 NA
ATOM     19  C   UNL     1      53.158   4.128  17.797  0.00  0.00    +0.000 A 
ATOM     20  N   UNL     1      53.196   5.281  17.057  0.00  0.00    +0.000 N 
ATOM     21  C   UNL     1      52.074   5.994  16.712  0.00  0.00    +0.000 A 
ATOM     22  O   UNL     1      52.134   6.950  15.949  0.00  0.00    +0.000 OA
ATOM     23  C   UNL     1      50.859   5.473  17.295  0.00  0.00    +0.000 A 
ATOM     24  H   UNL     1      54.067   5.614  16.671  0.00  0.00    +0.000 HD
ENDBRANCH  11  14
ENDBRANCH   9  10
ENDBRANCH   3   9
BRANCH   6  25
ATOM     25  C   UNL     1      44.585   5.998  10.617  0.00  0.00    +0.000 C 
BRANCH  25  26
ATOM     26  N   UNL     1      45.246   5.071   9.734  0.00  0.00    +0.000 N 
ATOM     27  C   UNL     1      44.805   3.789   9.498  0.00  0.00    +0.000 C 
ATOM     28  O   UNL     1      43.793   3.340  10.038  0.00  0.00    +0.000 OA
ATOM     29  H   UNL     1      46.016   5.423   9.179  0.00  0.00    +0.000 HD
BRANCH  27  30
ATOM     30  C   UNL     1      45.624   3.013   8.576  0.00  0.00    +0.000 A 
ATOM     31  C   UNL     1      45.789   1.639   8.556  0.00  0.00    +0.000 A 
ATOM     32  C   UNL     1      46.684   1.207   7.533  0.00  0.00    +0.000 A 
ATOM     33  C   UNL     1      47.179   2.263   6.804  0.00  0.00    +0.000 A 
ATOM     34  S   UNL     1      46.561   3.759   7.345  0.00  0.00    +0.000 S 
ENDBRANCH  27  30
ENDBRANCH  25  26
ENDBRANCH   6  25
TORSDOF 7
ENDMDL
MODEL 8
REMARK VINA RESULT:    -6.742      3.609      8.533
REMARK INTER + INTRA:         -10.494
REMARK INTER:                  -9.180
REMARK INTRA:                  -1.314
REMARK UNBOUND:                -0.992
REMARK  Name = 
REMARK  8 active torsions:
REMARK  status: ('A' for Active; 'I' for Inactive)
REMARK    1  A    between atoms: C_1  and  O_2
REMARK    2  A    between atoms: O_2  and  C_3
REMARK    3  A    between atoms: C_5  and  C_6
REMARK    4  A    between atoms: C_6  and  N_7
REMARK    5  A    between atoms: C_8  and  C_10
REMARK    6  A    between atoms: C_22  and  C_23
REMARK    7  A    between atoms: C_23  and  N_24
REMARK    8  A    between atoms: C_25  and  C_27
REMARK                            x       y       z     vdW  Elec       q    Type
REMARK                         _______ _______ _______ _____ _____    ______ ____
ROOT
ATOM      1  C   UNL     1      49.066   5.075  17.152  0.00  0.00    +0.000 A 
ATOM      2  C   UNL     1      48.676   5.940  16.124  0.00  0.00    +0.000 A 
ATOM      3  C   UNL     1      48.988   7.308  16.170  0.00  0.00    +0.000 A 
ATOM      4  C   UNL     1      49.703   7.807  17.263  0.00  0.00    +0.000 A 
ATOM      5  C   UNL     1      50.102   6.951  18.288  0.00  0.00    +0.000 A 
ATOM      6  C   UNL     1      49.810   5.578  18.234  0.00  0.00    +0.000 A 
ENDROOT
BRANCH   1   8
ATOM      7  C   UNL     1      47.361   3.430  17.389  0.00  0.00    +0.000 C 
ATOM      8  O   UNL     1      48.738   3.743  17.204  0.00  0.00    +0.000 OA
ENDBRANCH   1   8
BRANCH   3   9
ATOM      9  C   UNL     1      48.573   8.214  15.042  0.00  0.00    +0.000 C 
BRANCH   9  10
ATOM     10  N   UNL     1      47.422   7.698  14.342  0.00  0.00    +0.000 N 
ATOM     11  C   UNL     1      47.518   6.991  13.166  0.00  0.00    +0.000 C 
ATOM     12  O   UNL     1      48.618   6.797  12.644  0.00  0.00    +0.000 OA
ATOM     13  H   UNL     1      46.515   8.042  14.642  0.00  0.00    +0.000 HD
BRANCH  11  14
ATOM     14  C   UNL     1      46.268   6.451  12.627  0.00  0.00    +0.000 A 
ATOM     15  S   UNL     1      45.188   7.601  11.901  0.00  0.00    +0.000 S 
ATOM     16  C   UNL     1      44.060   6.400  11.464  0.00  0.00    +0.000 A 
ATOM     17  C   UNL     1      44.471   5.169  11.892  0.00  0.00    +0.000 A 
ATOM     18  N   UNL     1      43.711   4.007  11.696  0.00  0.00    +0.000 NA
ATOM     19  C   UNL     1      44.238   2.938  12.193  0.00  0.00    +0.000 A 
ATOM     20  N   UNL     1      45.436   2.852  12.852  0.00  0.00    +0.000 N 
ATOM     21  C   UNL     1      46.280   3.922  13.027  0.00  0.00    +0.000 A 
ATOM     22  O   UNL     1      47.396   3.783  13.512  0.00  0.00    +0.000 OA
ATOM     23  C   UNL     1      45.735   5.169  12.544  0.00  0.00    +0.000 A 
ATOM     24  H   UNL     1      45.780   1.961  13.178  0.00  0.00    +0.000 HD
ENDBRANCH  11  14
ENDBRANCH   9  10
ENDBRANCH   3   9
BRANCH   6  25
ATOM     25  C   UNL     1      50.325   4.686  19.334  0.00  0.00    +0.000 C 
BRANCH  25  26
ATOM     26  N   UNL     1      51.158   3.627  18.824  0.00  0.00    +0.000 N 
ATOM     27  C   UNL     1      52.518   3.741  18.641  0.00  0.00    +0.000 C 
ATOM     28  O   UNL     1      53.124   4.780  18.908  0.00  0.00    +0.000 OA
ATOM     29  H   UNL     1      50.732   2.718  18.695  0.00  0.00    +0.000 HD
BRANCH  27  30
ATOM     30  C   UNL     1      53.172   2.555  18.107  0.00  0.00    +0.000 A 
ATOM     31  C   UNL     1      54.524   2.377  17.873  0.00  0.00    +0.000 A 
ATOM     32  C   UNL     1      54.824   1.098  17.319  0.00  0.00    +0.000 A 
ATOM     33  C   UNL     1      53.692   0.336  17.141  0.00  0.00    +0.000 A 
ATOM     34  S   UNL     1      52.284   1.156  17.648  0.00  0.00    +0.000 S 
ENDBRANCH  27  30
ENDBRANCH  25  26
ENDBRANCH   6  25
TORSDOF 7
ENDMDL
MODEL 9
REMARK VINA RESULT:    -5.308      2.000      2.349
REMARK INTER + INTRA:          -8.472
REMARK INTER:                  -7.706
REMARK INTRA:                  -0.766
REMARK UNBOUND:                -0.992
REMARK  Name = 
REMARK  8 active torsions:
REMARK  status: ('A' for Active; 'I' for Inactive)
REMARK    1  A    between atoms: C_1  and  O_2
REMARK    2  A    between atoms: O_2  and  C_3
REMARK    3  A    between atoms: C_5  and  C_6
REMARK    4  A    between atoms: C_6  and  N_7
REMARK    5  A    between atoms: C_8  and  C_10
REMARK    6  A    between atoms: C_22  and  C_23
REMARK    7  A    between atoms: C_23  and  N_24
REMARK    8  A    between atoms: C_25  and  C_27
REMARK                            x       y       z     vdW  Elec       q    Type
REMARK                         _______ _______ _______ _____ _____    ______ ____
ROOT
ATOM      1  C   UNL     1      45.568   5.134  12.746  0.00  0.00    +0.000 A 
ATOM      2  C   UNL     1      46.394   5.813  13.650  0.00  0.00    +0.000 A 
ATOM      3  C   UNL     1      47.247   6.841  13.219  0.00  0.00    +0.000 A 
ATOM      4  C   UNL     1      47.267   7.188  11.865  0.00  0.00    +0.000 A 
ATOM      5  C   UNL     1      46.442   6.522  10.960  0.00  0.00    +0.000 A 
ATOM      6  C   UNL     1      45.571   5.508  11.391  0.00  0.00    +0.000 A 
ENDROOT
BRANCH   1   8
ATOM      7  C   UNL     1      43.383   4.372  13.308  0.00  0.00    +0.000 C 
ATOM      8  O   UNL     1      44.760   4.079  13.087  0.00  0.00    +0.000 OA
ENDBRANCH   1   8
BRANCH   3   9
ATOM      9  C   UNL     1      48.112   7.569  14.213  0.00  0.00    +0.000 C 
BRANCH   9  10
ATOM     10  N   UNL     1      48.030   6.973  15.524  0.00  0.00    +0.000 N 
ATOM     11  C   UNL     1      49.101   6.364  16.135  0.00  0.00    +0.000 C 
ATOM     12  O   UNL     1      50.184   6.278  15.553  0.00  0.00    +0.000 OA
ATOM     13  H   UNL     1      47.100   6.843  15.908  0.00  0.00    +0.000 HD
BRANCH  11  14
ATOM     14  C   UNL     1      48.887   5.892  17.505  0.00  0.00    +0.000 A 
ATOM     15  S   UNL     1      49.313   4.238  17.820  0.00  0.00    +0.000 S 
ATOM     16  C   UNL     1      48.907   4.353  19.471  0.00  0.00    +0.000 A 
ATOM     17  C   UNL     1      48.425   5.598  19.767  0.00  0.00    +0.000 A 
ATOM     18  N   UNL     1      47.982   5.954  21.049  0.00  0.00    +0.000 NA
ATOM     19  C   UNL     1      47.530   7.160  21.139  0.00  0.00    +0.000 A 
ATOM     20  N   UNL     1      47.469   8.083  20.128  0.00  0.00    +0.000 N 
ATOM     21  C   UNL     1      47.944   7.848  18.861  0.00  0.00    +0.000 A 
ATOM     22  O   UNL     1      47.984   8.736  18.019  0.00  0.00    +0.000 OA
ATOM     23  C   UNL     1      48.418   6.498  18.665  0.00  0.00    +0.000 A 
ATOM     24  H   UNL     1      47.127   9.016  20.306  0.00  0.00    +0.000 HD
ENDBRANCH  11  14
ENDBRANCH   9  10
ENDBRANCH   3   9
BRANCH   6  25
ATOM     25  C   UNL     1      44.651   4.868  10.383  0.00  0.00    +0.000 C 
BRANCH  25  26
ATOM     26  N   UNL     1      45.375   4.300   9.276  0.00  0.00    +0.000 N 
ATOM     27  C   UNL     1      45.235   2.997   8.854  0.00  0.00    +0.000 C 
ATOM     28  O   UNL     1      44.462   2.215   9.409  0.00  0.00    +0.000 OA
ATOM     29  H   UNL     1      45.938   4.926   8.714  0.00  0.00    +0.000 HD
BRANCH  27  30
ATOM     30  C   UNL     1      46.067   2.620   7.720  0.00  0.00    +0.000 A 
ATOM     31  C   UNL     1      46.366   3.388   6.609  0.00  0.00    +0.000 A 
ATOM     32  C   UNL     1      47.192   2.701   5.671  0.00  0.00    +0.000 A 
ATOM     33  C   UNL     1      47.497   1.427   6.090  0.00  0.00    +0.000 A 
ATOM     34  S   UNL     1      46.799   1.069   7.606  0.00  0.00    +0.000 S 
ENDBRANCH  27  30
ENDBRANCH  25  26
ENDBRANCH   6  25
TORSDOF 7
ENDMDL
