MODEL 1
REMARK VINA RESULT:    -7.734      0.000      0.000
REMARK INTER + INTRA:         -12.349
REMARK INTER:                 -11.125
REMARK INTRA:                  -1.223
REMARK UNBOUND:                -1.223
REMARK  Name = 
REMARK  8 active torsions:
REMARK  status: ('A' for Active; 'I' for Inactive)
REMARK    1  A    between atoms: N_1  and  C_2
REMARK    2  A    between atoms: C_2  and  C_3
REMARK    3  A    between atoms: C_3  and  N_4
REMARK    4  A    between atoms: C_3  and  C_17
REMARK    5  A    between atoms: C_5  and  C_7
REMARK    6  A    between atoms: C_20  and  O_21
REMARK    7  A    between atoms: O_21  and  C_22
REMARK    8  A    between atoms: C_22  and  C_23
REMARK                            x       y       z     vdW  Elec       q    Type
REMARK                         _______ _______ _______ _____ _____    ______ ____
ROOT
ATOM      1  C   UNL     1      47.744   6.407  14.892  0.00  0.00    +0.000 C 
ENDROOT
BRANCH   1   2
ATOM      2  C   UNL     1      47.072   5.552  13.827  0.00  0.00    +0.000 A 
ATOM      3  C   UNL     1      46.971   4.164  14.000  0.00  0.00    +0.000 A 
ATOM      4  C   UNL     1      46.187   3.396  13.132  0.00  0.00    +0.000 A 
ATOM      5  C   UNL     1      45.495   4.011  12.088  0.00  0.00    +0.000 A 
ATOM      6  C   UNL     1      45.713   5.361  11.823  0.00  0.00    +0.000 A 
ATOM      7  C   UNL     1      46.498   6.123  12.683  0.00  0.00    +0.000 A 
BRANCH   5   8
ATOM      8  O   UNL     1      44.613   3.226  11.396  0.00  0.00    +0.000 OA
BRANCH   8   9
ATOM      9  C   UNL     1      44.242   3.766  10.117  0.00  0.00    +0.000 C 
BRANCH   9  10
ATOM     10  C   UNL     1      45.136   3.223   9.029  0.00  0.00    +0.000 A 
ATOM     11  C   UNL     1      45.710   4.092   8.103  0.00  0.00    +0.000 A 
ATOM     12  C   UNL     1      46.573   3.575   7.144  0.00  0.00    +0.000 A 
ATOM     13  C   UNL     1      46.841   2.212   7.135  0.00  0.00    +0.000 A 
ATOM     14  C   UNL     1      46.239   1.419   8.096  0.00  0.00    +0.000 A 
ATOM     15  N   UNL     1      45.401   1.891   9.043  0.00  0.00    +0.000 NA
ENDBRANCH   9  10
ENDBRANCH   8   9
ENDBRANCH   5   8
ENDBRANCH   1   2
BRANCH   1  16
ATOM     16  N   UNL     1      48.848   5.685  15.498  0.00  0.00    +0.000 N 
ATOM     17  C   UNL     1      49.035   5.658  16.855  0.00  0.00    +0.000 C 
ATOM     18  O   UNL     1      48.223   6.185  17.619  0.00  0.00    +0.000 OA
ATOM     19  H   UNL     1      49.547   5.299  14.868  0.00  0.00    +0.000 HD
BRANCH  17  20
ATOM     20  C   UNL     1      50.239   4.997  17.373  0.00  0.00    +0.000 A 
ATOM     21  C   UNL     1      51.223   5.766  17.984  0.00  0.00    +0.000 A 
ATOM     22  S   UNL     1      52.565   4.865  18.525  0.00  0.00    +0.000 S 
ATOM     23  C   UNL     1      51.890   3.413  17.954  0.00  0.00    +0.000 A 
ATOM     24  N   UNL     1      52.559   2.238  18.086  0.00  0.00    +0.000 NA
ATOM     25  C   UNL     1      51.942   1.212  17.603  0.00  0.00    +0.000 A 
ATOM     26  N   UNL     1      50.711   1.257  17.002  0.00  0.00    +0.000 N 
ATOM     27  C   UNL     1      49.995   2.420  16.849  0.00  0.00    +0.000 A 
ATOM     28  O   UNL     1      48.896   2.419  16.308  0.00  0.00    +0.000 OA
ATOM     29  C   UNL     1      50.648   3.607  17.370  0.00  0.00    +0.000 A 
ATOM     30  H   UNL     1      50.278   0.416  16.648  0.00  0.00    +0.000 HD
ENDBRANCH  17  20
ENDBRANCH   1  16
BRANCH   1  31
ATOM     31  C   UNL     1      48.197   7.813  14.371  0.00  0.00    +0.000 C 
BRANCH  31  32
ATOM     32  N   UNL     1      47.343   8.926  14.812  0.00  0.00    +0.000 NA
ATOM     33  H   UNL     1      46.987   8.727  15.746  0.00  0.00    +0.000 HD
ATOM     34  H   UNL     1      46.530   8.990  14.202  0.00  0.00    +0.000 HD
ENDBRANCH  31  32
ENDBRANCH   1  31
TORSDOF 8
ENDMDL
MODEL 2
REMARK VINA RESULT:    -7.732      1.985      2.510
REMARK INTER + INTRA:         -12.345
REMARK INTER:                 -11.163
REMARK INTRA:                  -1.183
REMARK UNBOUND:                -1.223
REMARK  Name = 
REMARK  8 active torsions:
REMARK  status: ('A' for Active; 'I' for Inactive)
REMARK    1  A    between atoms: N_1  and  C_2
REMARK    2  A    between atoms: C_2  and  C_3
REMARK    3  A    between atoms: C_3  and  N_4
REMARK    4  A    between atoms: C_3  and  C_17
REMARK    5  A    between atoms: C_5  and  C_7
REMARK    6  A    between atoms: C_20  and  O_21
REMARK    7  A    between atoms: O_21  and  C_22
REMARK    8  A    between atoms: C_22  and  C_23
REMARK                            x       y       z     vdW  Elec       q    Type
REMARK                         _______ _______ _______ _____ _____    ______ ____
ROOT
ATOM      1  C   UNL     1      47.252   6.929  12.846  0.00  0.00    +0.000 C 
ENDROOT
BRANCH   1   2
ATOM      2  C   UNL     1      46.220   6.026  12.183  0.00  0.00    +0.000 A 
ATOM      3  C   UNL     1      45.514   6.473  11.057  0.00  0.00    +0.000 A 
ATOM      4  C   UNL     1      44.716   5.588  10.323  0.00  0.00    +0.000 A 
ATOM      5  C   UNL     1      44.621   4.251  10.708  0.00  0.00    +0.000 A 
ATOM      6  C   UNL     1      45.198   3.840  11.907  0.00  0.00    +0.000 A 
ATOM      7  C   UNL     1      45.987   4.722  12.640  0.00  0.00    +0.000 A 
BRANCH   5   8
ATOM      8  O   UNL     1      43.969   3.414   9.844  0.00  0.00    +0.000 OA
BRANCH   8   9
ATOM      9  C   UNL     1      44.628   2.151   9.658  0.00  0.00    +0.000 C 
BRANCH   9  10
ATOM     10  C   UNL     1      45.541   2.198   8.457  0.00  0.00    +0.000 A 
ATOM     11  C   UNL     1      45.574   3.336   7.653  0.00  0.00    +0.000 A 
ATOM     12  C   UNL     1      46.463   3.377   6.585  0.00  0.00    +0.000 A 
ATOM     13  C   UNL     1      47.294   2.288   6.349  0.00  0.00    +0.000 A 
ATOM     14  C   UNL     1      47.206   1.201   7.201  0.00  0.00    +0.000 A 
ATOM     15  N   UNL     1      46.357   1.133   8.249  0.00  0.00    +0.000 NA
ENDBRANCH   9  10
ENDBRANCH   8   9
ENDBRANCH   5   8
ENDBRANCH   1   2
BRANCH   1  16
ATOM     16  N   UNL     1      47.786   6.295  14.038  0.00  0.00    +0.000 N 
ATOM     17  C   UNL     1      48.321   7.026  15.066  0.00  0.00    +0.000 C 
ATOM     18  O   UNL     1      48.296   8.259  15.050  0.00  0.00    +0.000 OA
ATOM     19  H   UNL     1      47.859   5.280  14.027  0.00  0.00    +0.000 HD
BRANCH  17  20
ATOM     20  C   UNL     1      48.939   6.299  16.182  0.00  0.00    +0.000 A 
ATOM     21  C   UNL     1      50.132   6.771  16.718  0.00  0.00    +0.000 A 
ATOM     22  S   UNL     1      50.737   5.821  17.997  0.00  0.00    +0.000 S 
ATOM     23  C   UNL     1      49.434   4.734  17.878  0.00  0.00    +0.000 A 
ATOM     24  N   UNL     1      49.357   3.651  18.696  0.00  0.00    +0.000 NA
ATOM     25  C   UNL     1      48.325   2.902  18.497  0.00  0.00    +0.000 A 
ATOM     26  N   UNL     1      47.360   3.141  17.553  0.00  0.00    +0.000 N 
ATOM     27  C   UNL     1      47.394   4.223  16.707  0.00  0.00    +0.000 A 
ATOM     28  O   UNL     1      46.510   4.404  15.878  0.00  0.00    +0.000 OA
ATOM     29  C   UNL     1      48.538   5.097  16.885  0.00  0.00    +0.000 A 
ATOM     30  H   UNL     1      46.572   2.518  17.450  0.00  0.00    +0.000 HD
ENDBRANCH  17  20
ENDBRANCH   1  16
BRANCH   1  31
ATOM     31  C   UNL     1      48.395   7.386  11.878  0.00  0.00    +0.000 C 
BRANCH  31  32
ATOM     32  N   UNL     1      48.657   8.832  11.893  0.00  0.00    +0.000 NA
ATOM     33  H   UNL     1      49.373   9.051  11.201  0.00  0.00    +0.000 HD
ATOM     34  H   UNL     1      49.043   9.096  12.798  0.00  0.00    +0.000 HD
ENDBRANCH  31  32
ENDBRANCH   1  31
TORSDOF 8
ENDMDL
MODEL 3
REMARK VINA RESULT:    -7.561      2.590      3.441
REMARK INTER + INTRA:         -12.100
REMARK INTER:                 -11.267
REMARK INTRA:                  -0.833
REMARK UNBOUND:                -1.223
REMARK  Name = 
REMARK  8 active torsions:
REMARK  status: ('A' for Active; 'I' for Inactive)
REMARK    1  A    between atoms: N_1  and  C_2
REMARK    2  A    between atoms: C_2  and  C_3
REMARK    3  A    between atoms: C_3  and  N_4
REMARK    4  A    between atoms: C_3  and  C_17
REMARK    5  A    between atoms: C_5  and  C_7
REMARK    6  A    between atoms: C_20  and  O_21
REMARK    7  A    between atoms: O_21  and  C_22
REMARK    8  A    between atoms: C_22  and  C_23
REMARK                            x       y       z     vdW  Elec       q    Type
REMARK                         _______ _______ _______ _____ _____    ______ ____
ROOT
ATOM      1  C   UNL     1      47.595   6.606  13.485  0.00  0.00    +0.000 C 
ENDROOT
BRANCH   1   2
ATOM      2  C   UNL     1      46.536   5.943  12.615  0.00  0.00    +0.000 A 
ATOM      3  C   UNL     1      46.165   6.524  11.393  0.00  0.00    +0.000 A 
ATOM      4  C   UNL     1      45.346   5.827  10.497  0.00  0.00    +0.000 A 
ATOM      5  C   UNL     1      44.896   4.545  10.814  0.00  0.00    +0.000 A 
ATOM      6  C   UNL     1      45.137   4.029  12.085  0.00  0.00    +0.000 A 
ATOM      7  C   UNL     1      45.947   4.724  12.979  0.00  0.00    +0.000 A 
BRANCH   5   8
ATOM      8  O   UNL     1      44.253   3.862   9.818  0.00  0.00    +0.000 OA
BRANCH   8   9
ATOM      9  C   UNL     1      44.693   2.502   9.675  0.00  0.00    +0.000 C 
BRANCH   9  10
ATOM     10  C   UNL     1      45.582   2.354   8.465  0.00  0.00    +0.000 A 
ATOM     11  C   UNL     1      45.738   3.421   7.582  0.00  0.00    +0.000 A 
ATOM     12  C   UNL     1      46.605   3.279   6.505  0.00  0.00    +0.000 A 
ATOM     13  C   UNL     1      47.293   2.083   6.338  0.00  0.00    +0.000 A 
ATOM     14  C   UNL     1      47.089   1.076   7.266  0.00  0.00    +0.000 A 
ATOM     15  N   UNL     1      46.258   1.185   8.324  0.00  0.00    +0.000 NA
ENDBRANCH   9  10
ENDBRANCH   8   9
ENDBRANCH   5   8
ENDBRANCH   1   2
BRANCH   1  16
ATOM     16  N   UNL     1      47.636   5.981  14.795  0.00  0.00    +0.000 N 
ATOM     17  C   UNL     1      48.407   6.484  15.811  0.00  0.00    +0.000 C 
ATOM     18  O   UNL     1      49.035   7.535  15.671  0.00  0.00    +0.000 OA
ATOM     19  H   UNL     1      47.164   5.085  14.894  0.00  0.00    +0.000 HD
BRANCH  17  20
ATOM     20  C   UNL     1      48.474   5.726  17.066  0.00  0.00    +0.000 A 
ATOM     21  C   UNL     1      48.835   4.384  17.027  0.00  0.00    +0.000 A 
ATOM     22  S   UNL     1      48.860   3.631  18.556  0.00  0.00    +0.000 S 
ATOM     23  C   UNL     1      48.377   5.066  19.330  0.00  0.00    +0.000 A 
ATOM     24  N   UNL     1      48.188   5.098  20.676  0.00  0.00    +0.000 NA
ATOM     25  C   UNL     1      47.812   6.244  21.137  0.00  0.00    +0.000 A 
ATOM     26  N   UNL     1      47.614   7.364  20.371  0.00  0.00    +0.000 N 
ATOM     27  C   UNL     1      47.797   7.381  19.010  0.00  0.00    +0.000 A 
ATOM     28  O   UNL     1      47.611   8.403  18.360  0.00  0.00    +0.000 OA
ATOM     29  C   UNL     1      48.213   6.113  18.437  0.00  0.00    +0.000 A 
ATOM     30  H   UNL     1      47.325   8.234  20.794  0.00  0.00    +0.000 HD
ENDBRANCH  17  20
ENDBRANCH   1  16
BRANCH   1  31
ATOM     31  C   UNL     1      49.014   6.643  12.823  0.00  0.00    +0.000 C 
BRANCH  31  32
ATOM     32  N   UNL     1      49.557   7.995  12.630  0.00  0.00    +0.000 NA
ATOM     33  H   UNL     1      50.119   8.013  11.781  0.00  0.00    +0.000 HD
ATOM     34  H   UNL     1      50.188   8.217  13.398  0.00  0.00    +0.000 HD
ENDBRANCH  31  32
ENDBRANCH   1  31
TORSDOF 8
ENDMDL
MODEL 4
REMARK VINA RESULT:    -7.545      3.016      4.564
REMARK INTER + INTRA:         -12.076
REMARK INTER:                 -10.715
REMARK INTRA:                  -1.361
REMARK UNBOUND:                -1.223
REMARK  Name = 
REMARK  8 active torsions:
REMARK  status: ('A' for Active; 'I' for Inactive)
REMARK    1  A    between atoms: N_1  and  C_2
REMARK    2  A    between atoms: C_2  and  C_3
REMARK    3  A    between atoms: C_3  and  N_4
REMARK    4  A    between atoms: C_3  and  C_17
REMARK    5  A    between atoms: C_5  and  C_7
REMARK    6  A    between atoms: C_20  and  O_21
REMARK    7  A    between atoms: O_21  and  C_22
REMARK    8  A    between atoms: C_22  and  C_23
REMARK                            x       y       z     vdW  Elec       q    Type
REMARK                         _______ _______ _______ _____ _____    ______ ____
ROOT
ATOM      1  C   UNL     1      47.722   5.127  14.641  0.00  0.00    +0.000 C 
ENDROOT
BRANCH   1   2
ATOM      2  C   UNL     1      46.731   4.988  13.494  0.00  0.00    +0.000 A 
ATOM      3  C   UNL     1      46.562   6.038  12.580  0.00  0.00    +0.000 A 
ATOM      4  C   UNL     1      45.810   5.850  11.415  0.00  0.00    +0.000 A 
ATOM      5  C   UNL     1      45.226   4.611  11.154  0.00  0.00    +0.000 A 
ATOM      6  C   UNL     1      45.266   3.615  12.127  0.00  0.00    +0.000 A 
ATOM      7  C   UNL     1      46.009   3.804  13.289  0.00  0.00    +0.000 A 
BRANCH   5   8
ATOM      8  O   UNL     1      44.660   4.452   9.917  0.00  0.00    +0.000 OA
BRANCH   8   9
ATOM      9  C   UNL     1      44.427   3.080   9.562  0.00  0.00    +0.000 C 
BRANCH   9  10
ATOM     10  C   UNL     1      45.412   2.626   8.513  0.00  0.00    +0.000 A 
ATOM     11  C   UNL     1      45.875   3.528   7.557  0.00  0.00    +0.000 A 
ATOM     12  C   UNL     1      46.823   3.100   6.635  0.00  0.00    +0.000 A 
ATOM     13  C   UNL     1      47.284   1.791   6.692  0.00  0.00    +0.000 A 
ATOM     14  C   UNL     1      46.781   0.961   7.679  0.00  0.00    +0.000 A 
ATOM     15  N   UNL     1      45.864   1.348   8.591  0.00  0.00    +0.000 NA
ENDBRANCH   9  10
ENDBRANCH   8   9
ENDBRANCH   5   8
ENDBRANCH   1   2
BRANCH   1  16
ATOM     16  N   UNL     1      47.736   6.493  15.134  0.00  0.00    +0.000 N 
ATOM     17  C   UNL     1      48.907   7.148  15.413  0.00  0.00    +0.000 C 
ATOM     18  O   UNL     1      49.999   6.625  15.180  0.00  0.00    +0.000 OA
ATOM     19  H   UNL     1      46.838   6.904  15.379  0.00  0.00    +0.000 HD
BRANCH  17  20
ATOM     20  C   UNL     1      48.824   8.486  16.011  0.00  0.00    +0.000 A 
ATOM     21  C   UNL     1      49.219   9.587  15.259  0.00  0.00    +0.000 A 
ATOM     22  S   UNL     1      49.079  11.071  16.086  0.00  0.00    +0.000 S 
ATOM     23  C   UNL     1      48.497  10.300  17.484  0.00  0.00    +0.000 A 
ATOM     24  N   UNL     1      48.195  11.018  18.599  0.00  0.00    +0.000 NA
ATOM     25  C   UNL     1      47.773  10.312  19.593  0.00  0.00    +0.000 A 
ATOM     26  N   UNL     1      47.621   8.950  19.572  0.00  0.00    +0.000 N 
ATOM     27  C   UNL     1      47.908   8.183  18.469  0.00  0.00    +0.000 A 
ATOM     28  O   UNL     1      47.757   6.967  18.488  0.00  0.00    +0.000 OA
ATOM     29  C   UNL     1      48.394   8.927  17.322  0.00  0.00    +0.000 A 
ATOM     30  H   UNL     1      47.280   8.455  20.383  0.00  0.00    +0.000 HD
ENDBRANCH  17  20
ENDBRANCH   1  16
BRANCH   1  31
ATOM     31  C   UNL     1      47.482   4.102  15.802  0.00  0.00    +0.000 C 
BRANCH  31  32
ATOM     32  N   UNL     1      46.962   4.701  17.040  0.00  0.00    +0.000 NA
ATOM     33  H   UNL     1      45.951   4.807  16.963  0.00  0.00    +0.000 HD
ATOM     34  H   UNL     1      47.343   5.640  17.145  0.00  0.00    +0.000 HD
ENDBRANCH  31  32
ENDBRANCH   1  31
TORSDOF 8
ENDMDL
MODEL 5
REMARK VINA RESULT:    -7.510      3.109      8.538
REMARK INTER + INTRA:         -12.026
REMARK INTER:                 -10.906
REMARK INTRA:                  -1.120
REMARK UNBOUND:                -1.223
REMARK  Name = 
REMARK  8 active torsions:
REMARK  status: ('A' for Active; 'I' for Inactive)
REMARK    1  A    between atoms: N_1  and  C_2
REMARK    2  A    between atoms: C_2  and  C_3
REMARK    3  A    between atoms: C_3  and  N_4
REMARK    4  A    between atoms: C_3  and  C_17
REMARK    5  A    between atoms: C_5  and  C_7
REMARK    6  A    between atoms: C_20  and  O_21
REMARK    7  A    between atoms: O_21  and  C_22
REMARK    8  A    between atoms: C_22  and  C_23
REMARK                            x       y       z     vdW  Elec       q    Type
REMARK                         _______ _______ _______ _____ _____    ______ ____
ROOT
ATOM      1  C   UNL     1      48.639   5.892  17.270  0.00  0.00    +0.000 C 
ENDROOT
BRANCH   1   2
ATOM      2  C   UNL     1      49.494   4.647  17.459  0.00  0.00    +0.000 A 
ATOM      3  C   UNL     1      48.947   3.376  17.227  0.00  0.00    +0.000 A 
ATOM      4  C   UNL     1      49.770   2.244  17.203  0.00  0.00    +0.000 A 
ATOM      5  C   UNL     1      51.143   2.375  17.406  0.00  0.00    +0.000 A 
ATOM      6  C   UNL     1      51.666   3.609  17.784  0.00  0.00    +0.000 A 
ATOM      7  C   UNL     1      50.847   4.734  17.814  0.00  0.00    +0.000 A 
BRANCH   5   8
ATOM      8  O   UNL     1      51.900   1.255  17.191  0.00  0.00    +0.000 OA
BRANCH   8   9
ATOM      9  C   UNL     1      53.064   1.176  18.030  0.00  0.00    +0.000 C 
BRANCH   9  10
ATOM     10  C   UNL     1      53.828  -0.097  17.762  0.00  0.00    +0.000 A 
ATOM     11  C   UNL     1      54.434  -0.298  16.523  0.00  0.00    +0.000 A 
ATOM     12  C   UNL     1      55.178  -1.454  16.320  0.00  0.00    +0.000 A 
ATOM     13  C   UNL     1      55.301  -2.374  17.354  0.00  0.00    +0.000 A 
ATOM     14  C   UNL     1      54.677  -2.095  18.557  0.00  0.00    +0.000 A 
ATOM     15  N   UNL     1      53.952  -0.980  18.787  0.00  0.00    +0.000 NA
ENDBRANCH   9  10
ENDBRANCH   8   9
ENDBRANCH   5   8
ENDBRANCH   1   2
BRANCH   1  16
ATOM     16  N   UNL     1      47.809   5.759  16.087  0.00  0.00    +0.000 N 
ATOM     17  C   UNL     1      48.212   6.232  14.865  0.00  0.00    +0.000 C 
ATOM     18  O   UNL     1      49.334   6.720  14.711  0.00  0.00    +0.000 OA
ATOM     19  H   UNL     1      46.863   5.409  16.223  0.00  0.00    +0.000 HD
BRANCH  17  20
ATOM     20  C   UNL     1      47.264   6.155  13.747  0.00  0.00    +0.000 A 
ATOM     21  C   UNL     1      46.902   7.323  13.086  0.00  0.00    +0.000 A 
ATOM     22  S   UNL     1      45.786   7.081  11.820  0.00  0.00    +0.000 S 
ATOM     23  C   UNL     1      45.734   5.407  12.113  0.00  0.00    +0.000 A 
ATOM     24  N   UNL     1      44.933   4.597  11.370  0.00  0.00    +0.000 NA
ATOM     25  C   UNL     1      44.978   3.350  11.700  0.00  0.00    +0.000 A 
ATOM     26  N   UNL     1      45.758   2.839  12.705  0.00  0.00    +0.000 N 
ATOM     27  C   UNL     1      46.585   3.617  13.479  0.00  0.00    +0.000 A 
ATOM     28  O   UNL     1      47.269   3.121  14.367  0.00  0.00    +0.000 OA
ATOM     29  C   UNL     1      46.568   5.031  13.154  0.00  0.00    +0.000 A 
ATOM     30  H   UNL     1      45.753   1.851  12.911  0.00  0.00    +0.000 HD
ENDBRANCH  17  20
ENDBRANCH   1  16
BRANCH   1  31
ATOM     31  C   UNL     1      47.785   6.260  18.531  0.00  0.00    +0.000 C 
BRANCH  31  32
ATOM     32  N   UNL     1      46.535   5.497  18.659  0.00  0.00    +0.000 NA
ATOM     33  H   UNL     1      45.897   5.996  19.277  0.00  0.00    +0.000 HD
ATOM     34  H   UNL     1      46.731   4.604  19.109  0.00  0.00    +0.000 HD
ENDBRANCH  31  32
ENDBRANCH   1  31
TORSDOF 8
ENDMDL
MODEL 6
REMARK VINA RESULT:    -7.476      2.600      4.599
REMARK INTER + INTRA:         -11.977
REMARK INTER:                 -10.730
REMARK INTRA:                  -1.247
REMARK UNBOUND:                -1.223
REMARK  Name = 
REMARK  8 active torsions:
REMARK  status: ('A' for Active; 'I' for Inactive)
REMARK    1  A    between atoms: N_1  and  C_2
REMARK    2  A    between atoms: C_2  and  C_3
REMARK    3  A    between atoms: C_3  and  N_4
REMARK    4  A    between atoms: C_3  and  C_17
REMARK    5  A    between atoms: C_5  and  C_7
REMARK    6  A    between atoms: C_20  and  O_21
REMARK    7  A    between atoms: O_21  and  C_22
REMARK    8  A    between atoms: C_22  and  C_23
REMARK                            x       y       z     vdW  Elec       q    Type
REMARK                         _______ _______ _______ _____ _____    ______ ____
ROOT
ATOM      1  C   UNL     1      47.867   4.609  15.338  0.00  0.00    +0.000 C 
ENDROOT
BRANCH   1   2
ATOM      2  C   UNL     1      46.964   4.935  14.157  0.00  0.00    +0.000 A 
ATOM      3  C   UNL     1      47.127   6.142  13.460  0.00  0.00    +0.000 A 
ATOM      4  C   UNL     1      46.443   6.364  12.259  0.00  0.00    +0.000 A 
ATOM      5  C   UNL     1      45.596   5.382  11.746  0.00  0.00    +0.000 A 
ATOM      6  C   UNL     1      45.318   4.250  12.508  0.00  0.00    +0.000 A 
ATOM      7  C   UNL     1      45.993   4.032  13.706  0.00  0.00    +0.000 A 
BRANCH   5   8
ATOM      8  O   UNL     1      45.106   5.598  10.486  0.00  0.00    +0.000 OA
BRANCH   8   9
ATOM      9  C   UNL     1      44.382   4.478   9.950  0.00  0.00    +0.000 C 
BRANCH   9  10
ATOM     10  C   UNL     1      45.252   3.684   9.007  0.00  0.00    +0.000 A 
ATOM     11  C   UNL     1      45.326   2.297   9.131  0.00  0.00    +0.000 A 
ATOM     12  C   UNL     1      46.090   1.582   8.216  0.00  0.00    +0.000 A 
ATOM     13  C   UNL     1      46.755   2.265   7.205  0.00  0.00    +0.000 A 
ATOM     14  C   UNL     1      46.621   3.641   7.146  0.00  0.00    +0.000 A 
ATOM     15  N   UNL     1      45.883   4.363   8.016  0.00  0.00    +0.000 NA
ENDBRANCH   9  10
ENDBRANCH   8   9
ENDBRANCH   5   8
ENDBRANCH   1   2
BRANCH   1  16
ATOM     16  N   UNL     1      47.898   5.720  16.273  0.00  0.00    +0.000 N 
ATOM     17  C   UNL     1      49.055   6.108  16.897  0.00  0.00    +0.000 C 
ATOM     18  O   UNL     1      50.132   5.573  16.626  0.00  0.00    +0.000 OA
ATOM     19  H   UNL     1      47.002   6.124  16.539  0.00  0.00    +0.000 HD
BRANCH  17  20
ATOM     20  C   UNL     1      48.972   7.168  17.909  0.00  0.00    +0.000 A 
ATOM     21  C   UNL     1      49.302   6.871  19.226  0.00  0.00    +0.000 A 
ATOM     22  S   UNL     1      49.148   8.195  20.290  0.00  0.00    +0.000 S 
ATOM     23  C   UNL     1      48.623   9.213  19.034  0.00  0.00    +0.000 A 
ATOM     24  N   UNL     1      48.295  10.508  19.282  0.00  0.00    +0.000 NA
ATOM     25  C   UNL     1      47.902  11.170  18.246  0.00  0.00    +0.000 A 
ATOM     26  N   UNL     1      47.812  10.652  16.980  0.00  0.00    +0.000 N 
ATOM     27  C   UNL     1      48.136   9.351  16.680  0.00  0.00    +0.000 A 
ATOM     28  O   UNL     1      48.045   8.925  15.535  0.00  0.00    +0.000 OA
ATOM     29  C   UNL     1      48.578   8.559  17.813  0.00  0.00    +0.000 A 
ATOM     30  H   UNL     1      47.502  11.224  16.208  0.00  0.00    +0.000 HD
ENDBRANCH  17  20
ENDBRANCH   1  16
BRANCH   1  31
ATOM     31  C   UNL     1      47.497   3.267  16.056  0.00  0.00    +0.000 C 
BRANCH  31  32
ATOM     32  N   UNL     1      46.730   3.437  17.299  0.00  0.00    +0.000 NA
ATOM     33  H   UNL     1      46.247   2.567  17.518  0.00  0.00    +0.000 HD
ATOM     34  H   UNL     1      46.006   4.139  17.154  0.00  0.00    +0.000 HD
ENDBRANCH  31  32
ENDBRANCH   1  31
TORSDOF 8
ENDMDL
MODEL 7
REMARK VINA RESULT:    -7.456      2.002      2.489
REMARK INTER + INTRA:         -11.948
REMARK INTER:                 -10.872
REMARK INTRA:                  -1.077
REMARK UNBOUND:                -1.223
REMARK  Name = 
REMARK  8 active torsions:
REMARK  status: ('A' for Active; 'I' for Inactive)
REMARK    1  A    between atoms: N_1  and  C_2
REMARK    2  A    between atoms: C_2  and  C_3
REMARK    3  A    between atoms: C_3  and  N_4
REMARK    4  A    between atoms: C_3  and  C_17
REMARK    5  A    between atoms: C_5  and  C_7
REMARK    6  A    between atoms: C_20  and  O_21
REMARK    7  A    between atoms: O_21  and  C_22
REMARK    8  A    between atoms: C_22  and  C_23
REMARK                            x       y       z     vdW  Elec       q    Type
REMARK                         _______ _______ _______ _____ _____    ______ ____
ROOT
ATOM      1  C   UNL     1      47.558   6.791  13.432  0.00  0.00    +0.000 C 
ENDROOT
BRANCH   1   2
ATOM      2  C   UNL     1      46.499   6.071  12.609  0.00  0.00    +0.000 A 
ATOM      3  C   UNL     1      46.039   6.633  11.409  0.00  0.00    +0.000 A 
ATOM      4  C   UNL     1      45.220   5.894  10.547  0.00  0.00    +0.000 A 
ATOM      5  C   UNL     1      44.859   4.587  10.878  0.00  0.00    +0.000 A 
ATOM      6  C   UNL     1      45.188   4.082  12.133  0.00  0.00    +0.000 A 
ATOM      7  C   UNL     1      45.998   4.820  12.992  0.00  0.00    +0.000 A 
BRANCH   5   8
ATOM      8  O   UNL     1      44.210   3.872   9.908  0.00  0.00    +0.000 OA
BRANCH   8   9
ATOM      9  C   UNL     1      44.684   2.522   9.774  0.00  0.00    +0.000 C 
BRANCH   9  10
ATOM     10  C   UNL     1      45.552   2.382   8.547  0.00  0.00    +0.000 A 
ATOM     11  C   UNL     1      45.719   3.465   7.686  0.00  0.00    +0.000 A 
ATOM     12  C   UNL     1      46.566   3.328   6.593  0.00  0.00    +0.000 A 
ATOM     13  C   UNL     1      47.223   2.121   6.389  0.00  0.00    +0.000 A 
ATOM     14  C   UNL     1      47.011   1.098   7.296  0.00  0.00    +0.000 A 
ATOM     15  N   UNL     1      46.198   1.201   8.370  0.00  0.00    +0.000 NA
ENDBRANCH   9  10
ENDBRANCH   8   9
ENDBRANCH   5   8
ENDBRANCH   1   2
BRANCH   1  16
ATOM     16  N   UNL     1      47.942   5.984  14.577  0.00  0.00    +0.000 N 
ATOM     17  C   UNL     1      48.529   6.537  15.685  0.00  0.00    +0.000 C 
ATOM     18  O   UNL     1      48.681   7.757  15.782  0.00  0.00    +0.000 OA
ATOM     19  H   UNL     1      47.869   4.975  14.475  0.00  0.00    +0.000 HD
BRANCH  17  20
ATOM     20  C   UNL     1      48.985   5.634  16.748  0.00  0.00    +0.000 A 
ATOM     21  C   UNL     1      48.045   4.887  17.450  0.00  0.00    +0.000 A 
ATOM     22  S   UNL     1      48.718   3.893  18.660  0.00  0.00    +0.000 S 
ATOM     23  C   UNL     1      50.291   4.430  18.303  0.00  0.00    +0.000 A 
ATOM     24  N   UNL     1      51.358   3.971  19.008  0.00  0.00    +0.000 NA
ATOM     25  C   UNL     1      52.494   4.465  18.645  0.00  0.00    +0.000 A 
ATOM     26  N   UNL     1      52.658   5.375  17.633  0.00  0.00    +0.000 N 
ATOM     27  C   UNL     1      51.612   5.864  16.890  0.00  0.00    +0.000 A 
ATOM     28  O   UNL     1      51.800   6.675  15.991  0.00  0.00    +0.000 OA
ATOM     29  C   UNL     1      50.308   5.346  17.262  0.00  0.00    +0.000 A 
ATOM     30  H   UNL     1      53.577   5.720  17.392  0.00  0.00    +0.000 HD
ENDBRANCH  17  20
ENDBRANCH   1  16
BRANCH   1  31
ATOM     31  C   UNL     1      48.807   7.231  12.596  0.00  0.00    +0.000 C 
BRANCH  31  32
ATOM     32  N   UNL     1      49.210   8.629  12.801  0.00  0.00    +0.000 NA
ATOM     33  H   UNL     1      48.413   9.162  13.146  0.00  0.00    +0.000 HD
ATOM     34  H   UNL     1      49.465   9.041  11.905  0.00  0.00    +0.000 HD
ENDBRANCH  31  32
ENDBRANCH   1  31
TORSDOF 8
ENDMDL
MODEL 8
REMARK VINA RESULT:    -7.222      2.339      3.177
REMARK INTER + INTRA:         -11.612
REMARK INTER:                 -10.490
REMARK INTRA:                  -1.122
REMARK UNBOUND:                -1.223
REMARK  Name = 
REMARK  8 active torsions:
REMARK  status: ('A' for Active; 'I' for Inactive)
REMARK    1  A    between atoms: N_1  and  C_2
REMARK    2  A    between atoms: C_2  and  C_3
REMARK    3  A    between atoms: C_3  and  N_4
REMARK    4  A    between atoms: C_3  and  C_17
REMARK    5  A    between atoms: C_5  and  C_7
REMARK    6  A    between atoms: C_20  and  O_21
REMARK    7  A    between atoms: O_21  and  C_22
REMARK    8  A    between atoms: C_22  and  C_23
REMARK                            x       y       z     vdW  Elec       q    Type
REMARK                         _______ _______ _______ _____ _____    ______ ____
ROOT
ATOM      1  C   UNL     1      47.965   7.307  13.449  0.00  0.00    +0.000 C 
ENDROOT
BRANCH   1   2
ATOM      2  C   UNL     1      46.832   6.465  12.879  0.00  0.00    +0.000 A 
ATOM      3  C   UNL     1      46.146   6.891  11.732  0.00  0.00    +0.000 A 
ATOM      4  C   UNL     1      45.244   6.038  11.087  0.00  0.00    +0.000 A 
ATOM      5  C   UNL     1      45.025   4.752  11.581  0.00  0.00    +0.000 A 
ATOM      6  C   UNL     1      45.587   4.380  12.799  0.00  0.00    +0.000 A 
ATOM      7  C   UNL     1      46.480   5.232  13.445  0.00  0.00    +0.000 A 
BRANCH   5   8
ATOM      8  O   UNL     1      44.270   3.920  10.799  0.00  0.00    +0.000 OA
BRANCH   8   9
ATOM      9  C   UNL     1      44.247   4.297   9.412  0.00  0.00    +0.000 C 
BRANCH   9  10
ATOM     10  C   UNL     1      45.264   3.505   8.628  0.00  0.00    +0.000 A 
ATOM     11  C   UNL     1      45.401   2.136   8.850  0.00  0.00    +0.000 A 
ATOM     12  C   UNL     1      46.306   1.418   8.076  0.00  0.00    +0.000 A 
ATOM     13  C   UNL     1      47.045   2.081   7.104  0.00  0.00    +0.000 A 
ATOM     14  C   UNL     1      46.841   3.440   6.939  0.00  0.00    +0.000 A 
ATOM     15  N   UNL     1      45.967   4.163   7.671  0.00  0.00    +0.000 NA
ENDBRANCH   9  10
ENDBRANCH   8   9
ENDBRANCH   5   8
ENDBRANCH   1   2
BRANCH   1  16
ATOM     16  N   UNL     1      47.997   7.199  14.896  0.00  0.00    +0.000 N 
ATOM     17  C   UNL     1      48.352   8.257  15.692  0.00  0.00    +0.000 C 
ATOM     18  O   UNL     1      48.584   9.366  15.207  0.00  0.00    +0.000 OA
ATOM     19  H   UNL     1      47.862   6.271  15.293  0.00  0.00    +0.000 HD
BRANCH  17  20
ATOM     20  C   UNL     1      48.464   8.027  17.137  0.00  0.00    +0.000 A 
ATOM     21  C   UNL     1      48.000   9.000  18.014  0.00  0.00    +0.000 A 
ATOM     22  S   UNL     1      48.206   8.602  19.659  0.00  0.00    +0.000 S 
ATOM     23  C   UNL     1      48.935   7.118  19.264  0.00  0.00    +0.000 A 
ATOM     24  N   UNL     1      49.376   6.280  20.239  0.00  0.00    +0.000 NA
ATOM     25  C   UNL     1      49.919   5.192  19.807  0.00  0.00    +0.000 A 
ATOM     26  N   UNL     1      50.055   4.864  18.483  0.00  0.00    +0.000 N 
ATOM     27  C   UNL     1      49.621   5.675  17.462  0.00  0.00    +0.000 A 
ATOM     28  O   UNL     1      49.759   5.345  16.291  0.00  0.00    +0.000 OA
ATOM     29  C   UNL     1      49.008   6.918  17.894  0.00  0.00    +0.000 A 
ATOM     30  H   UNL     1      50.485   3.992  18.208  0.00  0.00    +0.000 HD
ENDBRANCH  17  20
ENDBRANCH   1  16
BRANCH   1  31
ATOM     31  C   UNL     1      49.362   6.981  12.819  0.00  0.00    +0.000 C 
BRANCH  31  32
ATOM     32  N   UNL     1      50.474   7.766  13.376  0.00  0.00    +0.000 NA
ATOM     33  H   UNL     1      50.246   8.044  14.329  0.00  0.00    +0.000 HD
ATOM     34  H   UNL     1      50.578   8.628  12.842  0.00  0.00    +0.000 HD
ENDBRANCH  31  32
ENDBRANCH   1  31
TORSDOF 8
ENDMDL
MODEL 9
REMARK VINA RESULT:    -6.921      1.678      2.339
REMARK INTER + INTRA:         -11.179
REMARK INTER:                  -9.923
REMARK INTRA:                  -1.255
REMARK UNBOUND:                -1.223
REMARK  Name = 
REMARK  8 active torsions:
REMARK  status: ('A' for Active; 'I' for Inactive)
REMARK    1  A    between atoms: N_1  and  C_2
REMARK    2  A    between atoms: C_2  and  C_3
REMARK    3  A    between atoms: C_3  and  N_4
REMARK    4  A    between atoms: C_3  and  C_17
REMARK    5  A    between atoms: C_5  and  C_7
REMARK    6  A    between atoms: C_20  and  O_21
REMARK    7  A    between atoms: O_21  and  C_22
REMARK    8  A    between atoms: C_22  and  C_23
REMARK                            x       y       z     vdW  Elec       q    Type
REMARK                         _______ _______ _______ _____ _____    ______ ____
ROOT
ATOM      1  C   UNL     1      49.630   6.713  16.163  0.00  0.00    +0.000 C 
ENDROOT
BRANCH   1   2
ATOM      2  C   UNL     1      48.464   6.033  15.459  0.00  0.00    +0.000 A 
ATOM      3  C   UNL     1      48.078   6.448  14.177  0.00  0.00    +0.000 A 
ATOM      4  C   UNL     1      47.145   5.706  13.442  0.00  0.00    +0.000 A 
ATOM      5  C   UNL     1      46.597   4.543  13.983  0.00  0.00    +0.000 A 
ATOM      6  C   UNL     1      46.864   4.212  15.309  0.00  0.00    +0.000 A 
ATOM      7  C   UNL     1      47.787   4.953  16.042  0.00  0.00    +0.000 A 
BRANCH   5   8
ATOM      8  O   UNL     1      45.834   3.781  13.140  0.00  0.00    +0.000 OA
BRANCH   8   9
ATOM      9  C   UNL     1      44.854   4.535  12.410  0.00  0.00    +0.000 C 
BRANCH   9  10
ATOM     10  C   UNL     1      44.876   4.164  10.947  0.00  0.00    +0.000 A 
ATOM     11  C   UNL     1      45.473   5.018  10.022  0.00  0.00    +0.000 A 
ATOM     12  C   UNL     1      45.530   4.630   8.689  0.00  0.00    +0.000 A 
ATOM     13  C   UNL     1      44.993   3.404   8.315  0.00  0.00    +0.000 A 
ATOM     14  C   UNL     1      44.427   2.609   9.297  0.00  0.00    +0.000 A 
ATOM     15  N   UNL     1      44.361   2.957  10.600  0.00  0.00    +0.000 NA
ENDBRANCH   9  10
ENDBRANCH   8   9
ENDBRANCH   5   8
ENDBRANCH   1   2
BRANCH   1  16
ATOM     16  N   UNL     1      50.569   5.723  16.658  0.00  0.00    +0.000 N 
ATOM     17  C   UNL     1      50.680   5.437  17.994  0.00  0.00    +0.000 C 
ATOM     18  O   UNL     1      49.927   5.958  18.819  0.00  0.00    +0.000 OA
ATOM     19  H   UNL     1      51.228   5.335  15.986  0.00  0.00    +0.000 HD
BRANCH  17  20
ATOM     20  C   UNL     1      51.731   4.503  18.415  0.00  0.00    +0.000 A 
ATOM     21  C   UNL     1      52.753   4.964  19.238  0.00  0.00    +0.000 A 
ATOM     22  S   UNL     1      53.907   3.774  19.636  0.00  0.00    +0.000 S 
ATOM     23  C   UNL     1      53.093   2.599  18.714  0.00  0.00    +0.000 A 
ATOM     24  N   UNL     1      53.582   1.335  18.614  0.00  0.00    +0.000 NA
ATOM     25  C   UNL     1      52.876   0.544  17.878  0.00  0.00    +0.000 A 
ATOM     26  N   UNL     1      51.721   0.905  17.235  0.00  0.00    +0.000 N 
ATOM     27  C   UNL     1      51.186   2.168  17.309  0.00  0.00    +0.000 A 
ATOM     28  O   UNL     1      50.149   2.451  16.721  0.00  0.00    +0.000 OA
ATOM     29  C   UNL     1      51.946   3.101  18.121  0.00  0.00    +0.000 A 
ATOM     30  H   UNL     1      51.210   0.236  16.676  0.00  0.00    +0.000 HD
ENDBRANCH  17  20
ENDBRANCH   1  16
BRANCH   1  31
ATOM     31  C   UNL     1      50.347   7.792  15.282  0.00  0.00    +0.000 C 
BRANCH  31  32
ATOM     32  N   UNL     1      51.688   7.404  14.822  0.00  0.00    +0.000 NA
ATOM     33  H   UNL     1      52.287   7.242  15.631  0.00  0.00    +0.000 HD
ATOM     34  H   UNL     1      52.105   8.178  14.307  0.00  0.00    +0.000 HD
ENDBRANCH  31  32
ENDBRANCH   1  31
TORSDOF 8
ENDMDL
