MODEL 1
REMARK VINA RESULT:    -8.716      0.000      0.000
REMARK INTER + INTRA:         -14.607
REMARK INTER:                 -12.793
REMARK INTRA:                  -1.814
REMARK UNBOUND:                -1.814
REMARK  Name = 
REMARK  10 active torsions:
REMARK  status: ('A' for Active; 'I' for Inactive)
REMARK    1  A    between atoms: C_1  and  O_2
REMARK    2  A    between atoms: O_2  and  C_3
REMARK    3  A    between atoms: C_10  and  C_11
REMARK    4  A    between atoms: N_13  and  C_14
REMARK    5  A    between atoms: C_14  and  C_15
REMARK    6  A    between atoms: C_18  and  C_19
REMARK    7  A    between atoms: C_19  and  N_20
REMARK    8  A    between atoms: N_20  and  C_21
REMARK    9  A    between atoms: C_21  and  C_22
REMARK   10  A    between atoms: C_21  and  C_23
REMARK                            x       y       z     vdW  Elec       q    Type
REMARK                         _______ _______ _______ _____ _____    ______ ____
ROOT
ATOM      1  C   UNL     1      46.384   7.431  12.486  0.00  0.00    +0.000 A 
ATOM      2  C   UNL     1      45.030   7.382  12.849  0.00  0.00    +0.000 A 
ATOM      3  C   UNL     1      44.122   6.593  12.128  0.00  0.00    +0.000 A 
ATOM      4  C   UNL     1      44.549   5.839  11.026  0.00  0.00    +0.000 A 
ATOM      5  C   UNL     1      45.905   5.893  10.670  0.00  0.00    +0.000 A 
ATOM      6  C   UNL     1      46.811   6.677  11.388  0.00  0.00    +0.000 A 
ENDROOT
BRANCH   1   7
ATOM      7  C   UNL     1      47.383   8.205  13.308  0.00  0.00    +0.000 C 
BRANCH   7  10
ATOM      8  C   UNL     1      48.881   6.910  14.771  0.00  0.00    +0.000 C 
ATOM      9  O   UNL     1      49.783   6.956  13.937  0.00  0.00    +0.000 OA
ATOM     10  N   UNL     1      47.674   7.510  14.541  0.00  0.00    +0.000 N 
ATOM     11  H   UNL     1      46.959   7.507  15.255  0.00  0.00    +0.000 HD
BRANCH   8  19
ATOM     12  C   UNL     1      47.264   4.223  16.209  0.00  0.00    +0.000 A 
ATOM     13  N   UNL     1      46.880   3.160  16.947  0.00  0.00    +0.000 NA
ATOM     14  C   UNL     1      47.550   2.900  18.074  0.00  0.00    +0.000 A 
ATOM     15  N   UNL     1      48.568   3.594  18.575  0.00  0.00    +0.000 NA
ATOM     16  C   UNL     1      48.924   4.636  17.807  0.00  0.00    +0.000 A 
ATOM     17  S   UNL     1      50.197   5.641  18.307  0.00  0.00    +0.000 S 
ATOM     18  C   UNL     1      50.049   6.600  16.913  0.00  0.00    +0.000 A 
ATOM     19  C   UNL     1      49.049   6.180  16.041  0.00  0.00    +0.000 A 
ATOM     20  C   UNL     1      48.350   5.026  16.600  0.00  0.00    +0.000 A 
BRANCH  12  22
ATOM     21  C   UNL     1      46.969   3.791  13.915  0.00  0.00    +0.000 C 
ATOM     22  O   UNL     1      46.552   4.521  15.065  0.00  0.00    +0.000 OA
ENDBRANCH  12  22
ENDBRANCH   8  19
ENDBRANCH   7  10
ENDBRANCH   1   7
BRANCH   4  23
ATOM     23  C   UNL     1      43.648   4.866  10.290  0.00  0.00    +0.000 C 
BRANCH  23  24
ATOM     24  N   UNL     1      44.150   4.448   8.980  0.00  0.00    +0.000 NA
ATOM     25  H   UNL     1      45.023   4.944   8.803  0.00  0.00    +0.000 HD
BRANCH  24  26
ATOM     26  C   UNL     1      44.401   2.997   8.870  0.00  0.00    +0.000 C 
ATOM     27  C   UNL     1      44.383   2.300  10.242  0.00  0.00    +0.000 C 
BRANCH  26  28
ATOM     28  C   UNL     1      45.613   2.640   8.012  0.00  0.00    +0.000 A 
ATOM     29  C   UNL     1      46.191   1.363   8.122  0.00  0.00    +0.000 A 
ATOM     30  C   UNL     1      47.325   1.022   7.378  0.00  0.00    +0.000 A 
ATOM     31  C   UNL     1      47.894   1.946   6.505  0.00  0.00    +0.000 A 
ATOM     32  C   UNL     1      47.322   3.206   6.365  0.00  0.00    +0.000 A 
ATOM     33  C   UNL     1      46.188   3.548   7.108  0.00  0.00    +0.000 A 
ENDBRANCH  26  28
ENDBRANCH  24  26
ENDBRANCH  23  24
ENDBRANCH   4  23
TORSDOF 8
ENDMDL
MODEL 2
REMARK VINA RESULT:    -7.600      1.716      2.049
REMARK INTER + INTRA:         -12.968
REMARK INTER:                 -11.720
REMARK INTRA:                  -1.248
REMARK UNBOUND:                -1.814
REMARK  Name = 
REMARK  10 active torsions:
REMARK  status: ('A' for Active; 'I' for Inactive)
REMARK    1  A    between atoms: C_1  and  O_2
REMARK    2  A    between atoms: O_2  and  C_3
REMARK    3  A    between atoms: C_10  and  C_11
REMARK    4  A    between atoms: N_13  and  C_14
REMARK    5  A    between atoms: C_14  and  C_15
REMARK    6  A    between atoms: C_18  and  C_19
REMARK    7  A    between atoms: C_19  and  N_20
REMARK    8  A    between atoms: N_20  and  C_21
REMARK    9  A    between atoms: C_21  and  C_22
REMARK   10  A    between atoms: C_21  and  C_23
REMARK                            x       y       z     vdW  Elec       q    Type
REMARK                         _______ _______ _______ _____ _____    ______ ____
ROOT
ATOM      1  C   UNL     1      47.460   7.266  13.626  0.00  0.00    +0.000 A 
ATOM      2  C   UNL     1      47.377   5.867  13.555  0.00  0.00    +0.000 A 
ATOM      3  C   UNL     1      46.414   5.246  12.747  0.00  0.00    +0.000 A 
ATOM      4  C   UNL     1      45.511   6.010  11.996  0.00  0.00    +0.000 A 
ATOM      5  C   UNL     1      45.600   7.408  12.071  0.00  0.00    +0.000 A 
ATOM      6  C   UNL     1      46.560   8.029  12.874  0.00  0.00    +0.000 A 
ENDROOT
BRANCH   1   7
ATOM      7  C   UNL     1      48.548   7.942  14.421  0.00  0.00    +0.000 C 
BRANCH   7  10
ATOM      8  C   UNL     1      49.388   6.836  16.453  0.00  0.00    +0.000 C 
ATOM      9  O   UNL     1      48.677   7.542  17.166  0.00  0.00    +0.000 OA
ATOM     10  N   UNL     1      49.372   6.964  15.092  0.00  0.00    +0.000 N 
ATOM     11  H   UNL     1      49.924   6.344  14.515  0.00  0.00    +0.000 HD
BRANCH   8  19
ATOM     12  C   UNL     1      49.374   3.391  16.636  0.00  0.00    +0.000 A 
ATOM     13  N   UNL     1      49.664   2.081  16.771  0.00  0.00    +0.000 NA
ATOM     14  C   UNL     1      50.824   1.747  17.344  0.00  0.00    +0.000 A 
ATOM     15  N   UNL     1      51.745   2.578  17.825  0.00  0.00    +0.000 NA
ATOM     16  C   UNL     1      51.422   3.872  17.663  0.00  0.00    +0.000 A 
ATOM     17  S   UNL     1      52.479   5.071  18.235  0.00  0.00    +0.000 S 
ATOM     18  C   UNL     1      51.458   6.305  17.671  0.00  0.00    +0.000 A 
ATOM     19  C   UNL     1      50.310   5.843  17.034  0.00  0.00    +0.000 A 
ATOM     20  C   UNL     1      50.273   4.383  17.067  0.00  0.00    +0.000 A 
BRANCH  12  22
ATOM     21  C   UNL     1      47.112   3.904  17.032  0.00  0.00    +0.000 C 
ATOM     22  O   UNL     1      48.161   3.743  16.081  0.00  0.00    +0.000 OA
ENDBRANCH  12  22
ENDBRANCH   8  19
ENDBRANCH   7  10
ENDBRANCH   1   7
BRANCH   4  23
ATOM     23  C   UNL     1      44.538   5.402  11.004  0.00  0.00    +0.000 C 
BRANCH  23  24
ATOM     24  N   UNL     1      45.136   5.031   9.720  0.00  0.00    +0.000 NA
ATOM     25  H   UNL     1      46.146   4.976   9.846  0.00  0.00    +0.000 HD
BRANCH  24  26
ATOM     26  C   UNL     1      44.656   3.740   9.187  0.00  0.00    +0.000 C 
ATOM     27  C   UNL     1      44.063   2.843  10.287  0.00  0.00    +0.000 C 
BRANCH  26  28
ATOM     28  C   UNL     1      45.662   3.028   8.286  0.00  0.00    +0.000 A 
ATOM     29  C   UNL     1      45.894   1.652   8.453  0.00  0.00    +0.000 A 
ATOM     30  C   UNL     1      46.839   0.982   7.669  0.00  0.00    +0.000 A 
ATOM     31  C   UNL     1      47.559   1.673   6.699  0.00  0.00    +0.000 A 
ATOM     32  C   UNL     1      47.327   3.030   6.502  0.00  0.00    +0.000 A 
ATOM     33  C   UNL     1      46.383   3.700   7.285  0.00  0.00    +0.000 A 
ENDBRANCH  26  28
ENDBRANCH  24  26
ENDBRANCH  23  24
ENDBRANCH   4  23
TORSDOF 8
ENDMDL
MODEL 3
REMARK VINA RESULT:    -7.378      2.297      2.724
REMARK INTER + INTRA:         -12.642
REMARK INTER:                 -11.453
REMARK INTRA:                  -1.188
REMARK UNBOUND:                -1.814
REMARK  Name = 
REMARK  10 active torsions:
REMARK  status: ('A' for Active; 'I' for Inactive)
REMARK    1  A    between atoms: C_1  and  O_2
REMARK    2  A    between atoms: O_2  and  C_3
REMARK    3  A    between atoms: C_10  and  C_11
REMARK    4  A    between atoms: N_13  and  C_14
REMARK    5  A    between atoms: C_14  and  C_15
REMARK    6  A    between atoms: C_18  and  C_19
REMARK    7  A    between atoms: C_19  and  N_20
REMARK    8  A    between atoms: N_20  and  C_21
REMARK    9  A    between atoms: C_21  and  C_22
REMARK   10  A    between atoms: C_21  and  C_23
REMARK                            x       y       z     vdW  Elec       q    Type
REMARK                         _______ _______ _______ _____ _____    ______ ____
ROOT
ATOM      1  C   UNL     1      46.914   8.163  13.106  0.00  0.00    +0.000 A 
ATOM      2  C   UNL     1      45.855   8.700  12.359  0.00  0.00    +0.000 A 
ATOM      3  C   UNL     1      44.911   7.863  11.748  0.00  0.00    +0.000 A 
ATOM      4  C   UNL     1      45.006   6.470  11.869  0.00  0.00    +0.000 A 
ATOM      5  C   UNL     1      46.066   5.940  12.619  0.00  0.00    +0.000 A 
ATOM      6  C   UNL     1      47.008   6.772  13.229  0.00  0.00    +0.000 A 
ENDROOT
BRANCH   1   7
ATOM      7  C   UNL     1      47.881   9.055  13.840  0.00  0.00    +0.000 C 
BRANCH   7  10
ATOM      8  C   UNL     1      48.533   8.717  16.190  0.00  0.00    +0.000 C 
ATOM      9  O   UNL     1      49.675   8.404  15.858  0.00  0.00    +0.000 OA
ATOM     10  N   UNL     1      47.596   9.062  15.256  0.00  0.00    +0.000 N 
ATOM     11  H   UNL     1      46.676   9.365  15.545  0.00  0.00    +0.000 HD
BRANCH   8  19
ATOM     12  C   UNL     1      48.069   6.211  18.515  0.00  0.00    +0.000 A 
ATOM     13  N   UNL     1      47.902   5.461  19.624  0.00  0.00    +0.000 NA
ATOM     14  C   UNL     1      47.604   6.084  20.768  0.00  0.00    +0.000 A 
ATOM     15  N   UNL     1      47.433   7.391  20.944  0.00  0.00    +0.000 NA
ATOM     16  C   UNL     1      47.618   8.102  19.819  0.00  0.00    +0.000 A 
ATOM     17  S   UNL     1      47.421   9.787  19.858  0.00  0.00    +0.000 S 
ATOM     18  C   UNL     1      47.818   9.919  18.213  0.00  0.00    +0.000 A 
ATOM     19  C   UNL     1      48.115   8.704  17.603  0.00  0.00    +0.000 A 
ATOM     20  C   UNL     1      47.954   7.612  18.561  0.00  0.00    +0.000 A 
BRANCH  12  22
ATOM     21  C   UNL     1      47.466   4.480  17.039  0.00  0.00    +0.000 C 
ATOM     22  O   UNL     1      48.338   5.571  17.323  0.00  0.00    +0.000 OA
ENDBRANCH  12  22
ENDBRANCH   8  19
ENDBRANCH   7  10
ENDBRANCH   1   7
BRANCH   4  23
ATOM     23  C   UNL     1      43.945   5.520  11.348  0.00  0.00    +0.000 C 
BRANCH  23  24
ATOM     24  N   UNL     1      44.118   5.128   9.949  0.00  0.00    +0.000 NA
ATOM     25  H   UNL     1      45.030   5.460   9.638  0.00  0.00    +0.000 HD
BRANCH  24  26
ATOM     26  C   UNL     1      44.043   3.671   9.721  0.00  0.00    +0.000 C 
ATOM     27  C   UNL     1      43.870   2.888  11.034  0.00  0.00    +0.000 C 
BRANCH  26  28
ATOM     28  C   UNL     1      45.146   3.126   8.818  0.00  0.00    +0.000 A 
ATOM     29  C   UNL     1      45.844   4.001   7.967  0.00  0.00    +0.000 A 
ATOM     30  C   UNL     1      46.832   3.523   7.100  0.00  0.00    +0.000 A 
ATOM     31  C   UNL     1      47.146   2.167   7.075  0.00  0.00    +0.000 A 
ATOM     32  C   UNL     1      46.484   1.289   7.927  0.00  0.00    +0.000 A 
ATOM     33  C   UNL     1      45.496   1.765   8.794  0.00  0.00    +0.000 A 
ENDBRANCH  26  28
ENDBRANCH  24  26
ENDBRANCH  23  24
ENDBRANCH   4  23
TORSDOF 8
ENDMDL
MODEL 4
REMARK VINA RESULT:    -7.199      2.529      3.840
REMARK INTER + INTRA:         -12.379
REMARK INTER:                 -11.244
REMARK INTRA:                  -1.135
REMARK UNBOUND:                -1.814
REMARK  Name = 
REMARK  10 active torsions:
REMARK  status: ('A' for Active; 'I' for Inactive)
REMARK    1  A    between atoms: C_1  and  O_2
REMARK    2  A    between atoms: O_2  and  C_3
REMARK    3  A    between atoms: C_10  and  C_11
REMARK    4  A    between atoms: N_13  and  C_14
REMARK    5  A    between atoms: C_14  and  C_15
REMARK    6  A    between atoms: C_18  and  C_19
REMARK    7  A    between atoms: C_19  and  N_20
REMARK    8  A    between atoms: N_20  and  C_21
REMARK    9  A    between atoms: C_21  and  C_22
REMARK   10  A    between atoms: C_21  and  C_23
REMARK                            x       y       z     vdW  Elec       q    Type
REMARK                         _______ _______ _______ _____ _____    ______ ____
ROOT
ATOM      1  C   UNL     1      47.082   4.695  14.323  0.00  0.00    +0.000 A 
ATOM      2  C   UNL     1      47.415   5.944  13.779  0.00  0.00    +0.000 A 
ATOM      3  C   UNL     1      46.865   6.366  12.560  0.00  0.00    +0.000 A 
ATOM      4  C   UNL     1      45.972   5.546  11.857  0.00  0.00    +0.000 A 
ATOM      5  C   UNL     1      45.642   4.298  12.408  0.00  0.00    +0.000 A 
ATOM      6  C   UNL     1      46.188   3.877  13.623  0.00  0.00    +0.000 A 
ENDROOT
BRANCH   1   7
ATOM      7  C   UNL     1      47.598   4.271  15.674  0.00  0.00    +0.000 C 
BRANCH   7  10
ATOM      8  C   UNL     1      48.258   5.386  17.767  0.00  0.00    +0.000 C 
ATOM      9  O   UNL     1      49.037   4.475  18.041  0.00  0.00    +0.000 OA
ATOM     10  N   UNL     1      47.523   5.365  16.614  0.00  0.00    +0.000 N 
ATOM     11  H   UNL     1      46.924   6.144  16.377  0.00  0.00    +0.000 HD
BRANCH   8  19
ATOM     12  C   UNL     1      48.151   8.806  17.326  0.00  0.00    +0.000 A 
ATOM     13  N   UNL     1      47.977  10.140  17.427  0.00  0.00    +0.000 NA
ATOM     14  C   UNL     1      47.674  10.647  18.626  0.00  0.00    +0.000 A 
ATOM     15  N   UNL     1      47.535   9.974  19.765  0.00  0.00    +0.000 NA
ATOM     16  C   UNL     1      47.707   8.650  19.619  0.00  0.00    +0.000 A 
ATOM     17  S   UNL     1      47.582   7.640  20.977  0.00  0.00    +0.000 S 
ATOM     18  C   UNL     1      47.872   6.258  20.034  0.00  0.00    +0.000 A 
ATOM     19  C   UNL     1      48.060   6.525  18.682  0.00  0.00    +0.000 A 
ATOM     20  C   UNL     1      47.999   7.965  18.443  0.00  0.00    +0.000 A 
BRANCH  12  22
ATOM     21  C   UNL     1      49.693   8.838  15.548  0.00  0.00    +0.000 C 
ATOM     22  O   UNL     1      48.503   8.280  16.100  0.00  0.00    +0.000 OA
ENDBRANCH  12  22
ENDBRANCH   8  19
ENDBRANCH   7  10
ENDBRANCH   1   7
BRANCH   4  23
ATOM     23  C   UNL     1      45.241   5.998  10.608  0.00  0.00    +0.000 C 
BRANCH  23  24
ATOM     24  N   UNL     1      45.817   5.502   9.357  0.00  0.00    +0.000 NA
ATOM     25  H   UNL     1      46.750   5.145   9.558  0.00  0.00    +0.000 HD
BRANCH  24  26
ATOM     26  C   UNL     1      45.029   4.428   8.719  0.00  0.00    +0.000 C 
ATOM     27  C   UNL     1      43.890   3.930   9.624  0.00  0.00    +0.000 C 
BRANCH  26  28
ATOM     28  C   UNL     1      45.876   3.309   8.119  0.00  0.00    +0.000 A 
ATOM     29  C   UNL     1      46.831   3.612   7.133  0.00  0.00    +0.000 A 
ATOM     30  C   UNL     1      47.593   2.602   6.537  0.00  0.00    +0.000 A 
ATOM     31  C   UNL     1      47.421   1.275   6.923  0.00  0.00    +0.000 A 
ATOM     32  C   UNL     1      46.498   0.958   7.914  0.00  0.00    +0.000 A 
ATOM     33  C   UNL     1      45.736   1.967   8.510  0.00  0.00    +0.000 A 
ENDBRANCH  26  28
ENDBRANCH  24  26
ENDBRANCH  23  24
ENDBRANCH   4  23
TORSDOF 8
ENDMDL
MODEL 5
REMARK VINA RESULT:    -6.898      3.214      7.773
REMARK INTER + INTRA:         -11.939
REMARK INTER:                  -9.929
REMARK INTRA:                  -2.010
REMARK UNBOUND:                -1.814
REMARK  Name = 
REMARK  10 active torsions:
REMARK  status: ('A' for Active; 'I' for Inactive)
REMARK    1  A    between atoms: C_1  and  O_2
REMARK    2  A    between atoms: O_2  and  C_3
REMARK    3  A    between atoms: C_10  and  C_11
REMARK    4  A    between atoms: N_13  and  C_14
REMARK    5  A    between atoms: C_14  and  C_15
REMARK    6  A    between atoms: C_18  and  C_19
REMARK    7  A    between atoms: C_19  and  N_20
REMARK    8  A    between atoms: N_20  and  C_21
REMARK    9  A    between atoms: C_21  and  C_22
REMARK   10  A    between atoms: C_21  and  C_23
REMARK                            x       y       z     vdW  Elec       q    Type
REMARK                         _______ _______ _______ _____ _____    ______ ____
ROOT
ATOM      1  C   UNL     1      48.557   7.999  13.412  0.00  0.00    +0.000 A 
ATOM      2  C   UNL     1      49.221   6.897  13.969  0.00  0.00    +0.000 A 
ATOM      3  C   UNL     1      49.287   6.727  15.360  0.00  0.00    +0.000 A 
ATOM      4  C   UNL     1      48.692   7.658  16.222  0.00  0.00    +0.000 A 
ATOM      5  C   UNL     1      48.028   8.757  15.657  0.00  0.00    +0.000 A 
ATOM      6  C   UNL     1      47.961   8.928  14.273  0.00  0.00    +0.000 A 
ENDROOT
BRANCH   1   7
ATOM      7  C   UNL     1      48.404   8.144  11.919  0.00  0.00    +0.000 C 
BRANCH   7  10
ATOM      8  C   UNL     1      46.327   6.972  11.308  0.00  0.00    +0.000 C 
ATOM      9  O   UNL     1      45.644   7.915  11.705  0.00  0.00    +0.000 OA
ATOM     10  N   UNL     1      47.692   7.014  11.368  0.00  0.00    +0.000 N 
ATOM     11  H   UNL     1      48.242   6.253  10.994  0.00  0.00    +0.000 HD
BRANCH   8  19
ATOM     12  C   UNL     1      44.569   4.378  12.751  0.00  0.00    +0.000 A 
ATOM     13  N   UNL     1      43.795   3.308  13.028  0.00  0.00    +0.000 NA
ATOM     14  C   UNL     1      43.407   2.530  12.013  0.00  0.00    +0.000 A 
ATOM     15  N   UNL     1      43.717   2.681  10.728  0.00  0.00    +0.000 NA
ATOM     16  C   UNL     1      44.480   3.760  10.494  0.00  0.00    +0.000 A 
ATOM     17  S   UNL     1      44.984   4.095   8.908  0.00  0.00    +0.000 S 
ATOM     18  C   UNL     1      45.800   5.496   9.413  0.00  0.00    +0.000 A 
ATOM     19  C   UNL     1      45.704   5.745  10.778  0.00  0.00    +0.000 A 
ATOM     20  C   UNL     1      44.945   4.681  11.429  0.00  0.00    +0.000 A 
BRANCH  12  22
ATOM     21  C   UNL     1      46.301   4.819  14.281  0.00  0.00    +0.000 C 
ATOM     22  O   UNL     1      45.006   5.163  13.797  0.00  0.00    +0.000 OA
ENDBRANCH  12  22
ENDBRANCH   8  19
ENDBRANCH   7  10
ENDBRANCH   1   7
BRANCH   4  23
ATOM     23  C   UNL     1      48.612   7.461  17.724  0.00  0.00    +0.000 C 
BRANCH  23  24
ATOM     24  N   UNL     1      47.478   6.648  18.168  0.00  0.00    +0.000 NA
ATOM     25  H   UNL     1      46.986   6.314  17.341  0.00  0.00    +0.000 HD
BRANCH  24  26
ATOM     26  C   UNL     1      47.862   5.484  18.992  0.00  0.00    +0.000 C 
ATOM     27  C   UNL     1      48.623   5.900  20.263  0.00  0.00    +0.000 C 
BRANCH  26  28
ATOM     28  C   UNL     1      48.538   4.363  18.206  0.00  0.00    +0.000 A 
ATOM     29  C   UNL     1      47.769   3.546  17.360  0.00  0.00    +0.000 A 
ATOM     30  C   UNL     1      48.354   2.486  16.659  0.00  0.00    +0.000 A 
ATOM     31  C   UNL     1      49.717   2.233  16.783  0.00  0.00    +0.000 A 
ATOM     32  C   UNL     1      50.500   3.045  17.597  0.00  0.00    +0.000 A 
ATOM     33  C   UNL     1      49.916   4.105  18.299  0.00  0.00    +0.000 A 
ENDBRANCH  26  28
ENDBRANCH  24  26
ENDBRANCH  23  24
ENDBRANCH   4  23
TORSDOF 8
ENDMDL
MODEL 6
REMARK VINA RESULT:    -6.805      2.781      3.731
REMARK INTER + INTRA:         -11.802
REMARK INTER:                 -10.700
REMARK INTRA:                  -1.102
REMARK UNBOUND:                -1.814
REMARK  Name = 
REMARK  10 active torsions:
REMARK  status: ('A' for Active; 'I' for Inactive)
REMARK    1  A    between atoms: C_1  and  O_2
REMARK    2  A    between atoms: O_2  and  C_3
REMARK    3  A    between atoms: C_10  and  C_11
REMARK    4  A    between atoms: N_13  and  C_14
REMARK    5  A    between atoms: C_14  and  C_15
REMARK    6  A    between atoms: C_18  and  C_19
REMARK    7  A    between atoms: C_19  and  N_20
REMARK    8  A    between atoms: N_20  and  C_21
REMARK    9  A    between atoms: C_21  and  C_22
REMARK   10  A    between atoms: C_21  and  C_23
REMARK                            x       y       z     vdW  Elec       q    Type
REMARK                         _______ _______ _______ _____ _____    ______ ____
ROOT
ATOM      1  C   UNL     1      47.267   5.257  14.356  0.00  0.00    +0.000 A 
ATOM      2  C   UNL     1      47.351   6.475  13.666  0.00  0.00    +0.000 A 
ATOM      3  C   UNL     1      46.686   6.654  12.444  0.00  0.00    +0.000 A 
ATOM      4  C   UNL     1      45.926   5.617  11.885  0.00  0.00    +0.000 A 
ATOM      5  C   UNL     1      45.846   4.402  12.582  0.00  0.00    +0.000 A 
ATOM      6  C   UNL     1      46.507   4.222  13.800  0.00  0.00    +0.000 A 
ENDROOT
BRANCH   1   7
ATOM      7  C   UNL     1      47.904   5.085  15.711  0.00  0.00    +0.000 C 
BRANCH   7  10
ATOM      8  C   UNL     1      49.432   6.871  16.443  0.00  0.00    +0.000 C 
ATOM      9  O   UNL     1      50.405   6.252  16.019  0.00  0.00    +0.000 OA
ATOM     10  N   UNL     1      48.166   6.369  16.318  0.00  0.00    +0.000 N 
ATOM     11  H   UNL     1      47.370   6.910  16.627  0.00  0.00    +0.000 HD
BRANCH   8  19
ATOM     12  C   UNL     1      48.522   8.040  19.559  0.00  0.00    +0.000 A 
ATOM     13  N   UNL     1      48.369   8.716  20.716  0.00  0.00    +0.000 NA
ATOM     14  C   UNL     1      48.868   9.954  20.794  0.00  0.00    +0.000 A 
ATOM     15  N   UNL     1      49.500  10.621  19.834  0.00  0.00    +0.000 NA
ATOM     16  C   UNL     1      49.640   9.911  18.703  0.00  0.00    +0.000 A 
ATOM     17  S   UNL     1      50.410  10.617  17.366  0.00  0.00    +0.000 S 
ATOM     18  C   UNL     1      50.223   9.200  16.449  0.00  0.00    +0.000 A 
ATOM     19  C   UNL     1      49.587   8.166  17.130  0.00  0.00    +0.000 A 
ATOM     20  C   UNL     1      49.204   8.610  18.468  0.00  0.00    +0.000 A 
BRANCH  12  22
ATOM     21  C   UNL     1      47.340   6.322  20.649  0.00  0.00    +0.000 C 
ATOM     22  O   UNL     1      47.976   6.778  19.457  0.00  0.00    +0.000 OA
ENDBRANCH  12  22
ENDBRANCH   8  19
ENDBRANCH   7  10
ENDBRANCH   1   7
BRANCH   4  23
ATOM     23  C   UNL     1      45.078   5.791  10.640  0.00  0.00    +0.000 C 
BRANCH  23  24
ATOM     24  N   UNL     1      45.687   5.272   9.415  0.00  0.00    +0.000 NA
ATOM     25  H   UNL     1      46.631   4.961   9.639  0.00  0.00    +0.000 HD
BRANCH  24  26
ATOM     26  C   UNL     1      44.949   4.145   8.810  0.00  0.00    +0.000 C 
ATOM     27  C   UNL     1      44.019   3.453   9.820  0.00  0.00    +0.000 C 
BRANCH  26  28
ATOM     28  C   UNL     1      45.829   3.180   8.019  0.00  0.00    +0.000 A 
ATOM     29  C   UNL     1      45.924   1.837   8.421  0.00  0.00    +0.000 A 
ATOM     30  C   UNL     1      46.753   0.940   7.740  0.00  0.00    +0.000 A 
ATOM     31  C   UNL     1      47.494   1.367   6.641  0.00  0.00    +0.000 A 
ATOM     32  C   UNL     1      47.395   2.687   6.213  0.00  0.00    +0.000 A 
ATOM     33  C   UNL     1      46.566   3.584   6.894  0.00  0.00    +0.000 A 
ENDBRANCH  26  28
ENDBRANCH  24  26
ENDBRANCH  23  24
ENDBRANCH   4  23
TORSDOF 8
ENDMDL
MODEL 7
REMARK VINA RESULT:    -6.795      3.069      5.080
REMARK INTER + INTRA:         -11.786
REMARK INTER:                 -10.245
REMARK INTRA:                  -1.541
REMARK UNBOUND:                -1.814
REMARK  Name = 
REMARK  10 active torsions:
REMARK  status: ('A' for Active; 'I' for Inactive)
REMARK    1  A    between atoms: C_1  and  O_2
REMARK    2  A    between atoms: O_2  and  C_3
REMARK    3  A    between atoms: C_10  and  C_11
REMARK    4  A    between atoms: N_13  and  C_14
REMARK    5  A    between atoms: C_14  and  C_15
REMARK    6  A    between atoms: C_18  and  C_19
REMARK    7  A    between atoms: C_19  and  N_20
REMARK    8  A    between atoms: N_20  and  C_21
REMARK    9  A    between atoms: C_21  and  C_22
REMARK   10  A    between atoms: C_21  and  C_23
REMARK                            x       y       z     vdW  Elec       q    Type
REMARK                         _______ _______ _______ _____ _____    ______ ____
ROOT
ATOM      1  C   UNL     1      47.677   4.220  16.013  0.00  0.00    +0.000 A 
ATOM      2  C   UNL     1      48.280   5.486  16.029  0.00  0.00    +0.000 A 
ATOM      3  C   UNL     1      48.103   6.380  14.963  0.00  0.00    +0.000 A 
ATOM      4  C   UNL     1      47.321   6.024  13.855  0.00  0.00    +0.000 A 
ATOM      5  C   UNL     1      46.719   4.756  13.847  0.00  0.00    +0.000 A 
ATOM      6  C   UNL     1      46.894   3.866  14.908  0.00  0.00    +0.000 A 
ENDROOT
BRANCH   1   7
ATOM      7  C   UNL     1      47.788   3.289  17.192  0.00  0.00    +0.000 C 
BRANCH   7  10
ATOM      8  C   UNL     1      50.029   2.301  16.941  0.00  0.00    +0.000 C 
ATOM      9  O   UNL     1      49.665   1.653  15.961  0.00  0.00    +0.000 OA
ATOM     10  N   UNL     1      49.168   3.138  17.594  0.00  0.00    +0.000 N 
ATOM     11  H   UNL     1      49.493   3.702  18.367  0.00  0.00    +0.000 HD
BRANCH   8  19
ATOM     12  C   UNL     1      52.263   4.552  18.298  0.00  0.00    +0.000 A 
ATOM     13  N   UNL     1      53.275   5.182  18.932  0.00  0.00    +0.000 NA
ATOM     14  C   UNL     1      54.328   4.454  19.316  0.00  0.00    +0.000 A 
ATOM     15  N   UNL     1      54.509   3.150  19.127  0.00  0.00    +0.000 NA
ATOM     16  C   UNL     1      53.477   2.561  18.501  0.00  0.00    +0.000 A 
ATOM     17  S   UNL     1      53.548   0.899  18.163  0.00  0.00    +0.000 S 
ATOM     18  C   UNL     1      52.003   0.928  17.460  0.00  0.00    +0.000 A 
ATOM     19  C   UNL     1      51.399   2.182  17.473  0.00  0.00    +0.000 A 
ATOM     20  C   UNL     1      52.303   3.166  18.062  0.00  0.00    +0.000 A 
BRANCH  12  22
ATOM     21  C   UNL     1      50.568   6.073  18.889  0.00  0.00    +0.000 C 
ATOM     22  O   UNL     1      51.191   5.303  17.864  0.00  0.00    +0.000 OA
ENDBRANCH  12  22
ENDBRANCH   8  19
ENDBRANCH   7  10
ENDBRANCH   1   7
BRANCH   4  23
ATOM     23  C   UNL     1      46.981   6.991  12.738  0.00  0.00    +0.000 C 
BRANCH  23  24
ATOM     24  N   UNL     1      46.953   6.389  11.404  0.00  0.00    +0.000 NA
ATOM     25  H   UNL     1      47.313   5.438  11.479  0.00  0.00    +0.000 HD
BRANCH  24  26
ATOM     26  C   UNL     1      45.608   6.338  10.797  0.00  0.00    +0.000 C 
ATOM     27  C   UNL     1      44.527   6.898  11.738  0.00  0.00    +0.000 C 
BRANCH  26  28
ATOM     28  C   UNL     1      45.253   4.985  10.186  0.00  0.00    +0.000 A 
ATOM     29  C   UNL     1      45.629   4.700   8.862  0.00  0.00    +0.000 A 
ATOM     30  C   UNL     1      45.283   3.485   8.262  0.00  0.00    +0.000 A 
ATOM     31  C   UNL     1      44.566   2.530   8.979  0.00  0.00    +0.000 A 
ATOM     32  C   UNL     1      44.206   2.783  10.298  0.00  0.00    +0.000 A 
ATOM     33  C   UNL     1      44.551   3.998  10.898  0.00  0.00    +0.000 A 
ENDBRANCH  26  28
ENDBRANCH  24  26
ENDBRANCH  23  24
ENDBRANCH   4  23
TORSDOF 8
ENDMDL
MODEL 8
REMARK VINA RESULT:    -6.660      3.579      8.900
REMARK INTER + INTRA:         -11.589
REMARK INTER:                  -9.152
REMARK INTRA:                  -2.437
REMARK UNBOUND:                -1.814
REMARK  Name = 
REMARK  10 active torsions:
REMARK  status: ('A' for Active; 'I' for Inactive)
REMARK    1  A    between atoms: C_1  and  O_2
REMARK    2  A    between atoms: O_2  and  C_3
REMARK    3  A    between atoms: C_10  and  C_11
REMARK    4  A    between atoms: N_13  and  C_14
REMARK    5  A    between atoms: C_14  and  C_15
REMARK    6  A    between atoms: C_18  and  C_19
REMARK    7  A    between atoms: C_19  and  N_20
REMARK    8  A    between atoms: N_20  and  C_21
REMARK    9  A    between atoms: C_21  and  C_22
REMARK   10  A    between atoms: C_21  and  C_23
REMARK                            x       y       z     vdW  Elec       q    Type
REMARK                         _______ _______ _______ _____ _____    ______ ____
ROOT
ATOM      1  C   UNL     1      47.813   4.302  17.939  0.00  0.00    +0.000 A 
ATOM      2  C   UNL     1      47.093   5.328  18.567  0.00  0.00    +0.000 A 
ATOM      3  C   UNL     1      47.656   6.055  19.626  0.00  0.00    +0.000 A 
ATOM      4  C   UNL     1      48.950   5.769  20.081  0.00  0.00    +0.000 A 
ATOM      5  C   UNL     1      49.665   4.742  19.446  0.00  0.00    +0.000 A 
ATOM      6  C   UNL     1      49.106   4.017  18.391  0.00  0.00    +0.000 A 
ENDROOT
BRANCH   1   7
ATOM      7  C   UNL     1      47.252   3.576  16.743  0.00  0.00    +0.000 C 
BRANCH   7  10
ATOM      8  C   UNL     1      46.833   4.248  14.413  0.00  0.00    +0.000 C 
ATOM      9  O   UNL     1      47.270   3.178  13.995  0.00  0.00    +0.000 OA
ATOM     10  N   UNL     1      46.779   4.515  15.752  0.00  0.00    +0.000 N 
ATOM     11  H   UNL     1      46.372   5.378  16.085  0.00  0.00    +0.000 HD
BRANCH   8  19
ATOM     12  C   UNL     1      43.892   4.801  12.696  0.00  0.00    +0.000 A 
ATOM     13  N   UNL     1      42.851   5.300  11.998  0.00  0.00    +0.000 NA
ATOM     14  C   UNL     1      43.007   6.480  11.389  0.00  0.00    +0.000 A 
ATOM     15  N   UNL     1      44.104   7.232  11.377  0.00  0.00    +0.000 NA
ATOM     16  C   UNL     1      45.112   6.705  12.090  0.00  0.00    +0.000 A 
ATOM     17  S   UNL     1      46.595   7.527  12.168  0.00  0.00    +0.000 S 
ATOM     18  C   UNL     1      47.256   6.335  13.181  0.00  0.00    +0.000 A 
ATOM     19  C   UNL     1      46.375   5.302  13.488  0.00  0.00    +0.000 A 
ATOM     20  C   UNL     1      45.104   5.507  12.800  0.00  0.00    +0.000 A 
BRANCH  12  22
ATOM     21  C   UNL     1      43.591   2.490  12.374  0.00  0.00    +0.000 C 
ATOM     22  O   UNL     1      43.751   3.566  13.294  0.00  0.00    +0.000 OA
ENDBRANCH  12  22
ENDBRANCH   8  19
ENDBRANCH   7  10
ENDBRANCH   1   7
BRANCH   4  23
ATOM     23  C   UNL     1      49.664   6.604  21.127  0.00  0.00    +0.000 C 
BRANCH  23  24
ATOM     24  N   UNL     1      50.934   7.178  20.680  0.00  0.00    +0.000 NA
ATOM     25  H   UNL     1      51.462   6.446  20.206  0.00  0.00    +0.000 HD
BRANCH  24  26
ATOM     26  C   UNL     1      50.783   8.323  19.759  0.00  0.00    +0.000 C 
ATOM     27  C   UNL     1      49.788   9.368  20.293  0.00  0.00    +0.000 C 
BRANCH  26  28
ATOM     28  C   UNL     1      50.540   7.923  18.307  0.00  0.00    +0.000 A 
ATOM     29  C   UNL     1      49.364   8.340  17.658  0.00  0.00    +0.000 A 
ATOM     30  C   UNL     1      49.096   7.955  16.341  0.00  0.00    +0.000 A 
ATOM     31  C   UNL     1      50.001   7.158  15.646  0.00  0.00    +0.000 A 
ATOM     32  C   UNL     1      51.182   6.755  16.262  0.00  0.00    +0.000 A 
ATOM     33  C   UNL     1      51.451   7.139  17.579  0.00  0.00    +0.000 A 
ENDBRANCH  26  28
ENDBRANCH  24  26
ENDBRANCH  23  24
ENDBRANCH   4  23
TORSDOF 8
ENDMDL
MODEL 9
REMARK VINA RESULT:    -6.568      2.401      3.588
REMARK INTER + INTRA:         -11.454
REMARK INTER:                 -10.137
REMARK INTRA:                  -1.317
REMARK UNBOUND:                -1.814
REMARK  Name = 
REMARK  10 active torsions:
REMARK  status: ('A' for Active; 'I' for Inactive)
REMARK    1  A    between atoms: C_1  and  O_2
REMARK    2  A    between atoms: O_2  and  C_3
REMARK    3  A    between atoms: C_10  and  C_11
REMARK    4  A    between atoms: N_13  and  C_14
REMARK    5  A    between atoms: C_14  and  C_15
REMARK    6  A    between atoms: C_18  and  C_19
REMARK    7  A    between atoms: C_19  and  N_20
REMARK    8  A    between atoms: N_20  and  C_21
REMARK    9  A    between atoms: C_21  and  C_22
REMARK   10  A    between atoms: C_21  and  C_23
REMARK                            x       y       z     vdW  Elec       q    Type
REMARK                         _______ _______ _______ _____ _____    ______ ____
ROOT
ATOM      1  C   UNL     1      47.801   7.106  12.821  0.00  0.00    +0.000 A 
ATOM      2  C   UNL     1      47.368   5.930  13.451  0.00  0.00    +0.000 A 
ATOM      3  C   UNL     1      46.186   5.293  13.046  0.00  0.00    +0.000 A 
ATOM      4  C   UNL     1      45.410   5.821  12.005  0.00  0.00    +0.000 A 
ATOM      5  C   UNL     1      45.850   6.997  11.379  0.00  0.00    +0.000 A 
ATOM      6  C   UNL     1      47.028   7.632  11.780  0.00  0.00    +0.000 A 
ENDROOT
BRANCH   1   7
ATOM      7  C   UNL     1      49.115   7.748  13.188  0.00  0.00    +0.000 C 
BRANCH   7  10
ATOM      8  C   UNL     1      49.720   7.315  15.534  0.00  0.00    +0.000 C 
ATOM      9  O   UNL     1      49.057   8.278  15.914  0.00  0.00    +0.000 OA
ATOM     10  N   UNL     1      49.788   6.981  14.210  0.00  0.00    +0.000 N 
ATOM     11  H   UNL     1      50.296   6.158  13.917  0.00  0.00    +0.000 HD
BRANCH   8  19
ATOM     12  C   UNL     1      53.090   6.728  15.982  0.00  0.00    +0.000 A 
ATOM     13  N   UNL     1      54.320   6.399  16.431  0.00  0.00    +0.000 NA
ATOM     14  C   UNL     1      54.408   5.632  17.522  0.00  0.00    +0.000 A 
ATOM     15  N   UNL     1      53.399   5.128  18.227  0.00  0.00    +0.000 NA
ATOM     16  C   UNL     1      52.195   5.487  17.754  0.00  0.00    +0.000 A 
ATOM     17  S   UNL     1      50.794   4.917  18.525  0.00  0.00    +0.000 S 
ATOM     18  C   UNL     1      49.797   5.762  17.441  0.00  0.00    +0.000 A 
ATOM     19  C   UNL     1      50.494   6.495  16.485  0.00  0.00    +0.000 A 
ATOM     20  C   UNL     1      51.932   6.295  16.652  0.00  0.00    +0.000 A 
BRANCH  12  22
ATOM     21  C   UNL     1      52.977   8.892  15.066  0.00  0.00    +0.000 C 
ATOM     22  O   UNL     1      52.991   7.487  14.834  0.00  0.00    +0.000 OA
ENDBRANCH  12  22
ENDBRANCH   8  19
ENDBRANCH   7  10
ENDBRANCH   1   7
BRANCH   4  23
ATOM     23  C   UNL     1      44.199   5.110  11.433  0.00  0.00    +0.000 C 
BRANCH  23  24
ATOM     24  N   UNL     1      44.254   4.888   9.988  0.00  0.00    +0.000 NA
ATOM     25  H   UNL     1      45.135   5.265   9.643  0.00  0.00    +0.000 HD
BRANCH  24  26
ATOM     26  C   UNL     1      44.163   3.467   9.596  0.00  0.00    +0.000 C 
ATOM     27  C   UNL     1      43.948   2.545  10.808  0.00  0.00    +0.000 C 
BRANCH  26  28
ATOM     28  C   UNL     1      45.279   3.008   8.661  0.00  0.00    +0.000 A 
ATOM     29  C   UNL     1      45.892   3.936   7.802  0.00  0.00    +0.000 A 
ATOM     30  C   UNL     1      46.890   3.536   6.906  0.00  0.00    +0.000 A 
ATOM     31  C   UNL     1      47.299   2.206   6.863  0.00  0.00    +0.000 A 
ATOM     32  C   UNL     1      46.722   1.277   7.723  0.00  0.00    +0.000 A 
ATOM     33  C   UNL     1      45.724   1.676   8.618  0.00  0.00    +0.000 A 
ENDBRANCH  26  28
ENDBRANCH  24  26
ENDBRANCH  23  24
ENDBRANCH   4  23
TORSDOF 8
ENDMDL
