MODEL 1
REMARK VINA RESULT:    -6.330      0.000      0.000
REMARK INTER + INTRA:          -9.515
REMARK INTER:                  -8.551
REMARK INTRA:                  -0.965
REMARK UNBOUND:                -0.965
REMARK  Name = 
REMARK  9 active torsions:
REMARK  status: ('A' for Active; 'I' for Inactive)
REMARK    1  A    between atoms: C_1  and  C_2
REMARK    2  A    between atoms: C_2  and  N_3
REMARK    3  A    between atoms: C_4  and  C_6
REMARK    4  A    between atoms: C_9  and  N_10
REMARK    5  A    between atoms: N_10  and  C_11
REMARK    6  A    between atoms: C_11  and  C_12
REMARK    7  A    between atoms: C_12  and  C_13
REMARK    8  A    between atoms: C_12  and  C_14
REMARK    9  A    between atoms: C_12  and  C_15
REMARK                            x       y       z     vdW  Elec       q    Type
REMARK                         _______ _______ _______ _____ _____    ______ ____
ROOT
ATOM      1  C   UNL     1      48.958   7.362  12.529  0.00  0.00    +0.000 A 
ATOM      2  C   UNL     1      48.037   7.400  11.483  0.00  0.00    +0.000 A 
ATOM      3  C   UNL     1      46.810   6.731  11.600  0.00  0.00    +0.000 A 
ATOM      4  C   UNL     1      46.465   6.036  12.765  0.00  0.00    +0.000 A 
ATOM      5  C   UNL     1      47.405   6.001  13.804  0.00  0.00    +0.000 A 
ATOM      6  C   UNL     1      48.641   6.649  13.692  0.00  0.00    +0.000 A 
ENDROOT
BRANCH   1   8
ATOM      7  N   UNL     1      51.096   7.580  11.371  0.00  0.00    +0.000 N 
ATOM      8  C   UNL     1      50.304   7.989  12.429  0.00  0.00    +0.000 C 
ATOM      9  O   UNL     1      50.655   8.832  13.244  0.00  0.00    +0.000 OA
ATOM     10  H   UNL     1      50.685   7.037  10.624  0.00  0.00    +0.000 HD
BRANCH   7  12
ATOM     11  C   UNL     1      52.415   9.255  10.155  0.00  0.00    +0.000 C 
ATOM     12  C   UNL     1      52.420   8.126  11.167  0.00  0.00    +0.000 C 
ENDBRANCH   7  12
ENDBRANCH   1   8
BRANCH   4  13
ATOM     13  N   UNL     1      45.301   5.275  12.903  0.00  0.00    +0.000 N 
ATOM     14  H   UNL     1      44.470   5.840  12.756  0.00  0.00    +0.000 HD
BRANCH  13  15
ATOM     15  C   UNL     1      45.241   3.911  12.354  0.00  0.00    +0.000 C 
BRANCH  15  16
ATOM     16  C   UNL     1      44.181   3.737  11.220  0.00  0.00    +0.000 C 
ATOM     17  C   UNL     1      43.241   2.564  11.569  0.00  0.00    +0.000 C 
ATOM     18  C   UNL     1      43.366   5.038  11.070  0.00  0.00    +0.000 C 
BRANCH  16  19
ATOM     19  C   UNL     1      44.894   3.446   9.884  0.00  0.00    +0.000 A 
ATOM     20  C   UNL     1      45.301   4.481   9.036  0.00  0.00    +0.000 A 
ATOM     21  C   UNL     1      45.972   4.179   7.853  0.00  0.00    +0.000 A 
ATOM     22  C   UNL     1      46.223   2.854   7.532  0.00  0.00    +0.000 A 
ATOM     23  C   UNL     1      45.788   1.882   8.412  0.00  0.00    +0.000 A 
ATOM     24  N   UNL     1      45.140   2.149   9.569  0.00  0.00    +0.000 NA
ENDBRANCH  16  19
ENDBRANCH  15  16
ENDBRANCH  13  15
ENDBRANCH   4  13
TORSDOF 6
ENDMDL
MODEL 2
REMARK VINA RESULT:    -6.109      4.083      7.673
REMARK INTER + INTRA:          -9.216
REMARK INTER:                  -8.629
REMARK INTRA:                  -0.587
REMARK UNBOUND:                -0.965
REMARK  Name = 
REMARK  9 active torsions:
REMARK  status: ('A' for Active; 'I' for Inactive)
REMARK    1  A    between atoms: C_1  and  C_2
REMARK    2  A    between atoms: C_2  and  N_3
REMARK    3  A    between atoms: C_4  and  C_6
REMARK    4  A    between atoms: C_9  and  N_10
REMARK    5  A    between atoms: N_10  and  C_11
REMARK    6  A    between atoms: C_11  and  C_12
REMARK    7  A    between atoms: C_12  and  C_13
REMARK    8  A    between atoms: C_12  and  C_14
REMARK    9  A    between atoms: C_12  and  C_15
REMARK                            x       y       z     vdW  Elec       q    Type
REMARK                         _______ _______ _______ _____ _____    ______ ____
ROOT
ATOM      1  C   UNL     1      45.270   4.720  11.399  0.00  0.00    +0.000 A 
ATOM      2  C   UNL     1      45.351   3.750  12.397  0.00  0.00    +0.000 A 
ATOM      3  C   UNL     1      46.020   4.028  13.597  0.00  0.00    +0.000 A 
ATOM      4  C   UNL     1      46.598   5.280  13.838  0.00  0.00    +0.000 A 
ATOM      5  C   UNL     1      46.515   6.241  12.821  0.00  0.00    +0.000 A 
ATOM      6  C   UNL     1      45.865   5.969  11.612  0.00  0.00    +0.000 A 
ENDROOT
BRANCH   1   8
ATOM      7  N   UNL     1      45.464   3.944   9.093  0.00  0.00    +0.000 N 
ATOM      8  C   UNL     1      44.638   4.452  10.078  0.00  0.00    +0.000 C 
ATOM      9  O   UNL     1      43.444   4.665   9.910  0.00  0.00    +0.000 OA
ATOM     10  H   UNL     1      46.383   3.604   9.342  0.00  0.00    +0.000 HD
BRANCH   7  12
ATOM     11  C   UNL     1      46.074   3.243   6.820  0.00  0.00    +0.000 C 
ATOM     12  C   UNL     1      44.960   3.637   7.771  0.00  0.00    +0.000 C 
ENDBRANCH   7  12
ENDBRANCH   1   8
BRANCH   4  13
ATOM     13  N   UNL     1      47.357   5.584  14.972  0.00  0.00    +0.000 N 
ATOM     14  H   UNL     1      47.136   6.509  15.328  0.00  0.00    +0.000 HD
BRANCH  13  15
ATOM     15  C   UNL     1      47.598   4.555  15.996  0.00  0.00    +0.000 C 
BRANCH  15  16
ATOM     16  C   UNL     1      48.517   5.035  17.164  0.00  0.00    +0.000 C 
ATOM     17  C   UNL     1      49.061   6.444  16.847  0.00  0.00    +0.000 C 
ATOM     18  C   UNL     1      47.710   5.066  18.478  0.00  0.00    +0.000 C 
BRANCH  16  19
ATOM     19  C   UNL     1      49.695   4.054  17.332  0.00  0.00    +0.000 A 
ATOM     20  C   UNL     1      50.890   4.450  17.941  0.00  0.00    +0.000 A 
ATOM     21  C   UNL     1      51.919   3.525  18.105  0.00  0.00    +0.000 A 
ATOM     22  C   UNL     1      51.744   2.225  17.657  0.00  0.00    +0.000 A 
ATOM     23  C   UNL     1      50.541   1.904  17.059  0.00  0.00    +0.000 A 
ATOM     24  N   UNL     1      49.524   2.781  16.894  0.00  0.00    +0.000 NA
ENDBRANCH  16  19
ENDBRANCH  15  16
ENDBRANCH  13  15
ENDBRANCH   4  13
TORSDOF 6
ENDMDL
MODEL 3
REMARK VINA RESULT:    -6.104      3.229      4.611
REMARK INTER + INTRA:          -9.210
REMARK INTER:                  -8.213
REMARK INTRA:                  -0.996
REMARK UNBOUND:                -0.965
REMARK  Name = 
REMARK  9 active torsions:
REMARK  status: ('A' for Active; 'I' for Inactive)
REMARK    1  A    between atoms: C_1  and  C_2
REMARK    2  A    between atoms: C_2  and  N_3
REMARK    3  A    between atoms: C_4  and  C_6
REMARK    4  A    between atoms: C_9  and  N_10
REMARK    5  A    between atoms: N_10  and  C_11
REMARK    6  A    between atoms: C_11  and  C_12
REMARK    7  A    between atoms: C_12  and  C_13
REMARK    8  A    between atoms: C_12  and  C_14
REMARK    9  A    between atoms: C_12  and  C_15
REMARK                            x       y       z     vdW  Elec       q    Type
REMARK                         _______ _______ _______ _____ _____    ______ ____
ROOT
ATOM      1  C   UNL     1      48.385   5.420  16.230  0.00  0.00    +0.000 A 
ATOM      2  C   UNL     1      48.584   6.441  15.302  0.00  0.00    +0.000 A 
ATOM      3  C   UNL     1      47.900   6.423  14.077  0.00  0.00    +0.000 A 
ATOM      4  C   UNL     1      46.989   5.408  13.765  0.00  0.00    +0.000 A 
ATOM      5  C   UNL     1      46.806   4.385  14.706  0.00  0.00    +0.000 A 
ATOM      6  C   UNL     1      47.497   4.382  15.923  0.00  0.00    +0.000 A 
ENDROOT
BRANCH   1   8
ATOM      7  N   UNL     1      48.540   5.929  18.613  0.00  0.00    +0.000 N 
ATOM      8  C   UNL     1      49.141   5.349  17.510  0.00  0.00    +0.000 C 
ATOM      9  O   UNL     1      50.227   4.786  17.556  0.00  0.00    +0.000 OA
ATOM     10  H   UNL     1      47.568   6.200  18.563  0.00  0.00    +0.000 HD
BRANCH   7  12
ATOM     11  C   UNL     1      48.688   4.761  20.767  0.00  0.00    +0.000 C 
ATOM     12  C   UNL     1      49.177   5.915  19.912  0.00  0.00    +0.000 C 
ENDBRANCH   7  12
ENDBRANCH   1   8
BRANCH   4  13
ATOM     13  N   UNL     1      46.351   5.287  12.527  0.00  0.00    +0.000 N 
ATOM     14  H   UNL     1      46.454   4.351  12.148  0.00  0.00    +0.000 HD
BRANCH  13  15
ATOM     15  C   UNL     1      45.039   5.916  12.309  0.00  0.00    +0.000 C 
BRANCH  15  16
ATOM     16  C   UNL     1      43.951   4.929  11.778  0.00  0.00    +0.000 C 
ATOM     17  C   UNL     1      43.607   3.901  12.877  0.00  0.00    +0.000 C 
ATOM     18  C   UNL     1      42.685   5.719  11.383  0.00  0.00    +0.000 C 
BRANCH  16  19
ATOM     19  C   UNL     1      44.482   4.193  10.532  0.00  0.00    +0.000 A 
ATOM     20  C   UNL     1      44.194   2.843  10.306  0.00  0.00    +0.000 A 
ATOM     21  C   UNL     1      44.664   2.222   9.151  0.00  0.00    +0.000 A 
ATOM     22  C   UNL     1      45.416   2.953   8.243  0.00  0.00    +0.000 A 
ATOM     23  C   UNL     1      45.668   4.280   8.533  0.00  0.00    +0.000 A 
ATOM     24  N   UNL     1      45.218   4.907   9.643  0.00  0.00    +0.000 NA
ENDBRANCH  16  19
ENDBRANCH  15  16
ENDBRANCH  13  15
ENDBRANCH   4  13
TORSDOF 6
ENDMDL
MODEL 4
REMARK VINA RESULT:    -6.098      3.342      7.361
REMARK INTER + INTRA:          -9.201
REMARK INTER:                  -8.290
REMARK INTRA:                  -0.911
REMARK UNBOUND:                -0.965
REMARK  Name = 
REMARK  9 active torsions:
REMARK  status: ('A' for Active; 'I' for Inactive)
REMARK    1  A    between atoms: C_1  and  C_2
REMARK    2  A    between atoms: C_2  and  N_3
REMARK    3  A    between atoms: C_4  and  C_6
REMARK    4  A    between atoms: C_9  and  N_10
REMARK    5  A    between atoms: N_10  and  C_11
REMARK    6  A    between atoms: C_11  and  C_12
REMARK    7  A    between atoms: C_12  and  C_13
REMARK    8  A    between atoms: C_12  and  C_14
REMARK    9  A    between atoms: C_12  and  C_15
REMARK                            x       y       z     vdW  Elec       q    Type
REMARK                         _______ _______ _______ _____ _____    ______ ____
ROOT
ATOM      1  C   UNL     1      45.344   4.779  11.057  0.00  0.00    +0.000 A 
ATOM      2  C   UNL     1      45.284   4.270  12.354  0.00  0.00    +0.000 A 
ATOM      3  C   UNL     1      45.866   4.977  13.416  0.00  0.00    +0.000 A 
ATOM      4  C   UNL     1      46.494   6.211  13.215  0.00  0.00    +0.000 A 
ATOM      5  C   UNL     1      46.553   6.705  11.904  0.00  0.00    +0.000 A 
ATOM      6  C   UNL     1      45.992   6.000  10.833  0.00  0.00    +0.000 A 
ENDROOT
BRANCH   1   8
ATOM      7  N   UNL     1      45.549   4.116   8.717  0.00  0.00    +0.000 N 
ATOM      8  C   UNL     1      44.812   4.035   9.884  0.00  0.00    +0.000 C 
ATOM      9  O   UNL     1      43.781   3.381   9.984  0.00  0.00    +0.000 OA
ATOM     10  H   UNL     1      46.483   4.500   8.746  0.00  0.00    +0.000 HD
BRANCH   7  12
ATOM     11  C   UNL     1      46.306   3.131   6.600  0.00  0.00    +0.000 C 
ATOM     12  C   UNL     1      45.133   3.428   7.514  0.00  0.00    +0.000 C 
ENDBRANCH   7  12
ENDBRANCH   1   8
BRANCH   4  13
ATOM     13  N   UNL     1      47.171   6.914  14.216  0.00  0.00    +0.000 N 
ATOM     14  H   UNL     1      46.651   6.908  15.088  0.00  0.00    +0.000 HD
BRANCH  13  15
ATOM     15  C   UNL     1      48.630   6.783  14.351  0.00  0.00    +0.000 C 
BRANCH  15  16
ATOM     16  C   UNL     1      49.132   6.844  15.829  0.00  0.00    +0.000 C 
ATOM     17  C   UNL     1      50.670   6.966  15.847  0.00  0.00    +0.000 C 
ATOM     18  C   UNL     1      48.499   8.058  16.540  0.00  0.00    +0.000 C 
BRANCH  16  19
ATOM     19  C   UNL     1      48.708   5.562  16.573  0.00  0.00    +0.000 A 
ATOM     20  C   UNL     1      48.764   5.478  17.968  0.00  0.00    +0.000 A 
ATOM     21  C   UNL     1      48.340   4.314  18.606  0.00  0.00    +0.000 A 
ATOM     22  C   UNL     1      47.874   3.252  17.845  0.00  0.00    +0.000 A 
ATOM     23  C   UNL     1      47.854   3.400  16.472  0.00  0.00    +0.000 A 
ATOM     24  N   UNL     1      48.252   4.522  15.830  0.00  0.00    +0.000 NA
ENDBRANCH  16  19
ENDBRANCH  15  16
ENDBRANCH  13  15
ENDBRANCH   4  13
TORSDOF 6
ENDMDL
MODEL 5
REMARK VINA RESULT:    -5.911      2.990      7.442
REMARK INTER + INTRA:          -8.949
REMARK INTER:                  -7.726
REMARK INTRA:                  -1.222
REMARK UNBOUND:                -0.965
REMARK  Name = 
REMARK  9 active torsions:
REMARK  status: ('A' for Active; 'I' for Inactive)
REMARK    1  A    between atoms: C_1  and  C_2
REMARK    2  A    between atoms: C_2  and  N_3
REMARK    3  A    between atoms: C_4  and  C_6
REMARK    4  A    between atoms: C_9  and  N_10
REMARK    5  A    between atoms: N_10  and  C_11
REMARK    6  A    between atoms: C_11  and  C_12
REMARK    7  A    between atoms: C_12  and  C_13
REMARK    8  A    between atoms: C_12  and  C_14
REMARK    9  A    between atoms: C_12  and  C_15
REMARK                            x       y       z     vdW  Elec       q    Type
REMARK                         _______ _______ _______ _____ _____    ______ ____
ROOT
ATOM      1  C   UNL     1      44.815   4.379  11.344  0.00  0.00    +0.000 A 
ATOM      2  C   UNL     1      45.465   4.331  12.577  0.00  0.00    +0.000 A 
ATOM      3  C   UNL     1      45.808   5.518  13.240  0.00  0.00    +0.000 A 
ATOM      4  C   UNL     1      45.489   6.771  12.705  0.00  0.00    +0.000 A 
ATOM      5  C   UNL     1      44.843   6.803  11.461  0.00  0.00    +0.000 A 
ATOM      6  C   UNL     1      44.512   5.625  10.782  0.00  0.00    +0.000 A 
ENDROOT
BRANCH   1   8
ATOM      7  N   UNL     1      45.397   2.804   9.572  0.00  0.00    +0.000 N 
ATOM      8  C   UNL     1      44.497   3.154  10.563  0.00  0.00    +0.000 C 
ATOM      9  O   UNL     1      43.494   2.500  10.820  0.00  0.00    +0.000 OA
ATOM     10  H   UNL     1      46.298   3.260   9.537  0.00  0.00    +0.000 HD
BRANCH   7  12
ATOM     11  C   UNL     1      46.430   1.292   7.938  0.00  0.00    +0.000 C 
ATOM     12  C   UNL     1      45.196   1.628   8.753  0.00  0.00    +0.000 C 
ENDBRANCH   7  12
ENDBRANCH   1   8
BRANCH   4  13
ATOM     13  N   UNL     1      45.887   7.985  13.273  0.00  0.00    +0.000 N 
ATOM     14  H   UNL     1      46.176   7.865  14.239  0.00  0.00    +0.000 HD
BRANCH  13  15
ATOM     15  C   UNL     1      46.688   8.939  12.489  0.00  0.00    +0.000 C 
BRANCH  15  16
ATOM     16  C   UNL     1      48.227   8.803  12.719  0.00  0.00    +0.000 C 
ATOM     17  C   UNL     1      48.809   7.775  11.726  0.00  0.00    +0.000 C 
ATOM     18  C   UNL     1      48.903  10.175  12.513  0.00  0.00    +0.000 C 
BRANCH  16  19
ATOM     19  C   UNL     1      48.495   8.334  14.163  0.00  0.00    +0.000 A 
ATOM     20  C   UNL     1      49.038   7.072  14.429  0.00  0.00    +0.000 A 
ATOM     21  C   UNL     1      49.297   6.697  15.746  0.00  0.00    +0.000 A 
ATOM     22  C   UNL     1      49.008   7.580  16.774  0.00  0.00    +0.000 A 
ATOM     23  C   UNL     1      48.467   8.807  16.440  0.00  0.00    +0.000 A 
ATOM     24  N   UNL     1      48.213   9.197  15.171  0.00  0.00    +0.000 NA
ENDBRANCH  16  19
ENDBRANCH  15  16
ENDBRANCH  13  15
ENDBRANCH   4  13
TORSDOF 6
ENDMDL
MODEL 6
REMARK VINA RESULT:    -5.689      3.515      7.621
REMARK INTER + INTRA:          -8.649
REMARK INTER:                  -7.805
REMARK INTRA:                  -0.844
REMARK UNBOUND:                -0.965
REMARK  Name = 
REMARK  9 active torsions:
REMARK  status: ('A' for Active; 'I' for Inactive)
REMARK    1  A    between atoms: C_1  and  C_2
REMARK    2  A    between atoms: C_2  and  N_3
REMARK    3  A    between atoms: C_4  and  C_6
REMARK    4  A    between atoms: C_9  and  N_10
REMARK    5  A    between atoms: N_10  and  C_11
REMARK    6  A    between atoms: C_11  and  C_12
REMARK    7  A    between atoms: C_12  and  C_13
REMARK    8  A    between atoms: C_12  and  C_14
REMARK    9  A    between atoms: C_12  and  C_15
REMARK                            x       y       z     vdW  Elec       q    Type
REMARK                         _______ _______ _______ _____ _____    ______ ____
ROOT
ATOM      1  C   UNL     1      45.279   4.683  11.418  0.00  0.00    +0.000 A 
ATOM      2  C   UNL     1      45.365   3.662  12.363  0.00  0.00    +0.000 A 
ATOM      3  C   UNL     1      46.011   3.888  13.587  0.00  0.00    +0.000 A 
ATOM      4  C   UNL     1      46.560   5.135  13.904  0.00  0.00    +0.000 A 
ATOM      5  C   UNL     1      46.472   6.149  12.940  0.00  0.00    +0.000 A 
ATOM      6  C   UNL     1      45.845   5.930  11.707  0.00  0.00    +0.000 A 
ENDROOT
BRANCH   1   8
ATOM      7  N   UNL     1      45.483   3.897   9.116  0.00  0.00    +0.000 N 
ATOM      8  C   UNL     1      44.673   4.476  10.075  0.00  0.00    +0.000 C 
ATOM      9  O   UNL     1      43.509   4.796   9.866  0.00  0.00    +0.000 OA
ATOM     10  H   UNL     1      46.358   3.475   9.395  0.00  0.00    +0.000 HD
BRANCH   7  12
ATOM     11  C   UNL     1      46.132   3.310   6.822  0.00  0.00    +0.000 C 
ATOM     12  C   UNL     1      45.000   3.639   7.776  0.00  0.00    +0.000 C 
ENDBRANCH   7  12
ENDBRANCH   1   8
BRANCH   4  13
ATOM     13  N   UNL     1      47.295   5.391  15.065  0.00  0.00    +0.000 N 
ATOM     14  H   UNL     1      47.056   6.295  15.462  0.00  0.00    +0.000 HD
BRANCH  13  15
ATOM     15  C   UNL     1      47.533   4.316  16.041  0.00  0.00    +0.000 C 
BRANCH  15  16
ATOM     16  C   UNL     1      48.152   4.814  17.385  0.00  0.00    +0.000 C 
ATOM     17  C   UNL     1      47.023   5.179  18.370  0.00  0.00    +0.000 C 
ATOM     18  C   UNL     1      49.038   3.703  17.989  0.00  0.00    +0.000 C 
BRANCH  16  19
ATOM     19  C   UNL     1      49.029   6.054  17.123  0.00  0.00    +0.000 A 
ATOM     20  C   UNL     1      48.831   7.247  17.827  0.00  0.00    +0.000 A 
ATOM     21  C   UNL     1      49.666   8.336  17.585  0.00  0.00    +0.000 A 
ATOM     22  C   UNL     1      50.680   8.222  16.646  0.00  0.00    +0.000 A 
ATOM     23  C   UNL     1      50.814   7.018  15.983  0.00  0.00    +0.000 A 
ATOM     24  N   UNL     1      50.021   5.944  16.204  0.00  0.00    +0.000 NA
ENDBRANCH  16  19
ENDBRANCH  15  16
ENDBRANCH  13  15
ENDBRANCH   4  13
TORSDOF 6
ENDMDL
MODEL 7
REMARK VINA RESULT:    -5.598      3.559      7.533
REMARK INTER + INTRA:          -8.527
REMARK INTER:                  -7.498
REMARK INTRA:                  -1.029
REMARK UNBOUND:                -0.965
REMARK  Name = 
REMARK  9 active torsions:
REMARK  status: ('A' for Active; 'I' for Inactive)
REMARK    1  A    between atoms: C_1  and  C_2
REMARK    2  A    between atoms: C_2  and  N_3
REMARK    3  A    between atoms: C_4  and  C_6
REMARK    4  A    between atoms: C_9  and  N_10
REMARK    5  A    between atoms: N_10  and  C_11
REMARK    6  A    between atoms: C_11  and  C_12
REMARK    7  A    between atoms: C_12  and  C_13
REMARK    8  A    between atoms: C_12  and  C_14
REMARK    9  A    between atoms: C_12  and  C_15
REMARK                            x       y       z     vdW  Elec       q    Type
REMARK                         _______ _______ _______ _____ _____    ______ ____
ROOT
ATOM      1  C   UNL     1      45.850   5.078  11.696  0.00  0.00    +0.000 A 
ATOM      2  C   UNL     1      46.434   6.321  11.452  0.00  0.00    +0.000 A 
ATOM      3  C   UNL     1      47.146   6.976  12.467  0.00  0.00    +0.000 A 
ATOM      4  C   UNL     1      47.313   6.400  13.731  0.00  0.00    +0.000 A 
ATOM      5  C   UNL     1      46.713   5.154  13.962  0.00  0.00    +0.000 A 
ATOM      6  C   UNL     1      45.985   4.498  12.963  0.00  0.00    +0.000 A 
ENDROOT
BRANCH   1   8
ATOM      7  N   UNL     1      45.294   4.664   9.355  0.00  0.00    +0.000 N 
ATOM      8  C   UNL     1      45.021   4.375  10.680  0.00  0.00    +0.000 C 
ATOM      9  O   UNL     1      44.163   3.574  11.030  0.00  0.00    +0.000 OA
ATOM     10  H   UNL     1      46.135   5.173   9.122  0.00  0.00    +0.000 HD
BRANCH   7  12
ATOM     11  C   UNL     1      45.473   3.283   7.334  0.00  0.00    +0.000 C 
ATOM     12  C   UNL     1      44.557   4.035   8.280  0.00  0.00    +0.000 C 
ENDBRANCH   7  12
ENDBRANCH   1   8
BRANCH   4  13
ATOM     13  N   UNL     1      47.930   7.045  14.807  0.00  0.00    +0.000 N 
ATOM     14  H   UNL     1      47.389   6.939  15.660  0.00  0.00    +0.000 HD
BRANCH  13  15
ATOM     15  C   UNL     1      49.390   6.974  14.972  0.00  0.00    +0.000 C 
BRANCH  15  16
ATOM     16  C   UNL     1      49.845   6.769  16.452  0.00  0.00    +0.000 C 
ATOM     17  C   UNL     1      51.386   6.720  16.515  0.00  0.00    +0.000 C 
ATOM     18  C   UNL     1      49.320   7.931  17.320  0.00  0.00    +0.000 C 
BRANCH  16  19
ATOM     19  C   UNL     1      49.265   5.448  16.994  0.00  0.00    +0.000 A 
ATOM     20  C   UNL     1      50.080   4.335  17.224  0.00  0.00    +0.000 A 
ATOM     21  C   UNL     1      49.524   3.169  17.747  0.00  0.00    +0.000 A 
ATOM     22  C   UNL     1      48.166   3.129  18.026  0.00  0.00    +0.000 A 
ATOM     23  C   UNL     1      47.419   4.261  17.767  0.00  0.00    +0.000 A 
ATOM     24  N   UNL     1      47.936   5.407  17.267  0.00  0.00    +0.000 NA
ENDBRANCH  16  19
ENDBRANCH  15  16
ENDBRANCH  13  15
ENDBRANCH   4  13
TORSDOF 6
ENDMDL
MODEL 8
REMARK VINA RESULT:    -5.591      1.674      2.228
REMARK INTER + INTRA:          -8.516
REMARK INTER:                  -7.646
REMARK INTRA:                  -0.870
REMARK UNBOUND:                -0.965
REMARK  Name = 
REMARK  9 active torsions:
REMARK  status: ('A' for Active; 'I' for Inactive)
REMARK    1  A    between atoms: C_1  and  C_2
REMARK    2  A    between atoms: C_2  and  N_3
REMARK    3  A    between atoms: C_4  and  C_6
REMARK    4  A    between atoms: C_9  and  N_10
REMARK    5  A    between atoms: N_10  and  C_11
REMARK    6  A    between atoms: C_11  and  C_12
REMARK    7  A    between atoms: C_12  and  C_13
REMARK    8  A    between atoms: C_12  and  C_14
REMARK    9  A    between atoms: C_12  and  C_15
REMARK                            x       y       z     vdW  Elec       q    Type
REMARK                         _______ _______ _______ _____ _____    ______ ____
ROOT
ATOM      1  C   UNL     1      49.350   9.106  11.618  0.00  0.00    +0.000 A 
ATOM      2  C   UNL     1      49.320   7.717  11.731  0.00  0.00    +0.000 A 
ATOM      3  C   UNL     1      48.177   7.075  12.228  0.00  0.00    +0.000 A 
ATOM      4  C   UNL     1      47.036   7.797  12.596  0.00  0.00    +0.000 A 
ATOM      5  C   UNL     1      47.085   9.194  12.484  0.00  0.00    +0.000 A 
ATOM      6  C   UNL     1      48.227   9.847  12.007  0.00  0.00    +0.000 A 
ENDROOT
BRANCH   1   8
ATOM      7  N   UNL     1      51.589   9.078  10.646  0.00  0.00    +0.000 N 
ATOM      8  C   UNL     1      50.563   9.843  11.170  0.00  0.00    +0.000 C 
ATOM      9  O   UNL     1      50.612  11.063  11.257  0.00  0.00    +0.000 OA
ATOM     10  H   UNL     1      51.418   8.109  10.415  0.00  0.00    +0.000 HD
BRANCH   7  12
ATOM     11  C   UNL     1      53.664   8.701   9.389  0.00  0.00    +0.000 C 
ATOM     12  C   UNL     1      52.814   9.684  10.170  0.00  0.00    +0.000 C 
ENDBRANCH   7  12
ENDBRANCH   1   8
BRANCH   4  13
ATOM     13  N   UNL     1      45.905   7.222  13.184  0.00  0.00    +0.000 N 
ATOM     14  H   UNL     1      45.626   7.728  14.019  0.00  0.00    +0.000 HD
BRANCH  13  15
ATOM     15  C   UNL     1      44.801   6.737  12.341  0.00  0.00    +0.000 C 
BRANCH  15  16
ATOM     16  C   UNL     1      44.549   5.200  12.461  0.00  0.00    +0.000 C 
ATOM     17  C   UNL     1      45.559   4.587  13.453  0.00  0.00    +0.000 C 
ATOM     18  C   UNL     1      43.108   4.950  12.954  0.00  0.00    +0.000 C 
BRANCH  16  19
ATOM     19  C   UNL     1      44.718   4.539  11.078  0.00  0.00    +0.000 A 
ATOM     20  C   UNL     1      45.359   5.203  10.027  0.00  0.00    +0.000 A 
ATOM     21  C   UNL     1      45.522   4.558   8.803  0.00  0.00    +0.000 A 
ATOM     22  C   UNL     1      45.039   3.268   8.643  0.00  0.00    +0.000 A 
ATOM     23  C   UNL     1      44.410   2.675   9.720  0.00  0.00    +0.000 A 
ATOM     24  N   UNL     1      44.245   3.277  10.921  0.00  0.00    +0.000 NA
ENDBRANCH  16  19
ENDBRANCH  15  16
ENDBRANCH  13  15
ENDBRANCH   4  13
TORSDOF 6
ENDMDL
MODEL 9
REMARK VINA RESULT:    -5.392      3.899      5.024
REMARK INTER + INTRA:          -8.248
REMARK INTER:                  -7.563
REMARK INTRA:                  -0.684
REMARK UNBOUND:                -0.965
REMARK  Name = 
REMARK  9 active torsions:
REMARK  status: ('A' for Active; 'I' for Inactive)
REMARK    1  A    between atoms: C_1  and  C_2
REMARK    2  A    between atoms: C_2  and  N_3
REMARK    3  A    between atoms: C_4  and  C_6
REMARK    4  A    between atoms: C_9  and  N_10
REMARK    5  A    between atoms: N_10  and  C_11
REMARK    6  A    between atoms: C_11  and  C_12
REMARK    7  A    between atoms: C_12  and  C_13
REMARK    8  A    between atoms: C_12  and  C_14
REMARK    9  A    between atoms: C_12  and  C_15
REMARK                            x       y       z     vdW  Elec       q    Type
REMARK                         _______ _______ _______ _____ _____    ______ ____
ROOT
ATOM      1  C   UNL     1      49.328   4.760  17.338  0.00  0.00    +0.000 A 
ATOM      2  C   UNL     1      48.561   3.597  17.291  0.00  0.00    +0.000 A 
ATOM      3  C   UNL     1      47.516   3.478  16.363  0.00  0.00    +0.000 A 
ATOM      4  C   UNL     1      47.231   4.500  15.451  0.00  0.00    +0.000 A 
ATOM      5  C   UNL     1      48.006   5.667  15.516  0.00  0.00    +0.000 A 
ATOM      6  C   UNL     1      49.040   5.803  16.450  0.00  0.00    +0.000 A 
ENDROOT
BRANCH   1   8
ATOM      7  N   UNL     1      49.985   5.378  19.607  0.00  0.00    +0.000 N 
ATOM      8  C   UNL     1      50.397   4.969  18.351  0.00  0.00    +0.000 C 
ATOM      9  O   UNL     1      51.570   4.763  18.064  0.00  0.00    +0.000 OA
ATOM     10  H   UNL     1      49.003   5.339  19.843  0.00  0.00    +0.000 HD
BRANCH   7  12
ATOM     11  C   UNL     1      51.474   7.022  20.658  0.00  0.00    +0.000 C 
ATOM     12  C   UNL     1      50.935   5.604  20.675  0.00  0.00    +0.000 C 
ENDBRANCH   7  12
ENDBRANCH   1   8
BRANCH   4  13
ATOM     13  N   UNL     1      46.146   4.478  14.569  0.00  0.00    +0.000 N 
ATOM     14  H   UNL     1      45.471   5.202  14.796  0.00  0.00    +0.000 HD
BRANCH  13  15
ATOM     15  C   UNL     1      46.367   4.249  13.132  0.00  0.00    +0.000 C 
BRANCH  15  16
ATOM     16  C   UNL     1      45.500   5.164  12.211  0.00  0.00    +0.000 C 
ATOM     17  C   UNL     1      44.164   5.485  12.912  0.00  0.00    +0.000 C 
ATOM     18  C   UNL     1      46.265   6.470  11.911  0.00  0.00    +0.000 C 
BRANCH  16  19
ATOM     19  C   UNL     1      45.221   4.440  10.878  0.00  0.00    +0.000 A 
ATOM     20  C   UNL     1      45.492   5.050   9.648  0.00  0.00    +0.000 A 
ATOM     21  C   UNL     1      45.258   4.351   8.466  0.00  0.00    +0.000 A 
ATOM     22  C   UNL     1      44.753   3.061   8.527  0.00  0.00    +0.000 A 
ATOM     23  C   UNL     1      44.501   2.523   9.774  0.00  0.00    +0.000 A 
ATOM     24  N   UNL     1      44.727   3.178  10.936  0.00  0.00    +0.000 NA
ENDBRANCH  16  19
ENDBRANCH  15  16
ENDBRANCH  13  15
ENDBRANCH   4  13
TORSDOF 6
ENDMDL
