MODEL 1
REMARK VINA RESULT:    -8.790      0.000      0.000
REMARK INTER + INTRA:         -13.152
REMARK INTER:                 -11.873
REMARK INTRA:                  -1.279
REMARK UNBOUND:                -1.279
REMARK  Name = 
REMARK  9 active torsions:
REMARK  status: ('A' for Active; 'I' for Inactive)
REMARK    1  A    between atoms: C_1  and  C_2
REMARK    2  A    between atoms: N_4  and  C_5
REMARK    3  A    between atoms: C_7  and  C_8
REMARK    4  A    between atoms: C_8  and  C_9
REMARK    5  A    between atoms: C_8  and  C_10
REMARK    6  A    between atoms: C_10  and  N_11
REMARK    7  A    between atoms: C_15  and  C_16
REMARK    8  A    between atoms: C_22  and  C_23
REMARK    9  A    between atoms: C_29  and  C_30
REMARK                            x       y       z     vdW  Elec       q    Type
REMARK                         _______ _______ _______ _____ _____    ______ ____
ROOT
ATOM      1  C   UNL     1      46.781   6.964  12.664  0.00  0.00    +0.000 A 
ATOM      2  C   UNL     1      45.468   6.688  12.245  0.00  0.00    +0.000 A 
ATOM      3  C   UNL     1      44.703   5.629  12.766  0.00  0.00    +0.000 A 
ATOM      4  C   UNL     1      45.274   4.821  13.753  0.00  0.00    +0.000 A 
ATOM      5  C   UNL     1      46.572   5.076  14.218  0.00  0.00    +0.000 A 
ATOM      6  C   UNL     1      47.296   6.158  13.683  0.00  0.00    +0.000 A 
ENDROOT
BRANCH   1  10
ATOM      7  C   UNL     1      48.677   9.603  14.547  0.00  0.00    +0.000 C 
ATOM      8  C   UNL     1      48.544  10.013  13.082  0.00  0.00    +0.000 C 
ATOM      9  C   UNL     1      47.304   9.408  12.392  0.00  0.00    +0.000 C 
ATOM     10  N   UNL     1      47.499   7.985  12.077  0.00  0.00    +0.000 N 
ATOM     11  C   UNL     1      48.759   7.700  11.367  0.00  0.00    +0.000 C 
ATOM     12  C   UNL     1      49.955   8.332  12.112  0.00  0.00    +0.000 C 
ATOM     13  C   UNL     1      51.233   8.179  11.293  0.00  0.00    +0.000 C 
ATOM     14  O   UNL     1      49.755   9.738  12.348  0.00  0.00    +0.000 OA
ENDBRANCH   1  10
BRANCH   5  15
ATOM     15  C   UNL     1      47.222   4.186  15.250  0.00  0.00    +0.000 C 
ATOM     16  F   UNL     1      47.544   2.950  14.777  0.00  0.00    +0.000 F 
ATOM     17  F   UNL     1      48.384   4.714  15.729  0.00  0.00    +0.000 F 
ATOM     18  F   UNL     1      46.432   3.977  16.338  0.00  0.00    +0.000 F 
ENDBRANCH   5  15
BRANCH   3  19
ATOM     19  C   UNL     1      43.306   5.320  12.228  0.00  0.00    +0.000 C 
ATOM     20  C   UNL     1      42.639   6.573  11.655  0.00  0.00    +0.000 C 
BRANCH  19  21
ATOM     21  C   UNL     1      43.400   4.167  11.206  0.00  0.00    +0.000 C 
BRANCH  21  22
ATOM     22  N   UNL     1      43.728   4.621   9.858  0.00  0.00    +0.000 N 
ATOM     23  C   UNL     1      44.675   3.883   9.149  0.00  0.00    +0.000 A 
ATOM     24  C   UNL     1      44.816   2.494   9.249  0.00  0.00    +0.000 A 
ATOM     25  N   UNL     1      45.717   1.755   8.548  0.00  0.00    +0.000 NA
ATOM     26  C   UNL     1      46.476   2.483   7.687  0.00  0.00    +0.000 A 
ATOM     27  C   UNL     1      46.340   3.854   7.555  0.00  0.00    +0.000 A 
ATOM     28  N   UNL     1      45.446   4.578   8.291  0.00  0.00    +0.000 NA
ATOM     29  H   UNL     1      43.987   5.598   9.752  0.00  0.00    +0.000 HD
BRANCH  26  30
ATOM     30  C   UNL     1      47.476   1.742   6.875  0.00  0.00    +0.000 C 
ATOM     31  N   UNL     1      48.571   2.457   6.467  0.00  0.00    +0.000 N 
ATOM     32  O   UNL     1      47.331   0.566   6.579  0.00  0.00    +0.000 OA
ATOM     33  H   UNL     1      48.672   3.435   6.725  0.00  0.00    +0.000 HD
ATOM     34  H   UNL     1      49.286   2.000   5.918  0.00  0.00    +0.000 HD
ENDBRANCH  26  30
ENDBRANCH  21  22
ENDBRANCH  19  21
ENDBRANCH   3  19
TORSDOF 6
ENDMDL
MODEL 2
REMARK VINA RESULT:    -8.313      3.140      3.828
REMARK INTER + INTRA:         -12.509
REMARK INTER:                 -11.618
REMARK INTRA:                  -0.890
REMARK UNBOUND:                -1.279
REMARK  Name = 
REMARK  9 active torsions:
REMARK  status: ('A' for Active; 'I' for Inactive)
REMARK    1  A    between atoms: C_1  and  C_2
REMARK    2  A    between atoms: N_4  and  C_5
REMARK    3  A    between atoms: C_7  and  C_8
REMARK    4  A    between atoms: C_8  and  C_9
REMARK    5  A    between atoms: C_8  and  C_10
REMARK    6  A    between atoms: C_10  and  N_11
REMARK    7  A    between atoms: C_15  and  C_16
REMARK    8  A    between atoms: C_22  and  C_23
REMARK    9  A    between atoms: C_29  and  C_30
REMARK                            x       y       z     vdW  Elec       q    Type
REMARK                         _______ _______ _______ _____ _____    ______ ____
ROOT
ATOM      1  C   UNL     1      46.742   8.697  12.209  0.00  0.00    +0.000 A 
ATOM      2  C   UNL     1      46.464   7.319  12.210  0.00  0.00    +0.000 A 
ATOM      3  C   UNL     1      45.225   6.785  11.813  0.00  0.00    +0.000 A 
ATOM      4  C   UNL     1      44.228   7.669  11.390  0.00  0.00    +0.000 A 
ATOM      5  C   UNL     1      44.470   9.049  11.351  0.00  0.00    +0.000 A 
ATOM      6  C   UNL     1      45.731   9.539  11.738  0.00  0.00    +0.000 A 
ENDROOT
BRANCH   1  10
ATOM      7  C   UNL     1      48.881   6.965  14.764  0.00  0.00    +0.000 C 
ATOM      8  C   UNL     1      49.386   8.391  14.554  0.00  0.00    +0.000 C 
ATOM      9  C   UNL     1      48.284   9.362  14.080  0.00  0.00    +0.000 C 
ATOM     10  N   UNL     1      47.960   9.162  12.660  0.00  0.00    +0.000 N 
ATOM     11  C   UNL     1      49.140   9.144  11.777  0.00  0.00    +0.000 C 
ATOM     12  C   UNL     1      50.199   8.153  12.309  0.00  0.00    +0.000 C 
ATOM     13  C   UNL     1      51.482   8.256  11.491  0.00  0.00    +0.000 C 
ATOM     14  O   UNL     1      50.535   8.417  13.683  0.00  0.00    +0.000 OA
ENDBRANCH   1  10
BRANCH   5  15
ATOM     15  C   UNL     1      43.389  10.021  10.942  0.00  0.00    +0.000 C 
ATOM     16  F   UNL     1      43.698  10.741   9.828  0.00  0.00    +0.000 F 
ATOM     17  F   UNL     1      42.211   9.395  10.663  0.00  0.00    +0.000 F 
ATOM     18  F   UNL     1      43.106  10.932  11.912  0.00  0.00    +0.000 F 
ENDBRANCH   5  15
BRANCH   3  19
ATOM     19  C   UNL     1      44.943   5.286  11.899  0.00  0.00    +0.000 C 
ATOM     20  C   UNL     1      44.785   4.830  13.351  0.00  0.00    +0.000 C 
BRANCH  19  21
ATOM     21  C   UNL     1      43.717   4.949  11.025  0.00  0.00    +0.000 C 
BRANCH  21  22
ATOM     22  N   UNL     1      43.999   5.005   9.594  0.00  0.00    +0.000 N 
ATOM     23  C   UNL     1      44.796   3.992   9.060  0.00  0.00    +0.000 A 
ATOM     24  C   UNL     1      44.773   2.665   9.507  0.00  0.00    +0.000 A 
ATOM     25  N   UNL     1      45.525   1.660   8.983  0.00  0.00    +0.000 NA
ATOM     26  C   UNL     1      46.302   2.042   7.935  0.00  0.00    +0.000 A 
ATOM     27  C   UNL     1      46.325   3.342   7.463  0.00  0.00    +0.000 A 
ATOM     28  N   UNL     1      45.581   4.341   8.024  0.00  0.00    +0.000 NA
ATOM     29  H   UNL     1      44.367   5.880   9.231  0.00  0.00    +0.000 HD
BRANCH  26  30
ATOM     30  C   UNL     1      47.144   0.993   7.301  0.00  0.00    +0.000 C 
ATOM     31  N   UNL     1      46.872  -0.299   7.664  0.00  0.00    +0.000 N 
ATOM     32  O   UNL     1      48.032   1.265   6.509  0.00  0.00    +0.000 OA
ATOM     33  H   UNL     1      46.127  -0.503   8.325  0.00  0.00    +0.000 HD
ATOM     34  H   UNL     1      47.410  -1.052   7.257  0.00  0.00    +0.000 HD
ENDBRANCH  26  30
ENDBRANCH  21  22
ENDBRANCH  19  21
ENDBRANCH   3  19
TORSDOF 6
ENDMDL
MODEL 3
REMARK VINA RESULT:    -8.262      2.902      3.823
REMARK INTER + INTRA:         -12.440
REMARK INTER:                 -11.192
REMARK INTRA:                  -1.248
REMARK UNBOUND:                -1.279
REMARK  Name = 
REMARK  9 active torsions:
REMARK  status: ('A' for Active; 'I' for Inactive)
REMARK    1  A    between atoms: C_1  and  C_2
REMARK    2  A    between atoms: N_4  and  C_5
REMARK    3  A    between atoms: C_7  and  C_8
REMARK    4  A    between atoms: C_8  and  C_9
REMARK    5  A    between atoms: C_8  and  C_10
REMARK    6  A    between atoms: C_10  and  N_11
REMARK    7  A    between atoms: C_15  and  C_16
REMARK    8  A    between atoms: C_22  and  C_23
REMARK    9  A    between atoms: C_29  and  C_30
REMARK                            x       y       z     vdW  Elec       q    Type
REMARK                         _______ _______ _______ _____ _____    ______ ____
ROOT
ATOM      1  C   UNL     1      46.655   6.450  13.191  0.00  0.00    +0.000 A 
ATOM      2  C   UNL     1      45.541   5.627  12.957  0.00  0.00    +0.000 A 
ATOM      3  C   UNL     1      44.347   6.097  12.380  0.00  0.00    +0.000 A 
ATOM      4  C   UNL     1      44.274   7.444  12.015  0.00  0.00    +0.000 A 
ATOM      5  C   UNL     1      45.370   8.295  12.208  0.00  0.00    +0.000 A 
ATOM      6  C   UNL     1      46.552   7.779  12.772  0.00  0.00    +0.000 A 
ENDROOT
BRANCH   1  10
ATOM      7  C   UNL     1      48.609   8.217  15.868  0.00  0.00    +0.000 C 
ATOM      8  C   UNL     1      49.416   7.033  15.342  0.00  0.00    +0.000 C 
ATOM      9  C   UNL     1      49.063   6.655  13.888  0.00  0.00    +0.000 C 
ATOM     10  N   UNL     1      47.780   5.941  13.810  0.00  0.00    +0.000 N 
ATOM     11  C   UNL     1      47.668   4.811  14.750  0.00  0.00    +0.000 C 
ATOM     12  C   UNL     1      48.034   5.260  16.181  0.00  0.00    +0.000 C 
ATOM     13  C   UNL     1      48.080   4.059  17.120  0.00  0.00    +0.000 C 
ATOM     14  O   UNL     1      49.322   5.899  16.228  0.00  0.00    +0.000 OA
ENDBRANCH   1  10
BRANCH   5  15
ATOM     15  C   UNL     1      45.291   9.763  11.864  0.00  0.00    +0.000 C 
ATOM     16  F   UNL     1      45.109  10.001  10.535  0.00  0.00    +0.000 F 
ATOM     17  F   UNL     1      44.258  10.387  12.498  0.00  0.00    +0.000 F 
ATOM     18  F   UNL     1      46.413  10.448  12.217  0.00  0.00    +0.000 F 
ENDBRANCH   5  15
BRANCH   3  19
ATOM     19  C   UNL     1      43.135   5.183  12.211  0.00  0.00    +0.000 C 
ATOM     20  C   UNL     1      41.890   5.974  11.802  0.00  0.00    +0.000 C 
BRANCH  19  21
ATOM     21  C   UNL     1      43.485   4.055  11.216  0.00  0.00    +0.000 C 
BRANCH  21  22
ATOM     22  N   UNL     1      43.786   4.547   9.875  0.00  0.00    +0.000 N 
ATOM     23  C   UNL     1      44.744   3.850   9.139  0.00  0.00    +0.000 A 
ATOM     24  C   UNL     1      44.921   2.462   9.208  0.00  0.00    +0.000 A 
ATOM     25  N   UNL     1      45.833   1.763   8.481  0.00  0.00    +0.000 NA
ATOM     26  C   UNL     1      46.564   2.529   7.628  0.00  0.00    +0.000 A 
ATOM     27  C   UNL     1      46.391   3.899   7.528  0.00  0.00    +0.000 A 
ATOM     28  N   UNL     1      45.487   4.583   8.289  0.00  0.00    +0.000 NA
ATOM     29  H   UNL     1      44.019   5.533   9.788  0.00  0.00    +0.000 HD
BRANCH  26  30
ATOM     30  C   UNL     1      47.574   1.833   6.789  0.00  0.00    +0.000 C 
ATOM     31  N   UNL     1      48.646   2.585   6.387  0.00  0.00    +0.000 N 
ATOM     32  O   UNL     1      47.455   0.660   6.469  0.00  0.00    +0.000 OA
ATOM     33  H   UNL     1      48.725   3.559   6.666  0.00  0.00    +0.000 HD
ATOM     34  H   UNL     1      49.366   2.158   5.820  0.00  0.00    +0.000 HD
ENDBRANCH  26  30
ENDBRANCH  21  22
ENDBRANCH  19  21
ENDBRANCH   3  19
TORSDOF 6
ENDMDL
MODEL 4
REMARK VINA RESULT:    -8.036      2.884      4.394
REMARK INTER + INTRA:         -12.134
REMARK INTER:                 -11.808
REMARK INTRA:                  -0.325
REMARK UNBOUND:                -1.279
REMARK  Name = 
REMARK  9 active torsions:
REMARK  status: ('A' for Active; 'I' for Inactive)
REMARK    1  A    between atoms: C_1  and  C_2
REMARK    2  A    between atoms: N_4  and  C_5
REMARK    3  A    between atoms: C_7  and  C_8
REMARK    4  A    between atoms: C_8  and  C_9
REMARK    5  A    between atoms: C_8  and  C_10
REMARK    6  A    between atoms: C_10  and  N_11
REMARK    7  A    between atoms: C_15  and  C_16
REMARK    8  A    between atoms: C_22  and  C_23
REMARK    9  A    between atoms: C_29  and  C_30
REMARK                            x       y       z     vdW  Elec       q    Type
REMARK                         _______ _______ _______ _____ _____    ______ ____
ROOT
ATOM      1  C   UNL     1      47.320   5.377  14.823  0.00  0.00    +0.000 A 
ATOM      2  C   UNL     1      46.415   4.611  14.068  0.00  0.00    +0.000 A 
ATOM      3  C   UNL     1      46.123   4.878  12.718  0.00  0.00    +0.000 A 
ATOM      4  C   UNL     1      46.773   5.949  12.099  0.00  0.00    +0.000 A 
ATOM      5  C   UNL     1      47.701   6.724  12.807  0.00  0.00    +0.000 A 
ATOM      6  C   UNL     1      47.978   6.411  14.151  0.00  0.00    +0.000 A 
ENDROOT
BRANCH   1  10
ATOM      7  C   UNL     1      48.727   2.156  16.145  0.00  0.00    +0.000 C 
ATOM      8  C   UNL     1      48.117   2.957  17.292  0.00  0.00    +0.000 C 
ATOM      9  C   UNL     1      46.989   3.907  16.836  0.00  0.00    +0.000 C 
ATOM     10  N   UNL     1      47.524   5.098  16.159  0.00  0.00    +0.000 N 
ATOM     11  C   UNL     1      48.593   5.780  16.910  0.00  0.00    +0.000 C 
ATOM     12  C   UNL     1      49.685   4.773  17.332  0.00  0.00    +0.000 C 
ATOM     13  C   UNL     1      50.703   5.445  18.247  0.00  0.00    +0.000 C 
ATOM     14  O   UNL     1      49.131   3.652  18.045  0.00  0.00    +0.000 OA
ENDBRANCH   1  10
BRANCH   5  15
ATOM     15  C   UNL     1      48.377   7.914  12.168  0.00  0.00    +0.000 C 
ATOM     16  F   UNL     1      47.511   8.900  11.803  0.00  0.00    +0.000 F 
ATOM     17  F   UNL     1      49.280   8.503  13.002  0.00  0.00    +0.000 F 
ATOM     18  F   UNL     1      49.068   7.585  11.043  0.00  0.00    +0.000 F 
ENDBRANCH   5  15
BRANCH   3  19
ATOM     19  C   UNL     1      45.078   4.064  11.958  0.00  0.00    +0.000 C 
ATOM     20  C   UNL     1      44.395   3.040  12.868  0.00  0.00    +0.000 C 
BRANCH  19  21
ATOM     21  C   UNL     1      44.079   5.027  11.281  0.00  0.00    +0.000 C 
BRANCH  21  22
ATOM     22  N   UNL     1      44.424   5.328   9.895  0.00  0.00    +0.000 N 
ATOM     23  C   UNL     1      45.143   4.363   9.191  0.00  0.00    +0.000 A 
ATOM     24  C   UNL     1      44.978   2.984   9.369  0.00  0.00    +0.000 A 
ATOM     25  N   UNL     1      45.653   2.028   8.675  0.00  0.00    +0.000 NA
ATOM     26  C   UNL     1      46.504   2.525   7.739  0.00  0.00    +0.000 A 
ATOM     27  C   UNL     1      46.668   3.883   7.531  0.00  0.00    +0.000 A 
ATOM     28  N   UNL     1      45.999   4.824   8.259  0.00  0.00    +0.000 NA
ATOM     29  H   UNL     1      44.886   6.216   9.718  0.00  0.00    +0.000 HD
BRANCH  26  30
ATOM     30  C   UNL     1      47.269   1.539   6.931  0.00  0.00    +0.000 C 
ATOM     31  N   UNL     1      48.279   2.048   6.157  0.00  0.00    +0.000 N 
ATOM     32  O   UNL     1      47.011   0.345   6.947  0.00  0.00    +0.000 OA
ATOM     33  H   UNL     1      48.477   3.044   6.160  0.00  0.00    +0.000 HD
ATOM     34  H   UNL     1      48.835   1.420   5.593  0.00  0.00    +0.000 HD
ENDBRANCH  26  30
ENDBRANCH  21  22
ENDBRANCH  19  21
ENDBRANCH   3  19
TORSDOF 6
ENDMDL
MODEL 5
REMARK VINA RESULT:    -7.652      1.137      1.547
REMARK INTER + INTRA:         -11.615
REMARK INTER:                 -10.403
REMARK INTRA:                  -1.212
REMARK UNBOUND:                -1.279
REMARK  Name = 
REMARK  9 active torsions:
REMARK  status: ('A' for Active; 'I' for Inactive)
REMARK    1  A    between atoms: C_1  and  C_2
REMARK    2  A    between atoms: N_4  and  C_5
REMARK    3  A    between atoms: C_7  and  C_8
REMARK    4  A    between atoms: C_8  and  C_9
REMARK    5  A    between atoms: C_8  and  C_10
REMARK    6  A    between atoms: C_10  and  N_11
REMARK    7  A    between atoms: C_15  and  C_16
REMARK    8  A    between atoms: C_22  and  C_23
REMARK    9  A    between atoms: C_29  and  C_30
REMARK                            x       y       z     vdW  Elec       q    Type
REMARK                         _______ _______ _______ _____ _____    ______ ____
ROOT
ATOM      1  C   UNL     1      47.485   6.049  13.273  0.00  0.00    +0.000 A 
ATOM      2  C   UNL     1      46.201   5.713  12.811  0.00  0.00    +0.000 A 
ATOM      3  C   UNL     1      45.375   4.774  13.454  0.00  0.00    +0.000 A 
ATOM      4  C   UNL     1      45.853   4.154  14.611  0.00  0.00    +0.000 A 
ATOM      5  C   UNL     1      47.118   4.476  15.122  0.00  0.00    +0.000 A 
ATOM      6  C   UNL     1      47.904   5.436  14.457  0.00  0.00    +0.000 A 
ENDROOT
BRANCH   1  10
ATOM      7  C   UNL     1      46.611   9.651  12.666  0.00  0.00    +0.000 C 
ATOM      8  C   UNL     1      47.767   9.243  11.756  0.00  0.00    +0.000 C 
ATOM      9  C   UNL     1      47.782   7.735  11.431  0.00  0.00    +0.000 C 
ATOM     10  N   UNL     1      48.269   6.940  12.568  0.00  0.00    +0.000 N 
ATOM     11  C   UNL     1      49.540   7.427  13.134  0.00  0.00    +0.000 C 
ATOM     12  C   UNL     1      49.454   8.939  13.436  0.00  0.00    +0.000 C 
ATOM     13  C   UNL     1      50.816   9.475  13.863  0.00  0.00    +0.000 C 
ATOM     14  O   UNL     1      49.033   9.691  12.282  0.00  0.00    +0.000 OA
ENDBRANCH   1  10
BRANCH   5  15
ATOM     15  C   UNL     1      47.669   3.782  16.344  0.00  0.00    +0.000 C 
ATOM     16  F   UNL     1      48.793   4.369  16.843  0.00  0.00    +0.000 F 
ATOM     17  F   UNL     1      46.775   3.760  17.372  0.00  0.00    +0.000 F 
ATOM     18  F   UNL     1      47.998   2.483  16.108  0.00  0.00    +0.000 F 
ENDBRANCH   5  15
BRANCH   3  19
ATOM     19  C   UNL     1      44.016   4.386  12.874  0.00  0.00    +0.000 C 
ATOM     20  C   UNL     1      43.192   5.622  12.506  0.00  0.00    +0.000 C 
BRANCH  19  21
ATOM     21  C   UNL     1      44.227   3.427  11.683  0.00  0.00    +0.000 C 
BRANCH  21  22
ATOM     22  N   UNL     1      44.186   4.103  10.390  0.00  0.00    +0.000 N 
ATOM     23  C   UNL     1      45.031   3.620   9.390  0.00  0.00    +0.000 A 
ATOM     24  C   UNL     1      45.357   2.268   9.231  0.00  0.00    +0.000 A 
ATOM     25  N   UNL     1      46.159   1.776   8.249  0.00  0.00    +0.000 NA
ATOM     26  C   UNL     1      46.611   2.721   7.382  0.00  0.00    +0.000 A 
ATOM     27  C   UNL     1      46.285   4.060   7.507  0.00  0.00    +0.000 A 
ATOM     28  N   UNL     1      45.500   4.534   8.519  0.00  0.00    +0.000 NA
ATOM     29  H   UNL     1      44.295   5.113  10.394  0.00  0.00    +0.000 HD
BRANCH  26  30
ATOM     30  C   UNL     1      47.485   2.257   6.272  0.00  0.00    +0.000 C 
ATOM     31  N   UNL     1      47.451   3.005   5.125  0.00  0.00    +0.000 N 
ATOM     32  O   UNL     1      48.188   1.263   6.371  0.00  0.00    +0.000 OA
ATOM     33  H   UNL     1      46.859   3.829   5.065  0.00  0.00    +0.000 HD
ATOM     34  H   UNL     1      48.031   2.738   4.342  0.00  0.00    +0.000 HD
ENDBRANCH  26  30
ENDBRANCH  21  22
ENDBRANCH  19  21
ENDBRANCH   3  19
TORSDOF 6
ENDMDL
MODEL 6
REMARK VINA RESULT:    -7.286      3.093      3.895
REMARK INTER + INTRA:         -11.121
REMARK INTER:                  -9.953
REMARK INTRA:                  -1.168
REMARK UNBOUND:                -1.279
REMARK  Name = 
REMARK  9 active torsions:
REMARK  status: ('A' for Active; 'I' for Inactive)
REMARK    1  A    between atoms: C_1  and  C_2
REMARK    2  A    between atoms: N_4  and  C_5
REMARK    3  A    between atoms: C_7  and  C_8
REMARK    4  A    between atoms: C_8  and  C_9
REMARK    5  A    between atoms: C_8  and  C_10
REMARK    6  A    between atoms: C_10  and  N_11
REMARK    7  A    between atoms: C_15  and  C_16
REMARK    8  A    between atoms: C_22  and  C_23
REMARK    9  A    between atoms: C_29  and  C_30
REMARK                            x       y       z     vdW  Elec       q    Type
REMARK                         _______ _______ _______ _____ _____    ______ ____
ROOT
ATOM      1  C   UNL     1      46.470   7.791  12.841  0.00  0.00    +0.000 A 
ATOM      2  C   UNL     1      45.898   6.508  12.885  0.00  0.00    +0.000 A 
ATOM      3  C   UNL     1      44.664   6.197  12.285  0.00  0.00    +0.000 A 
ATOM      4  C   UNL     1      43.982   7.212  11.608  0.00  0.00    +0.000 A 
ATOM      5  C   UNL     1      44.528   8.500  11.520  0.00  0.00    +0.000 A 
ATOM      6  C   UNL     1      45.774   8.763  12.117  0.00  0.00    +0.000 A 
ENDROOT
BRANCH   1  10
ATOM      7  C   UNL     1      49.854   7.764  11.212  0.00  0.00    +0.000 C 
ATOM      8  C   UNL     1      50.016   7.767  12.730  0.00  0.00    +0.000 C 
ATOM      9  C   UNL     1      48.816   7.139  13.470  0.00  0.00    +0.000 C 
ATOM     10  N   UNL     1      47.659   8.046  13.494  0.00  0.00    +0.000 N 
ATOM     11  C   UNL     1      47.981   9.409  13.955  0.00  0.00    +0.000 C 
ATOM     12  C   UNL     1      49.187   9.974  13.174  0.00  0.00    +0.000 C 
ATOM     13  C   UNL     1      49.622  11.312  13.762  0.00  0.00    +0.000 C 
ATOM     14  O   UNL     1      50.319   9.087  13.223  0.00  0.00    +0.000 OA
ENDBRANCH   1  10
BRANCH   5  15
ATOM     15  C   UNL     1      43.783   9.620  10.833  0.00  0.00    +0.000 C 
ATOM     16  F   UNL     1      43.530  10.683  11.645  0.00  0.00    +0.000 F 
ATOM     17  F   UNL     1      44.472  10.121   9.769  0.00  0.00    +0.000 F 
ATOM     18  F   UNL     1      42.575   9.226  10.343  0.00  0.00    +0.000 F 
ENDBRANCH   5  15
BRANCH   3  19
ATOM     19  C   UNL     1      44.046   4.807  12.420  0.00  0.00    +0.000 C 
ATOM     20  C   UNL     1      42.741   4.850  13.219  0.00  0.00    +0.000 C 
BRANCH  19  21
ATOM     21  C   UNL     1      43.871   4.191  11.016  0.00  0.00    +0.000 C 
BRANCH  21  22
ATOM     22  N   UNL     1      44.758   3.056  10.774  0.00  0.00    +0.000 N 
ATOM     23  C   UNL     1      45.370   2.980   9.523  0.00  0.00    +0.000 A 
ATOM     24  C   UNL     1      45.788   4.097   8.790  0.00  0.00    +0.000 A 
ATOM     25  N   UNL     1      46.407   4.041   7.581  0.00  0.00    +0.000 NA
ATOM     26  C   UNL     1      46.632   2.777   7.134  0.00  0.00    +0.000 A 
ATOM     27  C   UNL     1      46.247   1.657   7.852  0.00  0.00    +0.000 A 
ATOM     28  N   UNL     1      45.600   1.740   9.052  0.00  0.00    +0.000 NA
ATOM     29  H   UNL     1      44.384   2.131  10.968  0.00  0.00    +0.000 HD
BRANCH  26  30
ATOM     30  C   UNL     1      47.317   2.634   5.823  0.00  0.00    +0.000 C 
ATOM     31  N   UNL     1      48.610   2.183   5.865  0.00  0.00    +0.000 N 
ATOM     32  O   UNL     1      46.766   2.910   4.769  0.00  0.00    +0.000 OA
ATOM     33  H   UNL     1      49.049   1.958   6.753  0.00  0.00    +0.000 HD
ATOM     34  H   UNL     1      49.120   2.061   5.001  0.00  0.00    +0.000 HD
ENDBRANCH  26  30
ENDBRANCH  21  22
ENDBRANCH  19  21
ENDBRANCH   3  19
TORSDOF 6
ENDMDL
MODEL 7
REMARK VINA RESULT:    -7.212      4.208      7.866
REMARK INTER + INTRA:         -11.022
REMARK INTER:                  -9.970
REMARK INTRA:                  -1.051
REMARK UNBOUND:                -1.279
REMARK  Name = 
REMARK  9 active torsions:
REMARK  status: ('A' for Active; 'I' for Inactive)
REMARK    1  A    between atoms: C_1  and  C_2
REMARK    2  A    between atoms: N_4  and  C_5
REMARK    3  A    between atoms: C_7  and  C_8
REMARK    4  A    between atoms: C_8  and  C_9
REMARK    5  A    between atoms: C_8  and  C_10
REMARK    6  A    between atoms: C_10  and  N_11
REMARK    7  A    between atoms: C_15  and  C_16
REMARK    8  A    between atoms: C_22  and  C_23
REMARK    9  A    between atoms: C_29  and  C_30
REMARK                            x       y       z     vdW  Elec       q    Type
REMARK                         _______ _______ _______ _____ _____    ______ ____
ROOT
ATOM      1  C   UNL     1      45.939   6.554  11.869  0.00  0.00    +0.000 A 
ATOM      2  C   UNL     1      47.281   6.772  12.224  0.00  0.00    +0.000 A 
ATOM      3  C   UNL     1      47.836   8.056  12.375  0.00  0.00    +0.000 A 
ATOM      4  C   UNL     1      47.010   9.163  12.171  0.00  0.00    +0.000 A 
ATOM      5  C   UNL     1      45.659   8.993  11.840  0.00  0.00    +0.000 A 
ATOM      6  C   UNL     1      45.139   7.691  11.717  0.00  0.00    +0.000 A 
ENDROOT
BRANCH   1  10
ATOM      7  C   UNL     1      42.306   5.610  11.745  0.00  0.00    +0.000 C 
ATOM      8  C   UNL     1      43.158   4.352  11.894  0.00  0.00    +0.000 C 
ATOM      9  C   UNL     1      44.511   4.613  12.589  0.00  0.00    +0.000 C 
ATOM     10  N   UNL     1      45.466   5.271  11.684  0.00  0.00    +0.000 N 
ATOM     11  C   UNL     1      45.601   4.606  10.375  0.00  0.00    +0.000 C 
ATOM     12  C   UNL     1      44.212   4.378   9.739  0.00  0.00    +0.000 C 
ATOM     13  C   UNL     1      44.341   3.545   8.468  0.00  0.00    +0.000 C 
ATOM     14  O   UNL     1      43.325   3.678  10.630  0.00  0.00    +0.000 OA
ENDBRANCH   1  10
BRANCH   5  15
ATOM     15  C   UNL     1      44.763  10.178  11.570  0.00  0.00    +0.000 C 
ATOM     16  F   UNL     1      45.393  11.378  11.707  0.00  0.00    +0.000 F 
ATOM     17  F   UNL     1      44.259  10.166  10.304  0.00  0.00    +0.000 F 
ATOM     18  F   UNL     1      43.685  10.223  12.400  0.00  0.00    +0.000 F 
ENDBRANCH   5  15
BRANCH   3  19
ATOM     19  C   UNL     1      49.319   8.245  12.690  0.00  0.00    +0.000 C 
ATOM     20  C   UNL     1      49.925   9.384  11.867  0.00  0.00    +0.000 C 
BRANCH  19  21
ATOM     21  C   UNL     1      49.493   8.443  14.211  0.00  0.00    +0.000 C 
BRANCH  21  22
ATOM     22  N   UNL     1      50.306   7.404  14.835  0.00  0.00    +0.000 N 
ATOM     23  C   UNL     1      49.641   6.444  15.597  0.00  0.00    +0.000 A 
ATOM     24  C   UNL     1      48.364   5.956  15.293  0.00  0.00    +0.000 A 
ATOM     25  N   UNL     1      47.710   5.003  16.011  0.00  0.00    +0.000 NA
ATOM     26  C   UNL     1      48.423   4.517  17.061  0.00  0.00    +0.000 A 
ATOM     27  C   UNL     1      49.694   4.969  17.367  0.00  0.00    +0.000 A 
ATOM     28  N   UNL     1      50.320   5.947  16.648  0.00  0.00    +0.000 NA
ATOM     29  H   UNL     1      51.100   7.712  15.391  0.00  0.00    +0.000 HD
BRANCH  26  30
ATOM     30  C   UNL     1      47.778   3.462  17.886  0.00  0.00    +0.000 C 
ATOM     31  N   UNL     1      48.438   3.104  19.031  0.00  0.00    +0.000 N 
ATOM     32  O   UNL     1      46.724   2.937  17.561  0.00  0.00    +0.000 OA
ATOM     33  H   UNL     1      49.314   3.554  19.283  0.00  0.00    +0.000 HD
ATOM     34  H   UNL     1      48.039   2.396  19.632  0.00  0.00    +0.000 HD
ENDBRANCH  26  30
ENDBRANCH  21  22
ENDBRANCH  19  21
ENDBRANCH   3  19
TORSDOF 6
ENDMDL
MODEL 8
REMARK VINA RESULT:    -7.166      4.938      8.179
REMARK INTER + INTRA:         -10.959
REMARK INTER:                 -10.243
REMARK INTRA:                  -0.716
REMARK UNBOUND:                -1.279
REMARK  Name = 
REMARK  9 active torsions:
REMARK  status: ('A' for Active; 'I' for Inactive)
REMARK    1  A    between atoms: C_1  and  C_2
REMARK    2  A    between atoms: N_4  and  C_5
REMARK    3  A    between atoms: C_7  and  C_8
REMARK    4  A    between atoms: C_8  and  C_9
REMARK    5  A    between atoms: C_8  and  C_10
REMARK    6  A    between atoms: C_10  and  N_11
REMARK    7  A    between atoms: C_15  and  C_16
REMARK    8  A    between atoms: C_22  and  C_23
REMARK    9  A    between atoms: C_29  and  C_30
REMARK                            x       y       z     vdW  Elec       q    Type
REMARK                         _______ _______ _______ _____ _____    ______ ____
ROOT
ATOM      1  C   UNL     1      46.099   5.014  13.244  0.00  0.00    +0.000 A 
ATOM      2  C   UNL     1      46.688   4.859  14.511  0.00  0.00    +0.000 A 
ATOM      3  C   UNL     1      47.768   5.643  14.956  0.00  0.00    +0.000 A 
ATOM      4  C   UNL     1      48.270   6.627  14.100  0.00  0.00    +0.000 A 
ATOM      5  C   UNL     1      47.698   6.832  12.837  0.00  0.00    +0.000 A 
ATOM      6  C   UNL     1      46.606   6.038  12.438  0.00  0.00    +0.000 A 
ENDROOT
BRANCH   1  10
ATOM      7  C   UNL     1      43.074   6.112  11.309  0.00  0.00    +0.000 C 
ATOM      8  C   UNL     1      42.846   4.708  11.864  0.00  0.00    +0.000 C 
ATOM      9  C   UNL     1      43.658   4.422  13.145  0.00  0.00    +0.000 C 
ATOM     10  N   UNL     1      45.076   4.179  12.844  0.00  0.00    +0.000 N 
ATOM     11  C   UNL     1      45.297   3.183  11.779  0.00  0.00    +0.000 C 
ATOM     12  C   UNL     1      44.457   3.531  10.531  0.00  0.00    +0.000 C 
ATOM     13  C   UNL     1      44.557   2.417   9.495  0.00  0.00    +0.000 C 
ATOM     14  O   UNL     1      43.065   3.702  10.855  0.00  0.00    +0.000 OA
ENDBRANCH   1  10
BRANCH   5  15
ATOM     15  C   UNL     1      48.258   7.857  11.881  0.00  0.00    +0.000 C 
ATOM     16  F   UNL     1      49.456   8.372  12.275  0.00  0.00    +0.000 F 
ATOM     17  F   UNL     1      48.467   7.342  10.637  0.00  0.00    +0.000 F 
ATOM     18  F   UNL     1      47.430   8.924  11.709  0.00  0.00    +0.000 F 
ENDBRANCH   5  15
BRANCH   3  19
ATOM     19  C   UNL     1      48.424   5.391  16.313  0.00  0.00    +0.000 C 
ATOM     20  C   UNL     1      48.699   6.702  17.053  0.00  0.00    +0.000 C 
BRANCH  19  21
ATOM     21  C   UNL     1      47.548   4.413  17.125  0.00  0.00    +0.000 C 
BRANCH  21  22
ATOM     22  N   UNL     1      48.068   3.049  17.132  0.00  0.00    +0.000 N 
ATOM     23  C   UNL     1      49.428   2.885  17.395  0.00  0.00    +0.000 A 
ATOM     24  C   UNL     1      50.155   3.695  18.276  0.00  0.00    +0.000 A 
ATOM     25  N   UNL     1      51.475   3.535  18.561  0.00  0.00    +0.000 NA
ATOM     26  C   UNL     1      52.050   2.474  17.935  0.00  0.00    +0.000 A 
ATOM     27  C   UNL     1      51.346   1.648  17.077  0.00  0.00    +0.000 A 
ATOM     28  N   UNL     1      50.027   1.845  16.783  0.00  0.00    +0.000 NA
ATOM     29  H   UNL     1      47.860   2.473  16.321  0.00  0.00    +0.000 HD
BRANCH  26  30
ATOM     30  C   UNL     1      53.491   2.228  18.208  0.00  0.00    +0.000 C 
ATOM     31  N   UNL     1      54.377   3.019  17.527  0.00  0.00    +0.000 N 
ATOM     32  O   UNL     1      53.866   1.365  18.987  0.00  0.00    +0.000 OA
ATOM     33  H   UNL     1      54.043   3.731  16.884  0.00  0.00    +0.000 HD
ATOM     34  H   UNL     1      55.369   2.898  17.681  0.00  0.00    +0.000 HD
ENDBRANCH  26  30
ENDBRANCH  21  22
ENDBRANCH  19  21
ENDBRANCH   3  19
TORSDOF 6
ENDMDL
MODEL 9
REMARK VINA RESULT:    -6.867      4.268      6.790
REMARK INTER + INTRA:         -10.556
REMARK INTER:                  -9.265
REMARK INTRA:                  -1.290
REMARK UNBOUND:                -1.279
REMARK  Name = 
REMARK  9 active torsions:
REMARK  status: ('A' for Active; 'I' for Inactive)
REMARK    1  A    between atoms: C_1  and  C_2
REMARK    2  A    between atoms: N_4  and  C_5
REMARK    3  A    between atoms: C_7  and  C_8
REMARK    4  A    between atoms: C_8  and  C_9
REMARK    5  A    between atoms: C_8  and  C_10
REMARK    6  A    between atoms: C_10  and  N_11
REMARK    7  A    between atoms: C_15  and  C_16
REMARK    8  A    between atoms: C_22  and  C_23
REMARK    9  A    between atoms: C_29  and  C_30
REMARK                            x       y       z     vdW  Elec       q    Type
REMARK                         _______ _______ _______ _____ _____    ______ ____
ROOT
ATOM      1  C   UNL     1      48.811   6.816  17.966  0.00  0.00    +0.000 A 
ATOM      2  C   UNL     1      49.082   7.047  16.606  0.00  0.00    +0.000 A 
ATOM      3  C   UNL     1      48.859   8.286  15.979  0.00  0.00    +0.000 A 
ATOM      4  C   UNL     1      48.352   9.336  16.748  0.00  0.00    +0.000 A 
ATOM      5  C   UNL     1      48.089   9.157  18.113  0.00  0.00    +0.000 A 
ATOM      6  C   UNL     1      48.345   7.907  18.706  0.00  0.00    +0.000 A 
ENDROOT
BRANCH   1  10
ATOM      7  C   UNL     1      47.578   3.611  16.446  0.00  0.00    +0.000 C 
ATOM      8  C   UNL     1      48.015   3.360  17.887  0.00  0.00    +0.000 C 
ATOM      9  C   UNL     1      47.911   4.614  18.781  0.00  0.00    +0.000 C 
ATOM     10  N   UNL     1      49.002   5.563  18.511  0.00  0.00    +0.000 N 
ATOM     11  C   UNL     1      50.342   4.949  18.522  0.00  0.00    +0.000 C 
ATOM     12  C   UNL     1      50.374   3.704  17.609  0.00  0.00    +0.000 C 
ATOM     13  C   UNL     1      51.706   2.976  17.749  0.00  0.00    +0.000 C 
ATOM     14  O   UNL     1      49.330   2.770  17.942  0.00  0.00    +0.000 OA
ENDBRANCH   1  10
BRANCH   5  15
ATOM     15  C   UNL     1      47.497  10.267  18.948  0.00  0.00    +0.000 C 
ATOM     16  F   UNL     1      48.369  10.791  19.854  0.00  0.00    +0.000 F 
ATOM     17  F   UNL     1      47.077  11.317  18.187  0.00  0.00    +0.000 F 
ATOM     18  F   UNL     1      46.410   9.866  19.663  0.00  0.00    +0.000 F 
ENDBRANCH   5  15
BRANCH   3  19
ATOM     19  C   UNL     1      49.100   8.470  14.481  0.00  0.00    +0.000 C 
ATOM     20  C   UNL     1      50.595   8.521  14.158  0.00  0.00    +0.000 C 
BRANCH  19  21
ATOM     21  C   UNL     1      48.355   7.362  13.707  0.00  0.00    +0.000 C 
BRANCH  21  22
ATOM     22  N   UNL     1      46.908   7.553  13.685  0.00  0.00    +0.000 N 
ATOM     23  C   UNL     1      46.131   6.491  13.223  0.00  0.00    +0.000 A 
ATOM     24  C   UNL     1      46.448   5.143  13.432  0.00  0.00    +0.000 A 
ATOM     25  N   UNL     1      45.691   4.096  13.008  0.00  0.00    +0.000 NA
ATOM     26  C   UNL     1      44.546   4.464  12.375  0.00  0.00    +0.000 A 
ATOM     27  C   UNL     1      44.201   5.790  12.175  0.00  0.00    +0.000 A 
ATOM     28  N   UNL     1      44.992   6.825  12.585  0.00  0.00    +0.000 NA
ATOM     29  H   UNL     1      46.560   8.387  13.221  0.00  0.00    +0.000 HD
BRANCH  26  30
ATOM     30  C   UNL     1      43.658   3.373  11.894  0.00  0.00    +0.000 C 
ATOM     31  N   UNL     1      43.720   2.195  12.590  0.00  0.00    +0.000 N 
ATOM     32  O   UNL     1      42.922   3.512  10.930  0.00  0.00    +0.000 OA
ATOM     33  H   UNL     1      44.340   2.101  13.389  0.00  0.00    +0.000 HD
ATOM     34  H   UNL     1      43.132   1.422  12.309  0.00  0.00    +0.000 HD
ENDBRANCH  26  30
ENDBRANCH  21  22
ENDBRANCH  19  21
ENDBRANCH   3  19
TORSDOF 6
ENDMDL
