MODEL 1
REMARK VINA RESULT:    -7.851      0.000      0.000
REMARK INTER + INTRA:         -10.843
REMARK INTER:                 -10.146
REMARK INTRA:                  -0.697
REMARK UNBOUND:                -0.697
REMARK  Name = 
REMARK  7 active torsions:
REMARK  status: ('A' for Active; 'I' for Inactive)
REMARK    1  A    between atoms: C_1  and  C_2
REMARK    2  A    between atoms: C_2  and  C_3
REMARK    3  A    between atoms: C_6  and  C_7
REMARK    4  A    between atoms: C_7  and  C_8
REMARK    5  A    between atoms: C_7  and  N_9
REMARK    6  A    between atoms: N_9  and  C_10
REMARK    7  A    between atoms: C_13  and  C_14
REMARK                            x       y       z     vdW  Elec       q    Type
REMARK                         _______ _______ _______ _____ _____    ______ ____
ROOT
ATOM      1  N   UNL     1      43.751   4.756   9.908  0.00  0.00    +0.000 N 
ATOM      2  H   UNL     1      43.831   5.708   9.546  0.00  0.00    +0.000 HD
ENDROOT
BRANCH   1   3
ATOM      3  C   UNL     1      44.655   3.899   9.285  0.00  0.00    +0.000 A 
ATOM      4  C   UNL     1      44.693   2.520   9.410  0.00  0.00    +0.000 A 
ATOM      5  N   UNL     1      45.526   1.696   8.734  0.00  0.00    +0.000 NA
ATOM      6  C   UNL     1      46.356   2.303   7.856  0.00  0.00    +0.000 A 
ATOM      7  N   UNL     1      46.402   3.622   7.607  0.00  0.00    +0.000 NA
ATOM      8  C   UNL     1      45.536   4.374   8.317  0.00  0.00    +0.000 A 
BRANCH   6   9
ATOM      9  C   UNL     1      47.301   1.401   7.093  0.00  0.00    +0.000 C 
ATOM     10  N   UNL     1      48.414   2.021   6.572  0.00  0.00    +0.000 N 
ATOM     11  O   UNL     1      47.126   0.201   6.927  0.00  0.00    +0.000 OA
ATOM     12  H   UNL     1      48.560   3.013   6.720  0.00  0.00    +0.000 HD
ATOM     13  H   UNL     1      49.087   1.470   6.059  0.00  0.00    +0.000 HD
ENDBRANCH   6   9
ENDBRANCH   1   3
BRANCH   1  14
ATOM     14  C   UNL     1      43.559   4.761  11.367  0.00  0.00    +0.000 C 
ATOM     15  C   UNL     1      42.328   5.579  11.764  0.00  0.00    +0.000 C 
BRANCH  14  19
ATOM     16  C   UNL     1      47.230   6.373  13.055  0.00  0.00    +0.000 A 
ATOM     17  C   UNL     1      46.773   5.101  13.422  0.00  0.00    +0.000 A 
ATOM     18  C   UNL     1      45.579   4.595  12.899  0.00  0.00    +0.000 A 
ATOM     19  C   UNL     1      44.816   5.352  11.998  0.00  0.00    +0.000 A 
ATOM     20  C   UNL     1      45.265   6.640  11.659  0.00  0.00    +0.000 A 
ATOM     21  C   UNL     1      46.459   7.143  12.178  0.00  0.00    +0.000 A 
BRANCH  16  23
ATOM     22  C   UNL     1      49.460   7.290  12.383  0.00  0.00    +0.000 C 
ATOM     23  C   UNL     1      48.564   6.879  13.544  0.00  0.00    +0.000 C 
ENDBRANCH  16  23
ENDBRANCH  14  19
ENDBRANCH   1  14
TORSDOF 5
ENDMDL
MODEL 2
REMARK VINA RESULT:    -7.134      3.294      6.167
REMARK INTER + INTRA:          -9.916
REMARK INTER:                 -10.121
REMARK INTRA:                   0.205
REMARK UNBOUND:                -0.697
REMARK  Name = 
REMARK  7 active torsions:
REMARK  status: ('A' for Active; 'I' for Inactive)
REMARK    1  A    between atoms: C_1  and  C_2
REMARK    2  A    between atoms: C_2  and  C_3
REMARK    3  A    between atoms: C_6  and  C_7
REMARK    4  A    between atoms: C_7  and  C_8
REMARK    5  A    between atoms: C_7  and  N_9
REMARK    6  A    between atoms: N_9  and  C_10
REMARK    7  A    between atoms: C_13  and  C_14
REMARK                            x       y       z     vdW  Elec       q    Type
REMARK                         _______ _______ _______ _____ _____    ______ ____
ROOT
ATOM      1  N   UNL     1      44.639   5.777  10.926  0.00  0.00    +0.000 N 
ATOM      2  H   UNL     1      44.144   6.668  10.998  0.00  0.00    +0.000 HD
ENDROOT
BRANCH   1   3
ATOM      3  C   UNL     1      45.320   5.481  12.104  0.00  0.00    +0.000 A 
ATOM      4  C   UNL     1      44.844   4.710  13.152  0.00  0.00    +0.000 A 
ATOM      5  N   UNL     1      45.550   4.364  14.253  0.00  0.00    +0.000 NA
ATOM      6  C   UNL     1      46.828   4.804  14.283  0.00  0.00    +0.000 A 
ATOM      7  N   UNL     1      47.430   5.526  13.324  0.00  0.00    +0.000 NA
ATOM      8  C   UNL     1      46.660   5.824  12.257  0.00  0.00    +0.000 A 
BRANCH   6   9
ATOM      9  C   UNL     1      47.635   4.435  15.509  0.00  0.00    +0.000 C 
ATOM     10  N   UNL     1      47.967   5.486  16.334  0.00  0.00    +0.000 N 
ATOM     11  O   UNL     1      47.989   3.296  15.784  0.00  0.00    +0.000 OA
ATOM     12  H   UNL     1      47.664   6.426  16.107  0.00  0.00    +0.000 HD
ATOM     13  H   UNL     1      48.498   5.302  17.172  0.00  0.00    +0.000 HD
ENDBRANCH   6   9
ENDBRANCH   1   3
BRANCH   1  14
ATOM     14  C   UNL     1      43.822   4.775  10.224  0.00  0.00    +0.000 C 
ATOM     15  C   UNL     1      43.049   3.895  11.210  0.00  0.00    +0.000 C 
BRANCH  14  19
ATOM     16  C   UNL     1      46.378   2.318   7.702  0.00  0.00    +0.000 A 
ATOM     17  C   UNL     1      45.587   1.736   8.701  0.00  0.00    +0.000 A 
ATOM     18  C   UNL     1      44.787   2.530   9.528  0.00  0.00    +0.000 A 
ATOM     19  C   UNL     1      44.761   3.923   9.375  0.00  0.00    +0.000 A 
ATOM     20  C   UNL     1      45.580   4.503   8.392  0.00  0.00    +0.000 A 
ATOM     21  C   UNL     1      46.377   3.710   7.563  0.00  0.00    +0.000 A 
BRANCH  16  23
ATOM     22  C   UNL     1      47.820   2.294   5.657  0.00  0.00    +0.000 C 
ATOM     23  C   UNL     1      47.167   1.457   6.749  0.00  0.00    +0.000 C 
ENDBRANCH  16  23
ENDBRANCH  14  19
ENDBRANCH   1  14
TORSDOF 5
ENDMDL
MODEL 3
REMARK VINA RESULT:    -7.033      3.810      6.813
REMARK INTER + INTRA:          -9.785
REMARK INTER:                  -9.245
REMARK INTRA:                  -0.541
REMARK UNBOUND:                -0.697
REMARK  Name = 
REMARK  7 active torsions:
REMARK  status: ('A' for Active; 'I' for Inactive)
REMARK    1  A    between atoms: C_1  and  C_2
REMARK    2  A    between atoms: C_2  and  C_3
REMARK    3  A    between atoms: C_6  and  C_7
REMARK    4  A    between atoms: C_7  and  C_8
REMARK    5  A    between atoms: C_7  and  N_9
REMARK    6  A    between atoms: N_9  and  C_10
REMARK    7  A    between atoms: C_13  and  C_14
REMARK                            x       y       z     vdW  Elec       q    Type
REMARK                         _______ _______ _______ _____ _____    ______ ____
ROOT
ATOM      1  N   UNL     1      45.152   4.281  12.187  0.00  0.00    +0.000 N 
ATOM      2  H   UNL     1      45.397   3.298  12.052  0.00  0.00    +0.000 HD
ENDROOT
BRANCH   1   3
ATOM      3  C   UNL     1      46.132   4.952  12.913  0.00  0.00    +0.000 A 
ATOM      4  C   UNL     1      46.478   6.287  12.779  0.00  0.00    +0.000 A 
ATOM      5  N   UNL     1      47.376   6.945  13.548  0.00  0.00    +0.000 NA
ATOM      6  C   UNL     1      47.940   6.211  14.534  0.00  0.00    +0.000 A 
ATOM      7  N   UNL     1      47.673   4.923  14.802  0.00  0.00    +0.000 NA
ATOM      8  C   UNL     1      46.763   4.342  13.993  0.00  0.00    +0.000 A 
BRANCH   6   9
ATOM      9  C   UNL     1      48.953   6.925  15.404  0.00  0.00    +0.000 C 
ATOM     10  N   UNL     1      48.468   8.008  16.102  0.00  0.00    +0.000 N 
ATOM     11  O   UNL     1      50.127   6.597  15.506  0.00  0.00    +0.000 OA
ATOM     12  H   UNL     1      47.493   8.270  16.022  0.00  0.00    +0.000 HD
ATOM     13  H   UNL     1      49.094   8.520  16.706  0.00  0.00    +0.000 HD
ENDBRANCH   6   9
ENDBRANCH   1   3
BRANCH   1  14
ATOM     14  C   UNL     1      44.558   4.849  10.967  0.00  0.00    +0.000 C 
ATOM     15  C   UNL     1      43.029   4.792  11.012  0.00  0.00    +0.000 C 
BRANCH  14  19
ATOM     16  C   UNL     1      46.203   2.568   7.647  0.00  0.00    +0.000 A 
ATOM     17  C   UNL     1      46.266   3.967   7.654  0.00  0.00    +0.000 A 
ATOM     18  C   UNL     1      45.713   4.700   8.709  0.00  0.00    +0.000 A 
ATOM     19  C   UNL     1      45.084   4.048   9.779  0.00  0.00    +0.000 A 
ATOM     20  C   UNL     1      44.996   2.646   9.750  0.00  0.00    +0.000 A 
ATOM     21  C   UNL     1      45.552   1.914   8.699  0.00  0.00    +0.000 A 
BRANCH  16  23
ATOM     22  C   UNL     1      47.379   2.680   5.441  0.00  0.00    +0.000 C 
ATOM     23  C   UNL     1      46.882   1.774   6.559  0.00  0.00    +0.000 C 
ENDBRANCH  16  23
ENDBRANCH  14  19
ENDBRANCH   1  14
TORSDOF 5
ENDMDL
MODEL 4
REMARK VINA RESULT:    -6.480      3.636      6.537
REMARK INTER + INTRA:          -9.071
REMARK INTER:                  -8.635
REMARK INTRA:                  -0.436
REMARK UNBOUND:                -0.697
REMARK  Name = 
REMARK  7 active torsions:
REMARK  status: ('A' for Active; 'I' for Inactive)
REMARK    1  A    between atoms: C_1  and  C_2
REMARK    2  A    between atoms: C_2  and  C_3
REMARK    3  A    between atoms: C_6  and  C_7
REMARK    4  A    between atoms: C_7  and  C_8
REMARK    5  A    between atoms: C_7  and  N_9
REMARK    6  A    between atoms: N_9  and  C_10
REMARK    7  A    between atoms: C_13  and  C_14
REMARK                            x       y       z     vdW  Elec       q    Type
REMARK                         _______ _______ _______ _____ _____    ______ ____
ROOT
ATOM      1  N   UNL     1      45.151   4.531  12.360  0.00  0.00    +0.000 N 
ATOM      2  H   UNL     1      45.888   3.832  12.468  0.00  0.00    +0.000 HD
ENDROOT
BRANCH   1   3
ATOM      3  C   UNL     1      45.672   5.822  12.363  0.00  0.00    +0.000 A 
ATOM      4  C   UNL     1      44.944   6.997  12.468  0.00  0.00    +0.000 A 
ATOM      5  N   UNL     1      45.472   8.240  12.553  0.00  0.00    +0.000 NA
ATOM      6  C   UNL     1      46.823   8.296  12.557  0.00  0.00    +0.000 A 
ATOM      7  N   UNL     1      47.651   7.240  12.498  0.00  0.00    +0.000 NA
ATOM      8  C   UNL     1      47.046   6.036  12.422  0.00  0.00    +0.000 A 
BRANCH   6   9
ATOM      9  C   UNL     1      47.436   9.677  12.644  0.00  0.00    +0.000 C 
ATOM     10  N   UNL     1      46.545  10.722  12.549  0.00  0.00    +0.000 N 
ATOM     11  O   UNL     1      48.632   9.893  12.787  0.00  0.00    +0.000 OA
ATOM     12  H   UNL     1      45.554  10.538  12.439  0.00  0.00    +0.000 HD
ATOM     13  H   UNL     1      46.892  11.668  12.608  0.00  0.00    +0.000 HD
ENDBRANCH   6   9
ENDBRANCH   1   3
BRANCH   1  14
ATOM     14  C   UNL     1      44.152   4.095  11.371  0.00  0.00    +0.000 C 
ATOM     15  C   UNL     1      43.387   2.862  11.857  0.00  0.00    +0.000 C 
BRANCH  14  19
ATOM     16  C   UNL     1      46.114   3.194   7.594  0.00  0.00    +0.000 A 
ATOM     17  C   UNL     1      45.690   2.164   8.443  0.00  0.00    +0.000 A 
ATOM     18  C   UNL     1      45.084   2.455   9.669  0.00  0.00    +0.000 A 
ATOM     19  C   UNL     1      44.890   3.784  10.072  0.00  0.00    +0.000 A 
ATOM     20  C   UNL     1      45.346   4.812   9.230  0.00  0.00    +0.000 A 
ATOM     21  C   UNL     1      45.948   4.521   8.004  0.00  0.00    +0.000 A 
BRANCH  16  23
ATOM     22  C   UNL     1      47.812   1.867   6.322  0.00  0.00    +0.000 C 
ATOM     23  C   UNL     1      46.680   2.882   6.232  0.00  0.00    +0.000 C 
ENDBRANCH  16  23
ENDBRANCH  14  19
ENDBRANCH   1  14
TORSDOF 5
ENDMDL
MODEL 5
REMARK VINA RESULT:    -6.465      3.816      6.807
REMARK INTER + INTRA:          -9.051
REMARK INTER:                  -8.640
REMARK INTRA:                  -0.411
REMARK UNBOUND:                -0.697
REMARK  Name = 
REMARK  7 active torsions:
REMARK  status: ('A' for Active; 'I' for Inactive)
REMARK    1  A    between atoms: C_1  and  C_2
REMARK    2  A    between atoms: C_2  and  C_3
REMARK    3  A    between atoms: C_6  and  C_7
REMARK    4  A    between atoms: C_7  and  C_8
REMARK    5  A    between atoms: C_7  and  N_9
REMARK    6  A    between atoms: N_9  and  C_10
REMARK    7  A    between atoms: C_13  and  C_14
REMARK                            x       y       z     vdW  Elec       q    Type
REMARK                         _______ _______ _______ _____ _____    ______ ____
ROOT
ATOM      1  N   UNL     1      44.596   4.813  11.607  0.00  0.00    +0.000 N 
ATOM      2  H   UNL     1      45.567   4.505  11.679  0.00  0.00    +0.000 HD
ENDROOT
BRANCH   1   3
ATOM      3  C   UNL     1      44.511   6.197  11.485  0.00  0.00    +0.000 A 
ATOM      4  C   UNL     1      43.384   6.918  11.124  0.00  0.00    +0.000 A 
ATOM      5  N   UNL     1      43.296   8.268  11.089  0.00  0.00    +0.000 NA
ATOM      6  C   UNL     1      44.412   8.930  11.470  0.00  0.00    +0.000 A 
ATOM      7  N   UNL     1      45.559   8.363  11.877  0.00  0.00    +0.000 NA
ATOM      8  C   UNL     1      45.563   7.014  11.888  0.00  0.00    +0.000 A 
BRANCH   6   9
ATOM      9  C   UNL     1      44.338  10.442  11.433  0.00  0.00    +0.000 C 
ATOM     10  N   UNL     1      45.307  11.096  12.160  0.00  0.00    +0.000 N 
ATOM     11  O   UNL     1      43.493  11.076  10.815  0.00  0.00    +0.000 OA
ATOM     12  H   UNL     1      46.010  10.566  12.662  0.00  0.00    +0.000 HD
ATOM     13  H   UNL     1      45.316  12.105  12.168  0.00  0.00    +0.000 HD
ENDBRANCH   6   9
ENDBRANCH   1   3
BRANCH   1  14
ATOM     14  C   UNL     1      43.817   3.904  10.750  0.00  0.00    +0.000 C 
ATOM     15  C   UNL     1      43.315   2.690  11.536  0.00  0.00    +0.000 C 
BRANCH  14  19
ATOM     16  C   UNL     1      46.519   2.652   7.579  0.00  0.00    +0.000 A 
ATOM     17  C   UNL     1      46.250   4.009   7.794  0.00  0.00    +0.000 A 
ATOM     18  C   UNL     1      45.361   4.409   8.796  0.00  0.00    +0.000 A 
ATOM     19  C   UNL     1      44.720   3.459   9.604  0.00  0.00    +0.000 A 
ATOM     20  C   UNL     1      44.971   2.097   9.362  0.00  0.00    +0.000 A 
ATOM     21  C   UNL     1      45.862   1.698   8.364  0.00  0.00    +0.000 A 
BRANCH  16  23
ATOM     22  C   UNL     1      47.195   2.728   5.170  0.00  0.00    +0.000 C 
ATOM     23  C   UNL     1      47.549   2.225   6.563  0.00  0.00    +0.000 C 
ENDBRANCH  16  23
ENDBRANCH  14  19
ENDBRANCH   1  14
TORSDOF 5
ENDMDL
MODEL 6
REMARK VINA RESULT:    -6.395      4.555      6.937
REMARK INTER + INTRA:          -8.962
REMARK INTER:                  -8.414
REMARK INTRA:                  -0.547
REMARK UNBOUND:                -0.697
REMARK  Name = 
REMARK  7 active torsions:
REMARK  status: ('A' for Active; 'I' for Inactive)
REMARK    1  A    between atoms: C_1  and  C_2
REMARK    2  A    between atoms: C_2  and  C_3
REMARK    3  A    between atoms: C_6  and  C_7
REMARK    4  A    between atoms: C_7  and  C_8
REMARK    5  A    between atoms: C_7  and  N_9
REMARK    6  A    between atoms: N_9  and  C_10
REMARK    7  A    between atoms: C_13  and  C_14
REMARK                            x       y       z     vdW  Elec       q    Type
REMARK                         _______ _______ _______ _____ _____    ______ ____
ROOT
ATOM      1  N   UNL     1      45.592   4.147  13.685  0.00  0.00    +0.000 N 
ATOM      2  H   UNL     1      45.815   3.232  13.287  0.00  0.00    +0.000 HD
ENDROOT
BRANCH   1   3
ATOM      3  C   UNL     1      46.715   4.735  14.261  0.00  0.00    +0.000 A 
ATOM      4  C   UNL     1      47.405   5.832  13.770  0.00  0.00    +0.000 A 
ATOM      5  N   UNL     1      48.444   6.442  14.385  0.00  0.00    +0.000 NA
ATOM      6  C   UNL     1      48.791   5.925  15.586  0.00  0.00    +0.000 A 
ATOM      7  N   UNL     1      48.189   4.891  16.196  0.00  0.00    +0.000 NA
ATOM      8  C   UNL     1      47.158   4.343  15.520  0.00  0.00    +0.000 A 
BRANCH   6   9
ATOM      9  C   UNL     1      49.956   6.588  16.289  0.00  0.00    +0.000 C 
ATOM     10  N   UNL     1      50.727   5.752  17.065  0.00  0.00    +0.000 N 
ATOM     11  O   UNL     1      50.227   7.778  16.202  0.00  0.00    +0.000 OA
ATOM     12  H   UNL     1      50.503   4.766  17.127  0.00  0.00    +0.000 HD
ATOM     13  H   UNL     1      51.523   6.134  17.553  0.00  0.00    +0.000 HD
ENDBRANCH   6   9
ENDBRANCH   1   3
BRANCH   1  14
ATOM     14  C   UNL     1      44.682   4.897  12.805  0.00  0.00    +0.000 C 
ATOM     15  C   UNL     1      43.217   4.618  13.150  0.00  0.00    +0.000 C 
BRANCH  14  19
ATOM     16  C   UNL     1      45.372   3.740   8.668  0.00  0.00    +0.000 A 
ATOM     17  C   UNL     1      44.874   2.816   9.595  0.00  0.00    +0.000 A 
ATOM     18  C   UNL     1      44.678   3.182  10.930  0.00  0.00    +0.000 A 
ATOM     19  C   UNL     1      44.978   4.480  11.367  0.00  0.00    +0.000 A 
ATOM     20  C   UNL     1      45.507   5.392  10.439  0.00  0.00    +0.000 A 
ATOM     21  C   UNL     1      45.700   5.028   9.105  0.00  0.00    +0.000 A 
BRANCH  16  23
ATOM     22  C   UNL     1      46.951   3.206   6.801  0.00  0.00    +0.000 C 
ATOM     23  C   UNL     1      45.494   3.375   7.210  0.00  0.00    +0.000 C 
ENDBRANCH  16  23
ENDBRANCH  14  19
ENDBRANCH   1  14
TORSDOF 5
ENDMDL
MODEL 7
REMARK VINA RESULT:    -6.115      4.686      6.960
REMARK INTER + INTRA:          -8.600
REMARK INTER:                  -8.065
REMARK INTRA:                  -0.535
REMARK UNBOUND:                -0.697
REMARK  Name = 
REMARK  7 active torsions:
REMARK  status: ('A' for Active; 'I' for Inactive)
REMARK    1  A    between atoms: C_1  and  C_2
REMARK    2  A    between atoms: C_2  and  C_3
REMARK    3  A    between atoms: C_6  and  C_7
REMARK    4  A    between atoms: C_7  and  C_8
REMARK    5  A    between atoms: C_7  and  N_9
REMARK    6  A    between atoms: N_9  and  C_10
REMARK    7  A    between atoms: C_13  and  C_14
REMARK                            x       y       z     vdW  Elec       q    Type
REMARK                         _______ _______ _______ _____ _____    ______ ____
ROOT
ATOM      1  N   UNL     1      46.029   5.399  14.013  0.00  0.00    +0.000 N 
ATOM      2  H   UNL     1      45.247   4.778  13.793  0.00  0.00    +0.000 HD
ENDROOT
BRANCH   1   3
ATOM      3  C   UNL     1      46.992   4.747  14.779  0.00  0.00    +0.000 A 
ATOM      4  C   UNL     1      47.729   5.304  15.812  0.00  0.00    +0.000 A 
ATOM      5  N   UNL     1      48.602   4.635  16.599  0.00  0.00    +0.000 NA
ATOM      6  C   UNL     1      48.717   3.312  16.343  0.00  0.00    +0.000 A 
ATOM      7  N   UNL     1      48.040   2.636  15.401  0.00  0.00    +0.000 NA
ATOM      8  C   UNL     1      47.186   3.374  14.662  0.00  0.00    +0.000 A 
BRANCH   6   9
ATOM      9  C   UNL     1      49.694   2.545  17.208  0.00  0.00    +0.000 C 
ATOM     10  N   UNL     1      49.854   3.030  18.486  0.00  0.00    +0.000 N 
ATOM     11  O   UNL     1      50.318   1.560  16.837  0.00  0.00    +0.000 OA
ATOM     12  H   UNL     1      49.328   3.841  18.792  0.00  0.00    +0.000 HD
ATOM     13  H   UNL     1      50.486   2.557  19.114  0.00  0.00    +0.000 HD
ENDBRANCH   6   9
ENDBRANCH   1   3
BRANCH   1  14
ATOM     14  C   UNL     1      46.385   6.230  12.853  0.00  0.00    +0.000 C 
ATOM     15  C   UNL     1      45.767   7.627  12.956  0.00  0.00    +0.000 C 
BRANCH  14  19
ATOM     16  C   UNL     1      45.097   4.131   9.267  0.00  0.00    +0.000 A 
ATOM     17  C   UNL     1      45.776   5.352   9.175  0.00  0.00    +0.000 A 
ATOM     18  C   UNL     1      46.166   6.039  10.329  0.00  0.00    +0.000 A 
ATOM     19  C   UNL     1      45.883   5.519  11.600  0.00  0.00    +0.000 A 
ATOM     20  C   UNL     1      45.174   4.309  11.685  0.00  0.00    +0.000 A 
ATOM     21  C   UNL     1      44.788   3.621  10.533  0.00  0.00    +0.000 A 
BRANCH  16  23
ATOM     22  C   UNL     1      45.980   3.177   7.129  0.00  0.00    +0.000 C 
ATOM     23  C   UNL     1      44.761   3.344   8.025  0.00  0.00    +0.000 C 
ENDBRANCH  16  23
ENDBRANCH  14  19
ENDBRANCH   1  14
TORSDOF 5
ENDMDL
MODEL 8
REMARK VINA RESULT:    -5.760      4.762      6.526
REMARK INTER + INTRA:          -8.141
REMARK INTER:                  -7.599
REMARK INTRA:                  -0.542
REMARK UNBOUND:                -0.697
REMARK  Name = 
REMARK  7 active torsions:
REMARK  status: ('A' for Active; 'I' for Inactive)
REMARK    1  A    between atoms: C_1  and  C_2
REMARK    2  A    between atoms: C_2  and  C_3
REMARK    3  A    between atoms: C_6  and  C_7
REMARK    4  A    between atoms: C_7  and  C_8
REMARK    5  A    between atoms: C_7  and  N_9
REMARK    6  A    between atoms: N_9  and  C_10
REMARK    7  A    between atoms: C_13  and  C_14
REMARK                            x       y       z     vdW  Elec       q    Type
REMARK                         _______ _______ _______ _____ _____    ______ ____
ROOT
ATOM      1  N   UNL     1      47.473   5.153  15.562  0.00  0.00    +0.000 N 
ATOM      2  H   UNL     1      48.419   5.457  15.324  0.00  0.00    +0.000 HD
ENDROOT
BRANCH   1   3
ATOM      3  C   UNL     1      46.793   4.689  14.440  0.00  0.00    +0.000 A 
ATOM      4  C   UNL     1      46.787   3.386  13.968  0.00  0.00    +0.000 A 
ATOM      5  N   UNL     1      46.055   2.935  12.923  0.00  0.00    +0.000 NA
ATOM      6  C   UNL     1      45.259   3.856  12.334  0.00  0.00    +0.000 A 
ATOM      7  N   UNL     1      45.137   5.140  12.707  0.00  0.00    +0.000 NA
ATOM      8  C   UNL     1      45.895   5.509  13.761  0.00  0.00    +0.000 A 
BRANCH   6   9
ATOM      9  C   UNL     1      44.436   3.374  11.158  0.00  0.00    +0.000 C 
ATOM     10  N   UNL     1      43.449   2.464  11.464  0.00  0.00    +0.000 N 
ATOM     11  O   UNL     1      44.604   3.741  10.003  0.00  0.00    +0.000 OA
ATOM     12  H   UNL     1      43.309   2.170  12.423  0.00  0.00    +0.000 HD
ATOM     13  H   UNL     1      42.862   2.112  10.723  0.00  0.00    +0.000 HD
ENDBRANCH   6   9
ENDBRANCH   1   3
BRANCH   1  14
ATOM     14  C   UNL     1      47.458   4.424  16.840  0.00  0.00    +0.000 C 
ATOM     15  C   UNL     1      47.115   5.352  18.008  0.00  0.00    +0.000 C 
BRANCH  14  19
ATOM     16  C   UNL     1      51.364   2.649  17.562  0.00  0.00    +0.000 A 
ATOM     17  C   UNL     1      51.151   4.016  17.773  0.00  0.00    +0.000 A 
ATOM     18  C   UNL     1      49.902   4.591  17.515  0.00  0.00    +0.000 A 
ATOM     19  C   UNL     1      48.841   3.809  17.039  0.00  0.00    +0.000 A 
ATOM     20  C   UNL     1      49.071   2.443  16.799  0.00  0.00    +0.000 A 
ATOM     21  C   UNL     1      50.316   1.869  17.061  0.00  0.00    +0.000 A 
BRANCH  16  23
ATOM     22  C   UNL     1      53.696   3.055  18.375  0.00  0.00    +0.000 C 
ATOM     23  C   UNL     1      52.680   2.012  17.930  0.00  0.00    +0.000 C 
ENDBRANCH  16  23
ENDBRANCH  14  19
ENDBRANCH   1  14
TORSDOF 5
ENDMDL
MODEL 9
REMARK VINA RESULT:    -5.252      3.778      6.028
REMARK INTER + INTRA:          -7.484
REMARK INTER:                  -6.915
REMARK INTRA:                  -0.569
REMARK UNBOUND:                -0.697
REMARK  Name = 
REMARK  7 active torsions:
REMARK  status: ('A' for Active; 'I' for Inactive)
REMARK    1  A    between atoms: C_1  and  C_2
REMARK    2  A    between atoms: C_2  and  C_3
REMARK    3  A    between atoms: C_6  and  C_7
REMARK    4  A    between atoms: C_7  and  C_8
REMARK    5  A    between atoms: C_7  and  N_9
REMARK    6  A    between atoms: N_9  and  C_10
REMARK    7  A    between atoms: C_13  and  C_14
REMARK                            x       y       z     vdW  Elec       q    Type
REMARK                         _______ _______ _______ _____ _____    ______ ____
ROOT
ATOM      1  N   UNL     1      48.273   6.582  13.282  0.00  0.00    +0.000 N 
ATOM      2  H   UNL     1      49.099   5.982  13.246  0.00  0.00    +0.000 HD
ENDROOT
BRANCH   1   3
ATOM      3  C   UNL     1      47.120   5.878  12.945  0.00  0.00    +0.000 A 
ATOM      4  C   UNL     1      46.289   6.138  11.867  0.00  0.00    +0.000 A 
ATOM      5  N   UNL     1      45.218   5.394  11.507  0.00  0.00    +0.000 NA
ATOM      6  C   UNL     1      44.988   4.302  12.271  0.00  0.00    +0.000 A 
ATOM      7  N   UNL     1      45.729   3.911  13.320  0.00  0.00    +0.000 NA
ATOM      8  C   UNL     1      46.782   4.703  13.610  0.00  0.00    +0.000 A 
BRANCH   6   9
ATOM      9  C   UNL     1      43.791   3.459  11.890  0.00  0.00    +0.000 C 
ATOM     10  N   UNL     1      43.717   2.230  12.506  0.00  0.00    +0.000 N 
ATOM     11  O   UNL     1      42.928   3.806  11.094  0.00  0.00    +0.000 OA
ATOM     12  H   UNL     1      44.429   1.951  13.171  0.00  0.00    +0.000 HD
ATOM     13  H   UNL     1      42.937   1.624  12.299  0.00  0.00    +0.000 HD
ENDBRANCH   6   9
ENDBRANCH   1   3
BRANCH   1  14
ATOM     14  C   UNL     1      48.326   7.482  14.445  0.00  0.00    +0.000 C 
ATOM     15  C   UNL     1      48.705   8.906  14.032  0.00  0.00    +0.000 C 
BRANCH  14  19
ATOM     16  C   UNL     1      51.285   5.755  17.126  0.00  0.00    +0.000 A 
ATOM     17  C   UNL     1      49.936   5.391  17.221  0.00  0.00    +0.000 A 
ATOM     18  C   UNL     1      48.982   5.967  16.377  0.00  0.00    +0.000 A 
ATOM     19  C   UNL     1      49.358   6.920  15.420  0.00  0.00    +0.000 A 
ATOM     20  C   UNL     1      50.708   7.304  15.351  0.00  0.00    +0.000 A 
ATOM     21  C   UNL     1      51.661   6.726  16.192  0.00  0.00    +0.000 A 
BRANCH  16  23
ATOM     22  C   UNL     1      52.047   3.573  18.086  0.00  0.00    +0.000 C 
ATOM     23  C   UNL     1      52.327   5.065  17.971  0.00  0.00    +0.000 C 
ENDBRANCH  16  23
ENDBRANCH  14  19
ENDBRANCH   1  14
TORSDOF 5
ENDMDL
