MODEL 1
REMARK VINA RESULT:    -9.400      0.000      0.000
REMARK INTER + INTRA:         -12.585
REMARK INTER:                 -12.698
REMARK INTRA:                   0.112
REMARK UNBOUND:                 0.112
REMARK  Name = 
REMARK  6 active torsions:
REMARK  status: ('A' for Active; 'I' for Inactive)
REMARK    1  A    between atoms: C_2  and  C_3
REMARK    2  A    between atoms: C_6  and  C_7
REMARK    3  A    between atoms: C_11  and  C_12
REMARK    4  A    between atoms: C_12  and  N_13
REMARK    5  A    between atoms: N_13  and  C_14
REMARK    6  A    between atoms: C_17  and  C_18
REMARK                            x       y       z     vdW  Elec       q    Type
REMARK                         _______ _______ _______ _____ _____    ______ ____
ROOT
ATOM      1  C   UNL     1      44.115   4.969  11.536  0.00  0.00    +0.000 C 
ATOM      2  C   UNL     1      42.973   5.153  12.519  0.00  0.00    +0.000 C 
ATOM      3  C   UNL     1      43.594   3.807  12.386  0.00  0.00    +0.000 C 
ENDROOT
BRANCH   1   8
ATOM      4  C   UNL     1      47.174   5.735  13.553  0.00  0.00    +0.000 A 
ATOM      5  C   UNL     1      47.929   6.550  12.715  0.00  0.00    +0.000 A 
ATOM      6  C   UNL     1      47.447   6.845  11.446  0.00  0.00    +0.000 A 
ATOM      7  C   UNL     1      46.219   6.330  11.048  0.00  0.00    +0.000 A 
ATOM      8  C   UNL     1      45.495   5.519  11.923  0.00  0.00    +0.000 A 
ATOM      9  N   UNL     1      45.989   5.211  13.154  0.00  0.00    +0.000 NA
BRANCH   4  13
ATOM     10  C   UNL     1      48.324   4.758  17.591  0.00  0.00    +0.000 A 
ATOM     11  C   UNL     1      48.873   5.874  16.957  0.00  0.00    +0.000 A 
ATOM     12  C   UNL     1      48.503   6.190  15.645  0.00  0.00    +0.000 A 
ATOM     13  C   UNL     1      47.581   5.401  14.934  0.00  0.00    +0.000 A 
ATOM     14  C   UNL     1      47.031   4.289  15.598  0.00  0.00    +0.000 A 
ATOM     15  C   UNL     1      47.399   3.965  16.910  0.00  0.00    +0.000 A 
BRANCH  10  17
ATOM     16  N   UNL     1      49.013   4.180  20.024  0.00  0.00    +0.000 NA
ATOM     17  C   UNL     1      48.704   4.435  18.933  0.00  0.00    +0.000 C 
ENDBRANCH  10  17
ENDBRANCH   4  13
ENDBRANCH   1   8
BRANCH   1  18
ATOM     18  N   UNL     1      43.916   4.801  10.083  0.00  0.00    +0.000 N 
ATOM     19  H   UNL     1      42.945   4.702   9.789  0.00  0.00    +0.000 HD
BRANCH  18  20
ATOM     20  C   UNL     1      44.679   3.969   9.259  0.00  0.00    +0.000 A 
ATOM     21  N   UNL     1      45.473   4.627   8.379  0.00  0.00    +0.000 NA
ATOM     22  C   UNL     1      46.334   3.896   7.620  0.00  0.00    +0.000 A 
ATOM     23  C   UNL     1      46.472   2.519   7.719  0.00  0.00    +0.000 A 
ATOM     24  C   UNL     1      45.632   1.846   8.598  0.00  0.00    +0.000 A 
ATOM     25  C   UNL     1      44.728   2.577   9.360  0.00  0.00    +0.000 A 
ATOM     26  F   UNL     1      43.935   1.887  10.191  0.00  0.00    +0.000 F 
BRANCH  23  27
ATOM     27  C   UNL     1      47.477   1.826   6.892  0.00  0.00    +0.000 C 
ATOM     28  N   UNL     1      48.551   2.559   6.468  0.00  0.00    +0.000 N 
ATOM     29  O   UNL     1      47.337   0.655   6.572  0.00  0.00    +0.000 OA
ATOM     30  H   UNL     1      48.588   3.567   6.513  0.00  0.00    +0.000 HD
ATOM     31  H   UNL     1      49.185   2.102   5.826  0.00  0.00    +0.000 HD
ENDBRANCH  23  27
ENDBRANCH  18  20
ENDBRANCH   1  18
TORSDOF 6
ENDMDL
MODEL 2
REMARK VINA RESULT:    -9.146      2.714      4.421
REMARK INTER + INTRA:         -12.242
REMARK INTER:                 -11.338
REMARK INTRA:                  -0.904
REMARK UNBOUND:                 0.112
REMARK  Name = 
REMARK  6 active torsions:
REMARK  status: ('A' for Active; 'I' for Inactive)
REMARK    1  A    between atoms: C_2  and  C_3
REMARK    2  A    between atoms: C_6  and  C_7
REMARK    3  A    between atoms: C_11  and  C_12
REMARK    4  A    between atoms: C_12  and  N_13
REMARK    5  A    between atoms: N_13  and  C_14
REMARK    6  A    between atoms: C_17  and  C_18
REMARK                            x       y       z     vdW  Elec       q    Type
REMARK                         _______ _______ _______ _____ _____    ______ ____
ROOT
ATOM      1  C   UNL     1      43.785   5.180  11.290  0.00  0.00    +0.000 C 
ATOM      2  C   UNL     1      43.038   6.474  11.025  0.00  0.00    +0.000 C 
ATOM      3  C   UNL     1      42.490   5.523  12.030  0.00  0.00    +0.000 C 
ENDROOT
BRANCH   1   8
ATOM      4  C   UNL     1      47.112   6.333  12.559  0.00  0.00    +0.000 A 
ATOM      5  C   UNL     1      47.450   5.384  13.518  0.00  0.00    +0.000 A 
ATOM      6  C   UNL     1      46.564   4.346  13.782  0.00  0.00    +0.000 A 
ATOM      7  C   UNL     1      45.369   4.276  13.076  0.00  0.00    +0.000 A 
ATOM      8  C   UNL     1      45.074   5.250  12.122  0.00  0.00    +0.000 A 
ATOM      9  N   UNL     1      45.934   6.279  11.890  0.00  0.00    +0.000 NA
BRANCH   4  13
ATOM     10  C   UNL     1      49.747   9.566  11.467  0.00  0.00    +0.000 A 
ATOM     11  C   UNL     1      48.452   9.839  11.913  0.00  0.00    +0.000 A 
ATOM     12  C   UNL     1      47.595   8.789  12.264  0.00  0.00    +0.000 A 
ATOM     13  C   UNL     1      48.006   7.447  12.177  0.00  0.00    +0.000 A 
ATOM     14  C   UNL     1      49.320   7.198  11.737  0.00  0.00    +0.000 A 
ATOM     15  C   UNL     1      50.182   8.243  11.382  0.00  0.00    +0.000 A 
BRANCH  10  17
ATOM     16  N   UNL     1      51.337  11.507  10.811  0.00  0.00    +0.000 NA
ATOM     17  C   UNL     1      50.623  10.639  11.107  0.00  0.00    +0.000 C 
ENDBRANCH  10  17
ENDBRANCH   4  13
ENDBRANCH   1   8
BRANCH   1  18
ATOM     18  N   UNL     1      43.693   3.996  10.414  0.00  0.00    +0.000 N 
ATOM     19  H   UNL     1      43.267   3.174  10.842  0.00  0.00    +0.000 HD
BRANCH  18  20
ATOM     20  C   UNL     1      44.712   3.536   9.576  0.00  0.00    +0.000 A 
ATOM     21  N   UNL     1      44.801   2.186   9.489  0.00  0.00    +0.000 NA
ATOM     22  C   UNL     1      45.690   1.656   8.605  0.00  0.00    +0.000 A 
ATOM     23  C   UNL     1      46.485   2.417   7.761  0.00  0.00    +0.000 A 
ATOM     24  C   UNL     1      46.415   3.800   7.878  0.00  0.00    +0.000 A 
ATOM     25  C   UNL     1      45.532   4.355   8.796  0.00  0.00    +0.000 A 
ATOM     26  F   UNL     1      45.500   5.692   8.878  0.00  0.00    +0.000 F 
BRANCH  23  27
ATOM     27  C   UNL     1      47.375   1.745   6.796  0.00  0.00    +0.000 C 
ATOM     28  N   UNL     1      48.404   2.481   6.277  0.00  0.00    +0.000 N 
ATOM     29  O   UNL     1      47.179   0.589   6.450  0.00  0.00    +0.000 OA
ATOM     30  H   UNL     1      48.463   3.486   6.355  0.00  0.00    +0.000 HD
ATOM     31  H   UNL     1      48.951   2.041   5.548  0.00  0.00    +0.000 HD
ENDBRANCH  23  27
ENDBRANCH  18  20
ENDBRANCH   1  18
TORSDOF 6
ENDMDL
MODEL 3
REMARK VINA RESULT:    -8.320      2.570      3.272
REMARK INTER + INTRA:         -11.126
REMARK INTER:                 -11.031
REMARK INTRA:                  -0.095
REMARK UNBOUND:                 0.112
REMARK  Name = 
REMARK  6 active torsions:
REMARK  status: ('A' for Active; 'I' for Inactive)
REMARK    1  A    between atoms: C_2  and  C_3
REMARK    2  A    between atoms: C_6  and  C_7
REMARK    3  A    between atoms: C_11  and  C_12
REMARK    4  A    between atoms: C_12  and  N_13
REMARK    5  A    between atoms: N_13  and  C_14
REMARK    6  A    between atoms: C_17  and  C_18
REMARK                            x       y       z     vdW  Elec       q    Type
REMARK                         _______ _______ _______ _____ _____    ______ ____
ROOT
ATOM      1  C   UNL     1      44.409   5.028  11.437  0.00  0.00    +0.000 C 
ATOM      2  C   UNL     1      43.864   4.331  12.670  0.00  0.00    +0.000 C 
ATOM      3  C   UNL     1      45.207   3.941  12.161  0.00  0.00    +0.000 C 
ENDROOT
BRANCH   1   8
ATOM      4  C   UNL     1      46.683   7.892  12.234  0.00  0.00    +0.000 A 
ATOM      5  C   UNL     1      45.904   9.016  11.976  0.00  0.00    +0.000 A 
ATOM      6  C   UNL     1      44.607   8.847  11.507  0.00  0.00    +0.000 A 
ATOM      7  C   UNL     1      44.115   7.560  11.318  0.00  0.00    +0.000 A 
ATOM      8  C   UNL     1      44.932   6.463  11.591  0.00  0.00    +0.000 A 
ATOM      9  N   UNL     1      46.211   6.638  12.022  0.00  0.00    +0.000 NA
BRANCH   4  13
ATOM     10  C   UNL     1      50.701   8.107  13.779  0.00  0.00    +0.000 A 
ATOM     11  C   UNL     1      49.730   7.364  14.454  0.00  0.00    +0.000 A 
ATOM     12  C   UNL     1      48.424   7.297  13.955  0.00  0.00    +0.000 A 
ATOM     13  C   UNL     1      48.056   7.969  12.775  0.00  0.00    +0.000 A 
ATOM     14  C   UNL     1      49.055   8.699  12.105  0.00  0.00    +0.000 A 
ATOM     15  C   UNL     1      50.363   8.773  12.600  0.00  0.00    +0.000 A 
BRANCH  10  17
ATOM     16  N   UNL     1      53.122   8.234  14.700  0.00  0.00    +0.000 NA
ATOM     17  C   UNL     1      52.036   8.175  14.290  0.00  0.00    +0.000 C 
ENDBRANCH  10  17
ENDBRANCH   4  13
ENDBRANCH   1   8
BRANCH   1  18
ATOM     18  N   UNL     1      44.006   4.675  10.061  0.00  0.00    +0.000 N 
ATOM     19  H   UNL     1      43.063   4.300   9.969  0.00  0.00    +0.000 HD
BRANCH  18  20
ATOM     20  C   UNL     1      44.806   3.995   9.139  0.00  0.00    +0.000 A 
ATOM     21  N   UNL     1      45.588   4.796   8.375  0.00  0.00    +0.000 NA
ATOM     22  C   UNL     1      46.482   4.209   7.534  0.00  0.00    +0.000 A 
ATOM     23  C   UNL     1      46.665   2.837   7.438  0.00  0.00    +0.000 A 
ATOM     24  C   UNL     1      45.838   2.019   8.198  0.00  0.00    +0.000 A 
ATOM     25  C   UNL     1      44.900   2.604   9.041  0.00  0.00    +0.000 A 
ATOM     26  F   UNL     1      44.122   1.778   9.752  0.00  0.00    +0.000 F 
BRANCH  23  27
ATOM     27  C   UNL     1      47.702   2.301   6.537  0.00  0.00    +0.000 C 
ATOM     28  N   UNL     1      47.926   2.978   5.370  0.00  0.00    +0.000 N 
ATOM     29  O   UNL     1      48.312   1.277   6.808  0.00  0.00    +0.000 OA
ATOM     30  H   UNL     1      47.298   3.680   5.005  0.00  0.00    +0.000 HD
ATOM     31  H   UNL     1      48.572   2.552   4.717  0.00  0.00    +0.000 HD
ENDBRANCH  23  27
ENDBRANCH  18  20
ENDBRANCH   1  18
TORSDOF 6
ENDMDL
MODEL 4
REMARK VINA RESULT:    -7.704      2.881      8.118
REMARK INTER + INTRA:         -10.294
REMARK INTER:                  -9.442
REMARK INTRA:                  -0.852
REMARK UNBOUND:                 0.112
REMARK  Name = 
REMARK  6 active torsions:
REMARK  status: ('A' for Active; 'I' for Inactive)
REMARK    1  A    between atoms: C_2  and  C_3
REMARK    2  A    between atoms: C_6  and  C_7
REMARK    3  A    between atoms: C_11  and  C_12
REMARK    4  A    between atoms: C_12  and  N_13
REMARK    5  A    between atoms: N_13  and  C_14
REMARK    6  A    between atoms: C_17  and  C_18
REMARK                            x       y       z     vdW  Elec       q    Type
REMARK                         _______ _______ _______ _____ _____    ______ ____
ROOT
ATOM      1  C   UNL     1      46.071   7.531  12.627  0.00  0.00    +0.000 C 
ATOM      2  C   UNL     1      45.413   8.721  13.301  0.00  0.00    +0.000 C 
ATOM      3  C   UNL     1      46.114   8.928  12.003  0.00  0.00    +0.000 C 
ENDROOT
BRANCH   1   8
ATOM      4  C   UNL     1      44.912   4.890  10.241  0.00  0.00    +0.000 A 
ATOM      5  C   UNL     1      43.570   4.715  10.564  0.00  0.00    +0.000 A 
ATOM      6  C   UNL     1      43.023   5.458  11.604  0.00  0.00    +0.000 A 
ATOM      7  C   UNL     1      43.826   6.364  12.287  0.00  0.00    +0.000 A 
ATOM      8  C   UNL     1      45.165   6.508  11.926  0.00  0.00    +0.000 A 
ATOM      9  N   UNL     1      45.701   5.755  10.925  0.00  0.00    +0.000 NA
BRANCH   4  13
ATOM     10  C   UNL     1      46.852   2.794   7.012  0.00  0.00    +0.000 A 
ATOM     11  C   UNL     1      46.940   4.186   7.096  0.00  0.00    +0.000 A 
ATOM     12  C   UNL     1      46.307   4.867   8.142  0.00  0.00    +0.000 A 
ATOM     13  C   UNL     1      45.572   4.180   9.125  0.00  0.00    +0.000 A 
ATOM     14  C   UNL     1      45.509   2.777   9.026  0.00  0.00    +0.000 A 
ATOM     15  C   UNL     1      46.138   2.089   7.981  0.00  0.00    +0.000 A 
BRANCH  10  17
ATOM     16  N   UNL     1      48.031   1.536   5.074  0.00  0.00    +0.000 NA
ATOM     17  C   UNL     1      47.499   2.099   5.941  0.00  0.00    +0.000 C 
ENDBRANCH  10  17
ENDBRANCH   4  13
ENDBRANCH   1   8
BRANCH   1  18
ATOM     18  N   UNL     1      47.389   6.999  13.025  0.00  0.00    +0.000 N 
ATOM     19  H   UNL     1      47.949   6.616  12.264  0.00  0.00    +0.000 HD
BRANCH  18  20
ATOM     20  C   UNL     1      47.627   6.199  14.147  0.00  0.00    +0.000 A 
ATOM     21  N   UNL     1      48.368   6.794  15.114  0.00  0.00    +0.000 NA
ATOM     22  C   UNL     1      48.548   6.129  16.286  0.00  0.00    +0.000 A 
ATOM     23  C   UNL     1      47.986   4.891  16.565  0.00  0.00    +0.000 A 
ATOM     24  C   UNL     1      47.256   4.271  15.559  0.00  0.00    +0.000 A 
ATOM     25  C   UNL     1      47.087   4.926  14.345  0.00  0.00    +0.000 A 
ATOM     26  F   UNL     1      46.380   4.289  13.403  0.00  0.00    +0.000 F 
BRANCH  23  27
ATOM     27  C   UNL     1      48.193   4.279  17.891  0.00  0.00    +0.000 C 
ATOM     28  N   UNL     1      47.395   4.716  18.912  0.00  0.00    +0.000 N 
ATOM     29  O   UNL     1      49.064   3.442  18.075  0.00  0.00    +0.000 OA
ATOM     30  H   UNL     1      46.833   5.554  18.859  0.00  0.00    +0.000 HD
ATOM     31  H   UNL     1      47.606   4.359  19.835  0.00  0.00    +0.000 HD
ENDBRANCH  23  27
ENDBRANCH  18  20
ENDBRANCH   1  18
TORSDOF 6
ENDMDL
MODEL 5
REMARK VINA RESULT:    -7.665      3.228      5.073
REMARK INTER + INTRA:         -10.242
REMARK INTER:                  -9.260
REMARK INTRA:                  -0.982
REMARK UNBOUND:                 0.112
REMARK  Name = 
REMARK  6 active torsions:
REMARK  status: ('A' for Active; 'I' for Inactive)
REMARK    1  A    between atoms: C_2  and  C_3
REMARK    2  A    between atoms: C_6  and  C_7
REMARK    3  A    between atoms: C_11  and  C_12
REMARK    4  A    between atoms: C_12  and  N_13
REMARK    5  A    between atoms: N_13  and  C_14
REMARK    6  A    between atoms: C_17  and  C_18
REMARK                            x       y       z     vdW  Elec       q    Type
REMARK                         _______ _______ _______ _____ _____    ______ ____
ROOT
ATOM      1  C   UNL     1      48.057   7.544  13.414  0.00  0.00    +0.000 C 
ATOM      2  C   UNL     1      49.001   7.036  12.340  0.00  0.00    +0.000 C 
ATOM      3  C   UNL     1      48.667   8.487  12.375  0.00  0.00    +0.000 C 
ENDROOT
BRANCH   1   8
ATOM      4  C   UNL     1      49.829   6.736  16.610  0.00  0.00    +0.000 A 
ATOM      5  C   UNL     1      49.528   7.812  17.439  0.00  0.00    +0.000 A 
ATOM      6  C   UNL     1      48.744   8.848  16.944  0.00  0.00    +0.000 A 
ATOM      7  C   UNL     1      48.271   8.777  15.638  0.00  0.00    +0.000 A 
ATOM      8  C   UNL     1      48.597   7.678  14.845  0.00  0.00    +0.000 A 
ATOM      9  N   UNL     1      49.390   6.682  15.329  0.00  0.00    +0.000 NA
BRANCH   4  13
ATOM     10  C   UNL     1      52.151   3.337  17.889  0.00  0.00    +0.000 A 
ATOM     11  C   UNL     1      50.763   3.235  17.780  0.00  0.00    +0.000 A 
ATOM     12  C   UNL     1      50.008   4.340  17.368  0.00  0.00    +0.000 A 
ATOM     13  C   UNL     1      50.618   5.569  17.059  0.00  0.00    +0.000 A 
ATOM     14  C   UNL     1      52.019   5.643  17.164  0.00  0.00    +0.000 A 
ATOM     15  C   UNL     1      52.780   4.543  17.578  0.00  0.00    +0.000 A 
BRANCH  10  17
ATOM     16  N   UNL     1      53.554   1.293  18.652  0.00  0.00    +0.000 NA
ATOM     17  C   UNL     1      52.922   2.207  18.311  0.00  0.00    +0.000 C 
ENDBRANCH  10  17
ENDBRANCH   4  13
ENDBRANCH   1   8
BRANCH   1  18
ATOM     18  N   UNL     1      46.589   7.412  13.332  0.00  0.00    +0.000 N 
ATOM     19  H   UNL     1      46.075   7.803  14.121  0.00  0.00    +0.000 HD
BRANCH  18  20
ATOM     20  C   UNL     1      45.906   6.259  12.934  0.00  0.00    +0.000 A 
ATOM     21  N   UNL     1      45.156   6.409  11.814  0.00  0.00    +0.000 NA
ATOM     22  C   UNL     1      44.553   5.307  11.293  0.00  0.00    +0.000 A 
ATOM     23  C   UNL     1      44.690   4.031  11.819  0.00  0.00    +0.000 A 
ATOM     24  C   UNL     1      45.432   3.888  12.985  0.00  0.00    +0.000 A 
ATOM     25  C   UNL     1      46.031   5.009  13.546  0.00  0.00    +0.000 A 
ATOM     26  F   UNL     1      46.732   4.826  14.672  0.00  0.00    +0.000 F 
BRANCH  23  27
ATOM     27  C   UNL     1      44.042   2.891  11.144  0.00  0.00    +0.000 C 
ATOM     28  N   UNL     1      44.671   2.376  10.044  0.00  0.00    +0.000 N 
ATOM     29  O   UNL     1      42.971   2.448  11.532  0.00  0.00    +0.000 OA
ATOM     30  H   UNL     1      45.421   2.849   9.560  0.00  0.00    +0.000 HD
ATOM     31  H   UNL     1      44.173   1.657   9.534  0.00  0.00    +0.000 HD
ENDBRANCH  23  27
ENDBRANCH  18  20
ENDBRANCH   1  18
TORSDOF 6
ENDMDL
MODEL 6
REMARK VINA RESULT:    -7.330      3.202      7.729
REMARK INTER + INTRA:          -9.789
REMARK INTER:                  -8.762
REMARK INTRA:                  -1.026
REMARK UNBOUND:                 0.112
REMARK  Name = 
REMARK  6 active torsions:
REMARK  status: ('A' for Active; 'I' for Inactive)
REMARK    1  A    between atoms: C_2  and  C_3
REMARK    2  A    between atoms: C_6  and  C_7
REMARK    3  A    between atoms: C_11  and  C_12
REMARK    4  A    between atoms: C_12  and  N_13
REMARK    5  A    between atoms: N_13  and  C_14
REMARK    6  A    between atoms: C_17  and  C_18
REMARK                            x       y       z     vdW  Elec       q    Type
REMARK                         _______ _______ _______ _____ _____    ______ ____
ROOT
ATOM      1  C   UNL     1      46.336   4.925  13.895  0.00  0.00    +0.000 C 
ATOM      2  C   UNL     1      47.265   3.819  14.361  0.00  0.00    +0.000 C 
ATOM      3  C   UNL     1      46.127   4.216  15.235  0.00  0.00    +0.000 C 
ENDROOT
BRANCH   1   8
ATOM      4  C   UNL     1      44.922   3.912  10.581  0.00  0.00    +0.000 A 
ATOM      5  C   UNL     1      43.549   4.073  10.742  0.00  0.00    +0.000 A 
ATOM      6  C   UNL     1      43.058   4.502  11.969  0.00  0.00    +0.000 A 
ATOM      7  C   UNL     1      43.950   4.770  13.001  0.00  0.00    +0.000 A 
ATOM      8  C   UNL     1      45.318   4.596  12.793  0.00  0.00    +0.000 A 
ATOM      9  N   UNL     1      45.788   4.147  11.597  0.00  0.00    +0.000 NA
BRANCH   4  13
ATOM     10  C   UNL     1      46.754   2.698   6.873  0.00  0.00    +0.000 A 
ATOM     11  C   UNL     1      46.551   4.053   7.143  0.00  0.00    +0.000 A 
ATOM     12  C   UNL     1      45.953   4.447   8.345  0.00  0.00    +0.000 A 
ATOM     13  C   UNL     1      45.542   3.503   9.303  0.00  0.00    +0.000 A 
ATOM     14  C   UNL     1      45.768   2.144   9.014  0.00  0.00    +0.000 A 
ATOM     15  C   UNL     1      46.364   1.742   7.812  0.00  0.00    +0.000 A 
BRANCH  10  17
ATOM     16  N   UNL     1      47.857   1.962   4.644  0.00  0.00    +0.000 NA
ATOM     17  C   UNL     1      47.365   2.295   5.643  0.00  0.00    +0.000 C 
ENDBRANCH  10  17
ENDBRANCH   4  13
ENDBRANCH   1   8
BRANCH   1  18
ATOM     18  N   UNL     1      46.662   6.361  14.008  0.00  0.00    +0.000 N 
ATOM     19  H   UNL     1      45.865   6.992  13.934  0.00  0.00    +0.000 HD
BRANCH  18  20
ATOM     20  C   UNL     1      47.740   6.991  13.381  0.00  0.00    +0.000 A 
ATOM     21  N   UNL     1      48.796   7.238  14.194  0.00  0.00    +0.000 NA
ATOM     22  C   UNL     1      49.931   7.743  13.639  0.00  0.00    +0.000 A 
ATOM     23  C   UNL     1      50.083   7.986  12.281  0.00  0.00    +0.000 A 
ATOM     24  C   UNL     1      48.987   7.763  11.457  0.00  0.00    +0.000 A 
ATOM     25  C   UNL     1      47.812   7.274  12.014  0.00  0.00    +0.000 A 
ATOM     26  F   UNL     1      46.780   7.078  11.184  0.00  0.00    +0.000 F 
BRANCH  23  27
ATOM     27  C   UNL     1      51.375   8.480  11.770  0.00  0.00    +0.000 C 
ATOM     28  N   UNL     1      52.503   8.088  12.439  0.00  0.00    +0.000 N 
ATOM     29  O   UNL     1      51.433   9.233  10.810  0.00  0.00    +0.000 OA
ATOM     30  H   UNL     1      52.486   7.665  13.356  0.00  0.00    +0.000 HD
ATOM     31  H   UNL     1      53.374   8.506  12.138  0.00  0.00    +0.000 HD
ENDBRANCH  23  27
ENDBRANCH  18  20
ENDBRANCH   1  18
TORSDOF 6
ENDMDL
MODEL 7
REMARK VINA RESULT:    -7.234      4.063      8.281
REMARK INTER + INTRA:          -9.659
REMARK INTER:                  -8.690
REMARK INTRA:                  -0.968
REMARK UNBOUND:                 0.112
REMARK  Name = 
REMARK  6 active torsions:
REMARK  status: ('A' for Active; 'I' for Inactive)
REMARK    1  A    between atoms: C_2  and  C_3
REMARK    2  A    between atoms: C_6  and  C_7
REMARK    3  A    between atoms: C_11  and  C_12
REMARK    4  A    between atoms: C_12  and  N_13
REMARK    5  A    between atoms: N_13  and  C_14
REMARK    6  A    between atoms: C_17  and  C_18
REMARK                            x       y       z     vdW  Elec       q    Type
REMARK                         _______ _______ _______ _____ _____    ______ ____
ROOT
ATOM      1  C   UNL     1      49.195   8.441  17.081  0.00  0.00    +0.000 C 
ATOM      2  C   UNL     1      47.915   9.132  17.514  0.00  0.00    +0.000 C 
ATOM      3  C   UNL     1      49.173   9.926  17.453  0.00  0.00    +0.000 C 
ENDROOT
BRANCH   1   8
ATOM      4  C   UNL     1      48.535   7.090  13.653  0.00  0.00    +0.000 A 
ATOM      5  C   UNL     1      49.672   7.441  12.933  0.00  0.00    +0.000 A 
ATOM      6  C   UNL     1      50.680   8.158  13.567  0.00  0.00    +0.000 A 
ATOM      7  C   UNL     1      50.531   8.498  14.907  0.00  0.00    +0.000 A 
ATOM      8  C   UNL     1      49.374   8.123  15.589  0.00  0.00    +0.000 A 
ATOM      9  N   UNL     1      48.379   7.446  14.952  0.00  0.00    +0.000 NA
BRANCH   4  13
ATOM     10  C   UNL     1      45.337   4.729  11.985  0.00  0.00    +0.000 A 
ATOM     11  C   UNL     1      45.798   5.860  11.308  0.00  0.00    +0.000 A 
ATOM     12  C   UNL     1      46.834   6.630  11.852  0.00  0.00    +0.000 A 
ATOM     13  C   UNL     1      47.431   6.292  13.080  0.00  0.00    +0.000 A 
ATOM     14  C   UNL     1      46.958   5.140  13.736  0.00  0.00    +0.000 A 
ATOM     15  C   UNL     1      45.920   4.367  13.200  0.00  0.00    +0.000 A 
BRANCH  10  17
ATOM     16  N   UNL     1      43.413   3.311  10.978  0.00  0.00    +0.000 NA
ATOM     17  C   UNL     1      44.277   3.944  11.430  0.00  0.00    +0.000 C 
ENDBRANCH  10  17
ENDBRANCH   4  13
ENDBRANCH   1   8
BRANCH   1  18
ATOM     18  N   UNL     1      50.006   7.598  17.981  0.00  0.00    +0.000 N 
ATOM     19  H   UNL     1      50.916   7.983  18.231  0.00  0.00    +0.000 HD
BRANCH  18  20
ATOM     20  C   UNL     1      50.170   6.216  17.856  0.00  0.00    +0.000 A 
ATOM     21  N   UNL     1      49.011   5.521  17.737  0.00  0.00    +0.000 NA
ATOM     22  C   UNL     1      49.085   4.185  17.495  0.00  0.00    +0.000 A 
ATOM     23  C   UNL     1      50.277   3.496  17.325  0.00  0.00    +0.000 A 
ATOM     24  C   UNL     1      51.462   4.205  17.480  0.00  0.00    +0.000 A 
ATOM     25  C   UNL     1      51.403   5.566  17.757  0.00  0.00    +0.000 A 
ATOM     26  F   UNL     1      52.568   6.209  17.902  0.00  0.00    +0.000 F 
BRANCH  23  27
ATOM     27  C   UNL     1      50.248   2.056  17.006  0.00  0.00    +0.000 C 
ATOM     28  N   UNL     1      51.095   1.244  17.708  0.00  0.00    +0.000 N 
ATOM     29  O   UNL     1      49.521   1.615  16.129  0.00  0.00    +0.000 OA
ATOM     30  H   UNL     1      51.862   1.590  18.266  0.00  0.00    +0.000 HD
ATOM     31  H   UNL     1      51.134   0.275  17.419  0.00  0.00    +0.000 HD
ENDBRANCH  23  27
ENDBRANCH  18  20
ENDBRANCH   1  18
TORSDOF 6
ENDMDL
MODEL 8
REMARK VINA RESULT:    -7.123      4.110      6.518
REMARK INTER + INTRA:          -9.510
REMARK INTER:                  -9.092
REMARK INTRA:                  -0.418
REMARK UNBOUND:                 0.112
REMARK  Name = 
REMARK  6 active torsions:
REMARK  status: ('A' for Active; 'I' for Inactive)
REMARK    1  A    between atoms: C_2  and  C_3
REMARK    2  A    between atoms: C_6  and  C_7
REMARK    3  A    between atoms: C_11  and  C_12
REMARK    4  A    between atoms: C_12  and  N_13
REMARK    5  A    between atoms: N_13  and  C_14
REMARK    6  A    between atoms: C_17  and  C_18
REMARK                            x       y       z     vdW  Elec       q    Type
REMARK                         _______ _______ _______ _____ _____    ______ ____
ROOT
ATOM      1  C   UNL     1      49.478   7.454  15.096  0.00  0.00    +0.000 C 
ATOM      2  C   UNL     1      50.460   8.608  15.177  0.00  0.00    +0.000 C 
ATOM      3  C   UNL     1      49.001   8.903  15.223  0.00  0.00    +0.000 C 
ENDROOT
BRANCH   1   8
ATOM      4  C   UNL     1      49.985   4.700  17.581  0.00  0.00    +0.000 A 
ATOM      5  C   UNL     1      48.968   4.899  18.509  0.00  0.00    +0.000 A 
ATOM      6  C   UNL     1      48.100   5.972  18.343  0.00  0.00    +0.000 A 
ATOM      7  C   UNL     1      48.263   6.813  17.248  0.00  0.00    +0.000 A 
ATOM      8  C   UNL     1      49.295   6.573  16.341  0.00  0.00    +0.000 A 
ATOM      9  N   UNL     1      50.158   5.537  16.528  0.00  0.00    +0.000 NA
BRANCH   4  13
ATOM     10  C   UNL     1      52.709   1.367  17.797  0.00  0.00    +0.000 A 
ATOM     11  C   UNL     1      53.143   2.649  18.141  0.00  0.00    +0.000 A 
ATOM     12  C   UNL     1      52.260   3.733  18.067  0.00  0.00    +0.000 A 
ATOM     13  C   UNL     1      50.928   3.564  17.648  0.00  0.00    +0.000 A 
ATOM     14  C   UNL     1      50.510   2.261  17.320  0.00  0.00    +0.000 A 
ATOM     15  C   UNL     1      51.389   1.172  17.389  0.00  0.00    +0.000 A 
BRANCH  10  17
ATOM     16  N   UNL     1      54.343  -0.643  17.937  0.00  0.00    +0.000 NA
ATOM     17  C   UNL     1      53.613   0.260  17.872  0.00  0.00    +0.000 C 
ENDBRANCH  10  17
ENDBRANCH   4  13
ENDBRANCH   1   8
BRANCH   1  18
ATOM     18  N   UNL     1      49.102   6.795  13.830  0.00  0.00    +0.000 N 
ATOM     19  H   UNL     1      49.467   7.238  12.988  0.00  0.00    +0.000 HD
BRANCH  18  20
ATOM     20  C   UNL     1      47.825   6.321  13.519  0.00  0.00    +0.000 A 
ATOM     21  N   UNL     1      47.580   5.053  13.935  0.00  0.00    +0.000 NA
ATOM     22  C   UNL     1      46.324   4.556  13.776  0.00  0.00    +0.000 A 
ATOM     23  C   UNL     1      45.268   5.283  13.245  0.00  0.00    +0.000 A 
ATOM     24  C   UNL     1      45.532   6.569  12.790  0.00  0.00    +0.000 A 
ATOM     25  C   UNL     1      46.818   7.081  12.919  0.00  0.00    +0.000 A 
ATOM     26  F   UNL     1      47.028   8.322  12.463  0.00  0.00    +0.000 F 
BRANCH  23  27
ATOM     27  C   UNL     1      43.928   4.672  13.170  0.00  0.00    +0.000 C 
ATOM     28  N   UNL     1      42.855   5.520  13.140  0.00  0.00    +0.000 N 
ATOM     29  O   UNL     1      43.783   3.459  13.167  0.00  0.00    +0.000 OA
ATOM     30  H   UNL     1      42.916   6.501  13.371  0.00  0.00    +0.000 HD
ATOM     31  H   UNL     1      41.940   5.091  13.183  0.00  0.00    +0.000 HD
ENDBRANCH  23  27
ENDBRANCH  18  20
ENDBRANCH   1  18
TORSDOF 6
ENDMDL
MODEL 9
REMARK VINA RESULT:    -7.122      3.973      8.702
REMARK INTER + INTRA:          -9.508
REMARK INTER:                  -9.006
REMARK INTRA:                  -0.502
REMARK UNBOUND:                 0.112
REMARK  Name = 
REMARK  6 active torsions:
REMARK  status: ('A' for Active; 'I' for Inactive)
REMARK    1  A    between atoms: C_2  and  C_3
REMARK    2  A    between atoms: C_6  and  C_7
REMARK    3  A    between atoms: C_11  and  C_12
REMARK    4  A    between atoms: C_12  and  N_13
REMARK    5  A    between atoms: N_13  and  C_14
REMARK    6  A    between atoms: C_17  and  C_18
REMARK                            x       y       z     vdW  Elec       q    Type
REMARK                         _______ _______ _______ _____ _____    ______ ____
ROOT
ATOM      1  C   UNL     1      49.045   5.280  17.947  0.00  0.00    +0.000 C 
ATOM      2  C   UNL     1      47.709   4.638  18.274  0.00  0.00    +0.000 C 
ATOM      3  C   UNL     1      48.074   5.916  18.945  0.00  0.00    +0.000 C 
ENDROOT
BRANCH   1   8
ATOM      4  C   UNL     1      48.398   6.311  14.408  0.00  0.00    +0.000 A 
ATOM      5  C   UNL     1      49.442   7.184  14.119  0.00  0.00    +0.000 A 
ATOM      6  C   UNL     1      50.377   7.469  15.107  0.00  0.00    +0.000 A 
ATOM      7  C   UNL     1      50.252   6.868  16.354  0.00  0.00    +0.000 A 
ATOM      8  C   UNL     1      49.190   5.997  16.597  0.00  0.00    +0.000 A 
ATOM      9  N   UNL     1      48.262   5.746  15.633  0.00  0.00    +0.000 NA
BRANCH   4  13
ATOM     10  C   UNL     1      45.421   5.183  11.501  0.00  0.00    +0.000 A 
ATOM     11  C   UNL     1      45.576   4.435  12.670  0.00  0.00    +0.000 A 
ATOM     12  C   UNL     1      46.545   4.799  13.613  0.00  0.00    +0.000 A 
ATOM     13  C   UNL     1      47.381   5.912  13.411  0.00  0.00    +0.000 A 
ATOM     14  C   UNL     1      47.197   6.657  12.232  0.00  0.00    +0.000 A 
ATOM     15  C   UNL     1      46.231   6.298  11.283  0.00  0.00    +0.000 A 
BRANCH  10  17
ATOM     16  N   UNL     1      43.629   4.511   9.750  0.00  0.00    +0.000 NA
ATOM     17  C   UNL     1      44.430   4.810  10.537  0.00  0.00    +0.000 C 
ENDBRANCH  10  17
ENDBRANCH   4  13
ENDBRANCH   1   8
BRANCH   1  18
ATOM     18  N   UNL     1      50.324   4.837  18.537  0.00  0.00    +0.000 N 
ATOM     19  H   UNL     1      51.007   5.577  18.694  0.00  0.00    +0.000 HD
BRANCH  18  20
ATOM     20  C   UNL     1      51.037   3.700  18.147  0.00  0.00    +0.000 A 
ATOM     21  N   UNL     1      52.303   3.638  18.630  0.00  0.00    +0.000 NA
ATOM     22  C   UNL     1      53.026   2.511  18.394  0.00  0.00    +0.000 A 
ATOM     23  C   UNL     1      52.532   1.405  17.718  0.00  0.00    +0.000 A 
ATOM     24  C   UNL     1      51.247   1.486  17.195  0.00  0.00    +0.000 A 
ATOM     25  C   UNL     1      50.506   2.643  17.404  0.00  0.00    +0.000 A 
ATOM     26  F   UNL     1      49.274   2.680  16.879  0.00  0.00    +0.000 F 
BRANCH  23  27
ATOM     27  C   UNL     1      53.378   0.206  17.565  0.00  0.00    +0.000 C 
ATOM     28  N   UNL     1      53.348  -0.713  18.578  0.00  0.00    +0.000 N 
ATOM     29  O   UNL     1      54.100   0.058  16.591  0.00  0.00    +0.000 OA
ATOM     30  H   UNL     1      52.954  -0.524  19.488  0.00  0.00    +0.000 HD
ATOM     31  H   UNL     1      54.000  -1.484  18.508  0.00  0.00    +0.000 HD
ENDBRANCH  23  27
ENDBRANCH  18  20
ENDBRANCH   1  18
TORSDOF 6
ENDMDL
