MODEL 1
REMARK VINA RESULT:    -7.554      0.000      0.000
REMARK INTER + INTRA:         -11.636
REMARK INTER:                 -10.645
REMARK INTRA:                  -0.991
REMARK UNBOUND:                -0.991
REMARK  Name = 
REMARK  7 active torsions:
REMARK  status: ('A' for Active; 'I' for Inactive)
REMARK    1  A    between atoms: C_2  and  C_3
REMARK    2  A    between atoms: C_7  and  C_8
REMARK    3  A    between atoms: N_10  and  C_11
REMARK    4  A    between atoms: C_11  and  C_12
REMARK    5  A    between atoms: C_15  and  C_16
REMARK    6  A    between atoms: C_16  and  N_17
REMARK    7  A    between atoms: C_18  and  C_20
REMARK                            x       y       z     vdW  Elec       q    Type
REMARK                         _______ _______ _______ _____ _____    ______ ____
ROOT
ATOM      1  C   UNL     1      45.248   6.908  11.908  0.00  0.00    +0.000 A 
ATOM      2  C   UNL     1      46.279   6.218  12.562  0.00  0.00    +0.000 A 
ATOM      3  C   UNL     1      47.200   6.898  13.369  0.00  0.00    +0.000 A 
ATOM      4  C   UNL     1      47.098   8.284  13.558  0.00  0.00    +0.000 A 
ATOM      5  C   UNL     1      46.076   8.974  12.892  0.00  0.00    +0.000 A 
ATOM      6  C   UNL     1      45.154   8.294  12.088  0.00  0.00    +0.000 A 
ENDROOT
BRANCH   1   7
ATOM      7  C   UNL     1      44.269   6.172  11.029  0.00  0.00    +0.000 C 
BRANCH   7  10
ATOM      8  C   UNL     1      44.922   4.124   9.856  0.00  0.00    +0.000 C 
ATOM      9  O   UNL     1      44.376   3.409  10.689  0.00  0.00    +0.000 OA
ATOM     10  N   UNL     1      44.921   5.502   9.923  0.00  0.00    +0.000 N 
ATOM     11  H   UNL     1      45.553   6.040   9.348  0.00  0.00    +0.000 HD
BRANCH   8  16
ATOM     12  C   UNL     1      46.458   1.480   7.637  0.00  0.00    +0.000 A 
ATOM     13  C   UNL     1      46.943   2.247   6.574  0.00  0.00    +0.000 A 
ATOM     14  C   UNL     1      46.779   3.634   6.575  0.00  0.00    +0.000 A 
ATOM     15  C   UNL     1      46.134   4.262   7.644  0.00  0.00    +0.000 A 
ATOM     16  C   UNL     1      45.653   3.503   8.717  0.00  0.00    +0.000 A 
ATOM     17  C   UNL     1      45.807   2.108   8.706  0.00  0.00    +0.000 A 
BRANCH  12  19
ATOM     18  N   UNL     1      46.775  -1.097   7.619  0.00  0.00    +0.000 NA
ATOM     19  C   UNL     1      46.628   0.055   7.633  0.00  0.00    +0.000 C 
ENDBRANCH  12  19
ENDBRANCH   8  16
ENDBRANCH   7  10
ENDBRANCH   1   7
BRANCH   4  20
ATOM     20  C   UNL     1      48.070   9.028  14.440  0.00  0.00    +0.000 C 
BRANCH  20  21
ATOM     21  N   UNL     1      48.242   8.382  15.715  0.00  0.00    +0.000 N 
ATOM     22  C   UNL     1      49.356   7.625  15.987  0.00  0.00    +0.000 C 
ATOM     23  O   UNL     1      50.271   7.495  15.178  0.00  0.00    +0.000 OA
ATOM     24  H   UNL     1      47.410   8.258  16.283  0.00  0.00    +0.000 HD
BRANCH  22  25
ATOM     25  C   UNL     1      49.427   7.026  17.326  0.00  0.00    +0.000 A 
ATOM     26  C   UNL     1      49.938   7.759  18.389  0.00  0.00    +0.000 A 
ATOM     27  S   UNL     1      49.894   6.926  19.877  0.00  0.00    +0.000 S 
ATOM     28  C   UNL     1      49.239   5.538  19.145  0.00  0.00    +0.000 A 
ATOM     29  N   UNL     1      48.978   4.418  19.871  0.00  0.00    +0.000 NA
ATOM     30  C   UNL     1      48.511   3.432  19.181  0.00  0.00    +0.000 A 
ATOM     31  N   UNL     1      48.274   3.466  17.832  0.00  0.00    +0.000 N 
ATOM     32  C   UNL     1      48.495   4.582  17.064  0.00  0.00    +0.000 A 
ATOM     33  O   UNL     1      48.230   4.594  15.866  0.00  0.00    +0.000 OA
ATOM     34  C   UNL     1      49.036   5.715  17.788  0.00  0.00    +0.000 A 
ATOM     35  H   UNL     1      47.895   2.663  17.352  0.00  0.00    +0.000 HD
ENDBRANCH  22  25
ENDBRANCH  20  21
ENDBRANCH   4  20
TORSDOF 7
ENDMDL
MODEL 2
REMARK VINA RESULT:    -7.340      1.316      1.714
REMARK INTER + INTRA:         -11.334
REMARK INTER:                 -10.659
REMARK INTRA:                  -0.675
REMARK UNBOUND:                -0.991
REMARK  Name = 
REMARK  7 active torsions:
REMARK  status: ('A' for Active; 'I' for Inactive)
REMARK    1  A    between atoms: C_2  and  C_3
REMARK    2  A    between atoms: C_7  and  C_8
REMARK    3  A    between atoms: N_10  and  C_11
REMARK    4  A    between atoms: C_11  and  C_12
REMARK    5  A    between atoms: C_15  and  C_16
REMARK    6  A    between atoms: C_16  and  N_17
REMARK    7  A    between atoms: C_18  and  C_20
REMARK                            x       y       z     vdW  Elec       q    Type
REMARK                         _______ _______ _______ _____ _____    ______ ____
ROOT
ATOM      1  C   UNL     1      44.585   6.086  11.608  0.00  0.00    +0.000 A 
ATOM      2  C   UNL     1      45.497   5.488  12.489  0.00  0.00    +0.000 A 
ATOM      3  C   UNL     1      46.451   6.256  13.167  0.00  0.00    +0.000 A 
ATOM      4  C   UNL     1      46.502   7.647  12.995  0.00  0.00    +0.000 A 
ATOM      5  C   UNL     1      45.599   8.242  12.103  0.00  0.00    +0.000 A 
ATOM      6  C   UNL     1      44.643   7.474  11.428  0.00  0.00    +0.000 A 
ENDROOT
BRANCH   1   7
ATOM      7  C   UNL     1      43.569   5.251  10.870  0.00  0.00    +0.000 C 
BRANCH   7  10
ATOM      8  C   UNL     1      45.044   4.317   9.153  0.00  0.00    +0.000 C 
ATOM      9  O   UNL     1      45.364   5.428   8.746  0.00  0.00    +0.000 OA
ATOM     10  N   UNL     1      44.172   4.116  10.203  0.00  0.00    +0.000 N 
ATOM     11  H   UNL     1      43.773   3.203  10.365  0.00  0.00    +0.000 HD
BRANCH   8  16
ATOM     12  C   UNL     1      46.934   2.160   6.693  0.00  0.00    +0.000 A 
ATOM     13  C   UNL     1      46.715   0.880   7.210  0.00  0.00    +0.000 A 
ATOM     14  C   UNL     1      45.944   0.709   8.361  0.00  0.00    +0.000 A 
ATOM     15  C   UNL     1      45.380   1.818   8.998  0.00  0.00    +0.000 A 
ATOM     16  C   UNL     1      45.588   3.104   8.483  0.00  0.00    +0.000 A 
ATOM     17  C   UNL     1      46.375   3.273   7.334  0.00  0.00    +0.000 A 
BRANCH  12  19
ATOM     18  N   UNL     1      48.377   2.461   4.556  0.00  0.00    +0.000 NA
ATOM     19  C   UNL     1      47.728   2.333   5.510  0.00  0.00    +0.000 C 
ENDBRANCH  12  19
ENDBRANCH   8  16
ENDBRANCH   7  10
ENDBRANCH   1   7
BRANCH   4  20
ATOM     20  C   UNL     1      47.512   8.491  13.733  0.00  0.00    +0.000 C 
BRANCH  20  21
ATOM     21  N   UNL     1      47.839   7.935  15.020  0.00  0.00    +0.000 N 
ATOM     22  C   UNL     1      48.964   7.167  15.200  0.00  0.00    +0.000 C 
ATOM     23  O   UNL     1      49.760   6.951  14.289  0.00  0.00    +0.000 OA
ATOM     24  H   UNL     1      47.089   7.878  15.700  0.00  0.00    +0.000 HD
BRANCH  22  25
ATOM     25  C   UNL     1      49.202   6.665  16.559  0.00  0.00    +0.000 A 
ATOM     26  C   UNL     1      49.889   7.447  17.479  0.00  0.00    +0.000 A 
ATOM     27  S   UNL     1      50.025   6.730  19.020  0.00  0.00    +0.000 S 
ATOM     28  C   UNL     1      49.216   5.327  18.500  0.00  0.00    +0.000 A 
ATOM     29  N   UNL     1      49.016   4.278  19.343  0.00  0.00    +0.000 NA
ATOM     30  C   UNL     1      48.415   3.269  18.806  0.00  0.00    +0.000 A 
ATOM     31  N   UNL     1      47.989   3.216  17.505  0.00  0.00    +0.000 N 
ATOM     32  C   UNL     1      48.143   4.259  16.626  0.00  0.00    +0.000 A 
ATOM     33  O   UNL     1      47.710   4.197  15.480  0.00  0.00    +0.000 OA
ATOM     34  C   UNL     1      48.828   5.414  17.175  0.00  0.00    +0.000 A 
ATOM     35  H   UNL     1      47.513   2.400  17.148  0.00  0.00    +0.000 HD
ENDBRANCH  22  25
ENDBRANCH  20  21
ENDBRANCH   4  20
TORSDOF 7
ENDMDL
MODEL 3
REMARK VINA RESULT:    -7.307      2.562      2.943
REMARK INTER + INTRA:         -11.288
REMARK INTER:                 -10.254
REMARK INTRA:                  -1.034
REMARK UNBOUND:                -0.991
REMARK  Name = 
REMARK  7 active torsions:
REMARK  status: ('A' for Active; 'I' for Inactive)
REMARK    1  A    between atoms: C_2  and  C_3
REMARK    2  A    between atoms: C_7  and  C_8
REMARK    3  A    between atoms: N_10  and  C_11
REMARK    4  A    between atoms: C_11  and  C_12
REMARK    5  A    between atoms: C_15  and  C_16
REMARK    6  A    between atoms: C_16  and  N_17
REMARK    7  A    between atoms: C_18  and  C_20
REMARK                            x       y       z     vdW  Elec       q    Type
REMARK                         _______ _______ _______ _____ _____    ______ ____
ROOT
ATOM      1  C   UNL     1      46.049   4.726  13.501  0.00  0.00    +0.000 A 
ATOM      2  C   UNL     1      46.538   5.976  13.095  0.00  0.00    +0.000 A 
ATOM      3  C   UNL     1      47.485   6.662  13.864  0.00  0.00    +0.000 A 
ATOM      4  C   UNL     1      47.983   6.104  15.050  0.00  0.00    +0.000 A 
ATOM      5  C   UNL     1      47.483   4.861  15.463  0.00  0.00    +0.000 A 
ATOM      6  C   UNL     1      46.538   4.174  14.692  0.00  0.00    +0.000 A 
ENDROOT
BRANCH   1   7
ATOM      7  C   UNL     1      45.019   3.999  12.676  0.00  0.00    +0.000 C 
BRANCH   7  10
ATOM      8  C   UNL     1      45.170   4.129  10.235  0.00  0.00    +0.000 C 
ATOM      9  O   UNL     1      44.390   5.072  10.183  0.00  0.00    +0.000 OA
ATOM     10  N   UNL     1      45.556   3.529  11.417  0.00  0.00    +0.000 N 
ATOM     11  H   UNL     1      46.022   2.633  11.404  0.00  0.00    +0.000 HD
BRANCH   8  16
ATOM     12  C   UNL     1      46.388   1.593   7.712  0.00  0.00    +0.000 A 
ATOM     13  C   UNL     1      46.688   2.405   6.615  0.00  0.00    +0.000 A 
ATOM     14  C   UNL     1      46.503   3.787   6.691  0.00  0.00    +0.000 A 
ATOM     15  C   UNL     1      46.021   4.366   7.869  0.00  0.00    +0.000 A 
ATOM     16  C   UNL     1      45.725   3.561   8.976  0.00  0.00    +0.000 A 
ATOM     17  C   UNL     1      45.900   2.172   8.891  0.00  0.00    +0.000 A 
BRANCH  12  19
ATOM     18  N   UNL     1      46.746  -0.973   7.559  0.00  0.00    +0.000 NA
ATOM     19  C   UNL     1      46.579   0.174   7.632  0.00  0.00    +0.000 C 
ENDBRANCH  12  19
ENDBRANCH   8  16
ENDBRANCH   7  10
ENDBRANCH   1   7
BRANCH   4  20
ATOM     20  C   UNL     1      49.019   6.822  15.880  0.00  0.00    +0.000 C 
BRANCH  20  21
ATOM     21  N   UNL     1      50.061   5.934  16.325  0.00  0.00    +0.000 N 
ATOM     22  C   UNL     1      50.376   5.814  17.657  0.00  0.00    +0.000 C 
ATOM     23  O   UNL     1      49.763   6.423  18.530  0.00  0.00    +0.000 OA
ATOM     24  H   UNL     1      50.735   5.633  15.629  0.00  0.00    +0.000 HD
BRANCH  22  25
ATOM     25  C   UNL     1      51.448   4.867  17.991  0.00  0.00    +0.000 A 
ATOM     26  C   UNL     1      52.632   5.328  18.552  0.00  0.00    +0.000 A 
ATOM     27  S   UNL     1      53.740   4.086  18.925  0.00  0.00    +0.000 S 
ATOM     28  C   UNL     1      52.699   2.893  18.302  0.00  0.00    +0.000 A 
ATOM     29  N   UNL     1      53.061   1.582  18.289  0.00  0.00    +0.000 NA
ATOM     30  C   UNL     1      52.186   0.793  17.760  0.00  0.00    +0.000 A 
ATOM     31  N   UNL     1      50.979   1.194  17.250  0.00  0.00    +0.000 N 
ATOM     32  C   UNL     1      50.560   2.501  17.267  0.00  0.00    +0.000 A 
ATOM     33  O   UNL     1      49.454   2.821  16.843  0.00  0.00    +0.000 OA
ATOM     34  C   UNL     1      51.513   3.433  17.836  0.00  0.00    +0.000 A 
ATOM     35  H   UNL     1      50.333   0.524  16.861  0.00  0.00    +0.000 HD
ENDBRANCH  22  25
ENDBRANCH  20  21
ENDBRANCH   4  20
TORSDOF 7
ENDMDL
MODEL 4
REMARK VINA RESULT:    -6.939      4.669      9.068
REMARK INTER + INTRA:         -10.770
REMARK INTER:                  -9.607
REMARK INTRA:                  -1.163
REMARK UNBOUND:                -0.991
REMARK  Name = 
REMARK  7 active torsions:
REMARK  status: ('A' for Active; 'I' for Inactive)
REMARK    1  A    between atoms: C_2  and  C_3
REMARK    2  A    between atoms: C_7  and  C_8
REMARK    3  A    between atoms: N_10  and  C_11
REMARK    4  A    between atoms: C_11  and  C_12
REMARK    5  A    between atoms: C_15  and  C_16
REMARK    6  A    between atoms: C_16  and  N_17
REMARK    7  A    between atoms: C_18  and  C_20
REMARK                            x       y       z     vdW  Elec       q    Type
REMARK                         _______ _______ _______ _____ _____    ______ ____
ROOT
ATOM      1  C   UNL     1      49.598   4.549  17.620  0.00  0.00    +0.000 A 
ATOM      2  C   UNL     1      50.339   5.684  17.261  0.00  0.00    +0.000 A 
ATOM      3  C   UNL     1      49.896   6.540  16.244  0.00  0.00    +0.000 A 
ATOM      4  C   UNL     1      48.688   6.291  15.576  0.00  0.00    +0.000 A 
ATOM      5  C   UNL     1      47.956   5.149  15.927  0.00  0.00    +0.000 A 
ATOM      6  C   UNL     1      48.397   4.295  16.945  0.00  0.00    +0.000 A 
ENDROOT
BRANCH   1   7
ATOM      7  C   UNL     1      50.088   3.624  18.705  0.00  0.00    +0.000 C 
BRANCH   7  10
ATOM      8  C   UNL     1      51.707   2.074  17.717  0.00  0.00    +0.000 C 
ATOM      9  O   UNL     1      50.826   1.411  17.182  0.00  0.00    +0.000 OA
ATOM     10  N   UNL     1      51.452   3.193  18.484  0.00  0.00    +0.000 N 
ATOM     11  H   UNL     1      52.174   3.579  19.075  0.00  0.00    +0.000 HD
BRANCH   8  16
ATOM     12  C   UNL     1      54.732  -0.104  17.101  0.00  0.00    +0.000 A 
ATOM     13  C   UNL     1      55.775   0.821  17.207  0.00  0.00    +0.000 A 
ATOM     14  C   UNL     1      55.501   2.161  17.487  0.00  0.00    +0.000 A 
ATOM     15  C   UNL     1      54.181   2.583  17.670  0.00  0.00    +0.000 A 
ATOM     16  C   UNL     1      53.130   1.662  17.573  0.00  0.00    +0.000 A 
ATOM     17  C   UNL     1      53.408   0.319  17.278  0.00  0.00    +0.000 A 
BRANCH  12  19
ATOM     18  N   UNL     1      55.259  -2.593  16.585  0.00  0.00    +0.000 NA
ATOM     19  C   UNL     1      55.016  -1.480  16.812  0.00  0.00    +0.000 C 
ENDBRANCH  12  19
ENDBRANCH   8  16
ENDBRANCH   7  10
ENDBRANCH   1   7
BRANCH   4  20
ATOM     20  C   UNL     1      48.187   7.214  14.493  0.00  0.00    +0.000 C 
BRANCH  20  21
ATOM     21  N   UNL     1      46.954   6.747  13.917  0.00  0.00    +0.000 N 
ATOM     22  C   UNL     1      46.752   6.756  12.557  0.00  0.00    +0.000 C 
ATOM     23  O   UNL     1      47.622   7.124  11.771  0.00  0.00    +0.000 OA
ATOM     24  H   UNL     1      46.150   6.691  14.534  0.00  0.00    +0.000 HD
BRANCH  22  25
ATOM     25  C   UNL     1      45.460   6.243  12.085  0.00  0.00    +0.000 A 
ATOM     26  C   UNL     1      44.526   7.112  11.535  0.00  0.00    +0.000 A 
ATOM     27  S   UNL     1      43.108   6.335  10.992  0.00  0.00    +0.000 S 
ATOM     28  C   UNL     1      43.669   4.819  11.520  0.00  0.00    +0.000 A 
ATOM     29  N   UNL     1      42.908   3.700  11.378  0.00  0.00    +0.000 NA
ATOM     30  C   UNL     1      43.446   2.625  11.849  0.00  0.00    +0.000 A 
ATOM     31  N   UNL     1      44.680   2.565  12.442  0.00  0.00    +0.000 N 
ATOM     32  C   UNL     1      45.495   3.662  12.581  0.00  0.00    +0.000 A 
ATOM     33  O   UNL     1      46.613   3.565  13.076  0.00  0.00    +0.000 OA
ATOM     34  C   UNL     1      44.931   4.900  12.082  0.00  0.00    +0.000 A 
ATOM     35  H   UNL     1      45.051   1.689  12.780  0.00  0.00    +0.000 HD
ENDBRANCH  22  25
ENDBRANCH  20  21
ENDBRANCH   4  20
TORSDOF 7
ENDMDL
MODEL 5
REMARK VINA RESULT:    -6.814      1.291      2.005
REMARK INTER + INTRA:         -10.593
REMARK INTER:                  -9.759
REMARK INTRA:                  -0.834
REMARK UNBOUND:                -0.991
REMARK  Name = 
REMARK  7 active torsions:
REMARK  status: ('A' for Active; 'I' for Inactive)
REMARK    1  A    between atoms: C_2  and  C_3
REMARK    2  A    between atoms: C_7  and  C_8
REMARK    3  A    between atoms: N_10  and  C_11
REMARK    4  A    between atoms: C_11  and  C_12
REMARK    5  A    between atoms: C_15  and  C_16
REMARK    6  A    between atoms: C_16  and  N_17
REMARK    7  A    between atoms: C_18  and  C_20
REMARK                            x       y       z     vdW  Elec       q    Type
REMARK                         _______ _______ _______ _____ _____    ______ ____
ROOT
ATOM      1  C   UNL     1      45.208   6.630  11.650  0.00  0.00    +0.000 A 
ATOM      2  C   UNL     1      46.385   5.972  12.034  0.00  0.00    +0.000 A 
ATOM      3  C   UNL     1      47.299   6.582  12.903  0.00  0.00    +0.000 A 
ATOM      4  C   UNL     1      47.046   7.859  13.424  0.00  0.00    +0.000 A 
ATOM      5  C   UNL     1      45.876   8.521  13.028  0.00  0.00    +0.000 A 
ATOM      6  C   UNL     1      44.961   7.910  12.162  0.00  0.00    +0.000 A 
ENDROOT
BRANCH   1   7
ATOM      7  C   UNL     1      44.236   5.974  10.703  0.00  0.00    +0.000 C 
BRANCH   7  10
ATOM      8  C   UNL     1      45.027   3.924   9.621  0.00  0.00    +0.000 C 
ATOM      9  O   UNL     1      44.579   3.215  10.514  0.00  0.00    +0.000 OA
ATOM     10  N   UNL     1      44.905   5.299   9.610  0.00  0.00    +0.000 N 
ATOM     11  H   UNL     1      45.465   5.855   8.981  0.00  0.00    +0.000 HD
BRANCH   8  16
ATOM     12  C   UNL     1      46.566   1.278   7.406  0.00  0.00    +0.000 A 
ATOM     13  C   UNL     1      47.080   2.047   6.358  0.00  0.00    +0.000 A 
ATOM     14  C   UNL     1      46.935   3.436   6.369  0.00  0.00    +0.000 A 
ATOM     15  C   UNL     1      46.280   4.064   7.432  0.00  0.00    +0.000 A 
ATOM     16  C   UNL     1      45.770   3.303   8.490  0.00  0.00    +0.000 A 
ATOM     17  C   UNL     1      45.905   1.906   8.469  0.00  0.00    +0.000 A 
BRANCH  12  19
ATOM     18  N   UNL     1      46.839  -1.304   7.397  0.00  0.00    +0.000 NA
ATOM     19  C   UNL     1      46.716  -0.149   7.393  0.00  0.00    +0.000 C 
ENDBRANCH  12  19
ENDBRANCH   8  16
ENDBRANCH   7  10
ENDBRANCH   1   7
BRANCH   4  20
ATOM     20  C   UNL     1      48.011   8.521  14.377  0.00  0.00    +0.000 C 
BRANCH  20  21
ATOM     21  N   UNL     1      48.119   7.801  15.619  0.00  0.00    +0.000 N 
ATOM     22  C   UNL     1      49.182   6.967  15.870  0.00  0.00    +0.000 C 
ATOM     23  O   UNL     1      50.104   6.826  15.070  0.00  0.00    +0.000 OA
ATOM     24  H   UNL     1      47.271   7.697  16.165  0.00  0.00    +0.000 HD
BRANCH  22  25
ATOM     25  C   UNL     1      49.192   6.297  17.176  0.00  0.00    +0.000 A 
ATOM     26  C   UNL     1      48.481   5.117  17.357  0.00  0.00    +0.000 A 
ATOM     27  S   UNL     1      48.650   4.451  18.919  0.00  0.00    +0.000 S 
ATOM     28  C   UNL     1      49.636   5.741  19.424  0.00  0.00    +0.000 A 
ATOM     29  N   UNL     1      50.115   5.803  20.696  0.00  0.00    +0.000 NA
ATOM     30  C   UNL     1      50.825   6.852  20.948  0.00  0.00    +0.000 A 
ATOM     31  N   UNL     1      51.106   7.841  20.042  0.00  0.00    +0.000 N 
ATOM     32  C   UNL     1      50.668   7.807  18.741  0.00  0.00    +0.000 A 
ATOM     33  O   UNL     1      50.975   8.687  17.943  0.00  0.00    +0.000 OA
ATOM     34  C   UNL     1      49.852   6.656  18.409  0.00  0.00    +0.000 A 
ATOM     35  H   UNL     1      51.679   8.631  20.299  0.00  0.00    +0.000 HD
ENDBRANCH  22  25
ENDBRANCH  20  21
ENDBRANCH   4  20
TORSDOF 7
ENDMDL
MODEL 6
REMARK VINA RESULT:    -6.767      2.764      3.459
REMARK INTER + INTRA:         -10.527
REMARK INTER:                  -9.550
REMARK INTRA:                  -0.977
REMARK UNBOUND:                -0.991
REMARK  Name = 
REMARK  7 active torsions:
REMARK  status: ('A' for Active; 'I' for Inactive)
REMARK    1  A    between atoms: C_2  and  C_3
REMARK    2  A    between atoms: C_7  and  C_8
REMARK    3  A    between atoms: N_10  and  C_11
REMARK    4  A    between atoms: C_11  and  C_12
REMARK    5  A    between atoms: C_15  and  C_16
REMARK    6  A    between atoms: C_16  and  N_17
REMARK    7  A    between atoms: C_18  and  C_20
REMARK                            x       y       z     vdW  Elec       q    Type
REMARK                         _______ _______ _______ _____ _____    ______ ____
ROOT
ATOM      1  C   UNL     1      46.496   7.482  12.818  0.00  0.00    +0.000 A 
ATOM      2  C   UNL     1      47.104   6.319  13.310  0.00  0.00    +0.000 A 
ATOM      3  C   UNL     1      48.073   6.386  14.319  0.00  0.00    +0.000 A 
ATOM      4  C   UNL     1      48.441   7.619  14.875  0.00  0.00    +0.000 A 
ATOM      5  C   UNL     1      47.843   8.782  14.372  0.00  0.00    +0.000 A 
ATOM      6  C   UNL     1      46.872   8.715  13.366  0.00  0.00    +0.000 A 
ENDROOT
BRANCH   1   7
ATOM      7  C   UNL     1      45.464   7.405  11.721  0.00  0.00    +0.000 C 
BRANCH   7  10
ATOM      8  C   UNL     1      44.485   5.443  10.630  0.00  0.00    +0.000 C 
ATOM      9  O   UNL     1      43.353   5.738  10.995  0.00  0.00    +0.000 OA
ATOM     10  N   UNL     1      45.599   6.203  10.925  0.00  0.00    +0.000 N 
ATOM     11  H   UNL     1      46.525   5.821  10.795  0.00  0.00    +0.000 HD
BRANCH   8  16
ATOM     12  C   UNL     1      45.699   3.121   7.907  0.00  0.00    +0.000 A 
ATOM     13  C   UNL     1      45.236   1.883   8.362  0.00  0.00    +0.000 A 
ATOM     14  C   UNL     1      44.518   1.796   9.556  0.00  0.00    +0.000 A 
ATOM     15  C   UNL     1      44.253   2.949  10.300  0.00  0.00    +0.000 A 
ATOM     16  C   UNL     1      44.706   4.194   9.849  0.00  0.00    +0.000 A 
ATOM     17  C   UNL     1      45.439   4.276   8.655  0.00  0.00    +0.000 A 
BRANCH  12  19
ATOM     18  N   UNL     1      47.022   3.275   5.679  0.00  0.00    +0.000 NA
ATOM     19  C   UNL     1      46.437   3.208   6.680  0.00  0.00    +0.000 C 
ENDBRANCH  12  19
ENDBRANCH   8  16
ENDBRANCH   7  10
ENDBRANCH   1   7
BRANCH   4  20
ATOM     20  C   UNL     1      49.468   7.706  15.977  0.00  0.00    +0.000 C 
BRANCH  20  21
ATOM     21  N   UNL     1      50.097   6.435  16.227  0.00  0.00    +0.000 N 
ATOM     22  C   UNL     1      49.708   5.641  17.279  0.00  0.00    +0.000 C 
ATOM     23  O   UNL     1      48.785   5.954  18.027  0.00  0.00    +0.000 OA
ATOM     24  H   UNL     1      51.005   6.281  15.802  0.00  0.00    +0.000 HD
BRANCH  22  25
ATOM     25  C   UNL     1      50.412   4.361  17.426  0.00  0.00    +0.000 A 
ATOM     26  C   UNL     1      49.729   3.166  17.241  0.00  0.00    +0.000 A 
ATOM     27  S   UNL     1      50.716   1.783  17.398  0.00  0.00    +0.000 S 
ATOM     28  C   UNL     1      52.079   2.730  17.770  0.00  0.00    +0.000 A 
ATOM     29  N   UNL     1      53.280   2.153  18.048  0.00  0.00    +0.000 NA
ATOM     30  C   UNL     1      54.218   2.990  18.342  0.00  0.00    +0.000 A 
ATOM     31  N   UNL     1      54.067   4.352  18.376  0.00  0.00    +0.000 N 
ATOM     32  C   UNL     1      52.884   4.979  18.075  0.00  0.00    +0.000 A 
ATOM     33  O   UNL     1      52.795   6.203  18.070  0.00  0.00    +0.000 OA
ATOM     34  C   UNL     1      51.791   4.083  17.753  0.00  0.00    +0.000 A 
ATOM     35  H   UNL     1      54.846   4.954  18.601  0.00  0.00    +0.000 HD
ENDBRANCH  22  25
ENDBRANCH  20  21
ENDBRANCH   4  20
TORSDOF 7
ENDMDL
MODEL 7
REMARK VINA RESULT:    -6.726      5.392      8.266
REMARK INTER + INTRA:         -10.470
REMARK INTER:                  -9.398
REMARK INTRA:                  -1.072
REMARK UNBOUND:                -0.991
REMARK  Name = 
REMARK  7 active torsions:
REMARK  status: ('A' for Active; 'I' for Inactive)
REMARK    1  A    between atoms: C_2  and  C_3
REMARK    2  A    between atoms: C_7  and  C_8
REMARK    3  A    between atoms: N_10  and  C_11
REMARK    4  A    between atoms: C_11  and  C_12
REMARK    5  A    between atoms: C_15  and  C_16
REMARK    6  A    between atoms: C_16  and  N_17
REMARK    7  A    between atoms: C_18  and  C_20
REMARK                            x       y       z     vdW  Elec       q    Type
REMARK                         _______ _______ _______ _____ _____    ______ ____
ROOT
ATOM      1  C   UNL     1      50.476   8.727  12.069  0.00  0.00    +0.000 A 
ATOM      2  C   UNL     1      49.597   9.818  12.007  0.00  0.00    +0.000 A 
ATOM      3  C   UNL     1      48.209   9.624  12.006  0.00  0.00    +0.000 A 
ATOM      4  C   UNL     1      47.668   8.334  12.087  0.00  0.00    +0.000 A 
ATOM      5  C   UNL     1      48.548   7.244  12.135  0.00  0.00    +0.000 A 
ATOM      6  C   UNL     1      49.934   7.438  12.140  0.00  0.00    +0.000 A 
ENDROOT
BRANCH   1   7
ATOM      7  C   UNL     1      51.967   8.942  12.055  0.00  0.00    +0.000 C 
BRANCH   7  10
ATOM      8  C   UNL     1      52.968   7.915  10.069  0.00  0.00    +0.000 C 
ATOM      9  O   UNL     1      52.678   8.872   9.362  0.00  0.00    +0.000 OA
ATOM     10  N   UNL     1      52.672   7.850  11.416  0.00  0.00    +0.000 N 
ATOM     11  H   UNL     1      52.732   6.971  11.908  0.00  0.00    +0.000 HD
BRANCH   8  16
ATOM     12  C   UNL     1      54.270   5.504   7.467  0.00  0.00    +0.000 A 
ATOM     13  C   UNL     1      54.977   4.591   8.254  0.00  0.00    +0.000 A 
ATOM     14  C   UNL     1      55.030   4.749   9.640  0.00  0.00    +0.000 A 
ATOM     15  C   UNL     1      54.369   5.820  10.249  0.00  0.00    +0.000 A 
ATOM     16  C   UNL     1      53.651   6.736   9.470  0.00  0.00    +0.000 A 
ATOM     17  C   UNL     1      53.612   6.581   8.076  0.00  0.00    +0.000 A 
BRANCH  12  19
ATOM     18  N   UNL     1      54.190   5.204   4.890  0.00  0.00    +0.000 NA
ATOM     19  C   UNL     1      54.218   5.340   6.043  0.00  0.00    +0.000 C 
ENDBRANCH  12  19
ENDBRANCH   8  16
ENDBRANCH   7  10
ENDBRANCH   1   7
BRANCH   4  20
ATOM     20  C   UNL     1      46.176   8.110  12.108  0.00  0.00    +0.000 C 
BRANCH  20  21
ATOM     21  N   UNL     1      45.834   6.740  11.828  0.00  0.00    +0.000 N 
ATOM     22  C   UNL     1      44.556   6.381  11.475  0.00  0.00    +0.000 C 
ATOM     23  O   UNL     1      43.658   7.209  11.343  0.00  0.00    +0.000 OA
ATOM     24  H   UNL     1      46.468   6.028  12.177  0.00  0.00    +0.000 HD
BRANCH  22  25
ATOM     25  C   UNL     1      44.330   4.956  11.201  0.00  0.00    +0.000 A 
ATOM     26  C   UNL     1      43.581   4.188  12.083  0.00  0.00    +0.000 A 
ATOM     27  S   UNL     1      43.377   2.572  11.579  0.00  0.00    +0.000 S 
ATOM     28  C   UNL     1      44.324   2.826  10.190  0.00  0.00    +0.000 A 
ATOM     29  N   UNL     1      44.576   1.814   9.316  0.00  0.00    +0.000 NA
ATOM     30  C   UNL     1      45.333   2.142   8.323  0.00  0.00    +0.000 A 
ATOM     31  N   UNL     1      45.855   3.393   8.119  0.00  0.00    +0.000 N 
ATOM     32  C   UNL     1      45.606   4.451   8.958  0.00  0.00    +0.000 A 
ATOM     33  O   UNL     1      46.052   5.569   8.722  0.00  0.00    +0.000 OA
ATOM     34  C   UNL     1      44.772   4.132  10.100  0.00  0.00    +0.000 A 
ATOM     35  H   UNL     1      46.431   3.589   7.314  0.00  0.00    +0.000 HD
ENDBRANCH  22  25
ENDBRANCH  20  21
ENDBRANCH   4  20
TORSDOF 7
ENDMDL
MODEL 8
REMARK VINA RESULT:    -6.698      1.466      2.048
REMARK INTER + INTRA:         -10.430
REMARK INTER:                  -9.212
REMARK INTRA:                  -1.218
REMARK UNBOUND:                -0.991
REMARK  Name = 
REMARK  7 active torsions:
REMARK  status: ('A' for Active; 'I' for Inactive)
REMARK    1  A    between atoms: C_2  and  C_3
REMARK    2  A    between atoms: C_7  and  C_8
REMARK    3  A    between atoms: N_10  and  C_11
REMARK    4  A    between atoms: C_11  and  C_12
REMARK    5  A    between atoms: C_15  and  C_16
REMARK    6  A    between atoms: C_16  and  N_17
REMARK    7  A    between atoms: C_18  and  C_20
REMARK                            x       y       z     vdW  Elec       q    Type
REMARK                         _______ _______ _______ _____ _____    ______ ____
ROOT
ATOM      1  C   UNL     1      46.290   7.922  12.102  0.00  0.00    +0.000 A 
ATOM      2  C   UNL     1      47.329   6.984  12.026  0.00  0.00    +0.000 A 
ATOM      3  C   UNL     1      48.529   7.181  12.722  0.00  0.00    +0.000 A 
ATOM      4  C   UNL     1      48.709   8.314  13.528  0.00  0.00    +0.000 A 
ATOM      5  C   UNL     1      47.675   9.258  13.592  0.00  0.00    +0.000 A 
ATOM      6  C   UNL     1      46.475   9.059  12.899  0.00  0.00    +0.000 A 
ENDROOT
BRANCH   1   7
ATOM      7  C   UNL     1      45.008   7.711  11.339  0.00  0.00    +0.000 C 
BRANCH   7  10
ATOM      8  C   UNL     1      44.459   5.350  10.985  0.00  0.00    +0.000 C 
ATOM      9  O   UNL     1      43.880   5.267  12.061  0.00  0.00    +0.000 OA
ATOM     10  N   UNL     1      45.044   6.513  10.526  0.00  0.00    +0.000 N 
ATOM     11  H   UNL     1      45.688   6.487   9.748  0.00  0.00    +0.000 HD
BRANCH   8  16
ATOM     12  C   UNL     1      45.475   3.137   8.095  0.00  0.00    +0.000 A 
ATOM     13  C   UNL     1      44.918   1.910   8.468  0.00  0.00    +0.000 A 
ATOM     14  C   UNL     1      44.201   1.795   9.660  0.00  0.00    +0.000 A 
ATOM     15  C   UNL     1      44.031   2.911  10.485  0.00  0.00    +0.000 A 
ATOM     16  C   UNL     1      44.578   4.146  10.117  0.00  0.00    +0.000 A 
ATOM     17  C   UNL     1      45.310   4.254   8.924  0.00  0.00    +0.000 A 
BRANCH  12  19
ATOM     18  N   UNL     1      46.820   3.340   5.885  0.00  0.00    +0.000 NA
ATOM     19  C   UNL     1      46.211   3.251   6.870  0.00  0.00    +0.000 C 
ENDBRANCH  12  19
ENDBRANCH   8  16
ENDBRANCH   7  10
ENDBRANCH   1   7
BRANCH   4  20
ATOM     20  C   UNL     1      49.987   8.532  14.300  0.00  0.00    +0.000 C 
BRANCH  20  21
ATOM     21  N   UNL     1      50.031   7.740  15.502  0.00  0.00    +0.000 N 
ATOM     22  C   UNL     1      49.505   8.205  16.683  0.00  0.00    +0.000 C 
ATOM     23  O   UNL     1      48.941   9.294  16.763  0.00  0.00    +0.000 OA
ATOM     24  H   UNL     1      50.702   6.979  15.526  0.00  0.00    +0.000 HD
BRANCH  22  25
ATOM     25  C   UNL     1      49.595   7.303  17.838  0.00  0.00    +0.000 A 
ATOM     26  C   UNL     1      50.160   7.750  19.026  0.00  0.00    +0.000 A 
ATOM     27  S   UNL     1      50.133   6.588  20.275  0.00  0.00    +0.000 S 
ATOM     28  C   UNL     1      49.413   5.430  19.258  0.00  0.00    +0.000 A 
ATOM     29  N   UNL     1      49.138   4.176  19.707  0.00  0.00    +0.000 NA
ATOM     30  C   UNL     1      48.620   3.393  18.820  0.00  0.00    +0.000 A 
ATOM     31  N   UNL     1      48.346   3.753  17.526  0.00  0.00    +0.000 N 
ATOM     32  C   UNL     1      48.580   5.015  17.037  0.00  0.00    +0.000 A 
ATOM     33  O   UNL     1      48.281   5.317  15.886  0.00  0.00    +0.000 OA
ATOM     34  C   UNL     1      49.177   5.930  17.989  0.00  0.00    +0.000 A 
ATOM     35  H   UNL     1      47.928   3.097  16.883  0.00  0.00    +0.000 HD
ENDBRANCH  22  25
ENDBRANCH  20  21
ENDBRANCH   4  20
TORSDOF 7
ENDMDL
MODEL 9
REMARK VINA RESULT:    -6.350      4.073      9.523
REMARK INTER + INTRA:          -9.939
REMARK INTER:                  -9.109
REMARK INTRA:                  -0.830
REMARK UNBOUND:                -0.991
REMARK  Name = 
REMARK  7 active torsions:
REMARK  status: ('A' for Active; 'I' for Inactive)
REMARK    1  A    between atoms: C_2  and  C_3
REMARK    2  A    between atoms: C_7  and  C_8
REMARK    3  A    between atoms: N_10  and  C_11
REMARK    4  A    between atoms: C_11  and  C_12
REMARK    5  A    between atoms: C_15  and  C_16
REMARK    6  A    between atoms: C_16  and  N_17
REMARK    7  A    between atoms: C_18  and  C_20
REMARK                            x       y       z     vdW  Elec       q    Type
REMARK                         _______ _______ _______ _____ _____    ______ ____
ROOT
ATOM      1  C   UNL     1      48.327   4.445  17.041  0.00  0.00    +0.000 A 
ATOM      2  C   UNL     1      47.399   4.074  16.057  0.00  0.00    +0.000 A 
ATOM      3  C   UNL     1      47.154   4.900  14.953  0.00  0.00    +0.000 A 
ATOM      4  C   UNL     1      47.847   6.108  14.796  0.00  0.00    +0.000 A 
ATOM      5  C   UNL     1      48.764   6.484  15.788  0.00  0.00    +0.000 A 
ATOM      6  C   UNL     1      49.011   5.657  16.890  0.00  0.00    +0.000 A 
ENDROOT
BRANCH   1   7
ATOM      7  C   UNL     1      48.576   3.558  18.234  0.00  0.00    +0.000 C 
BRANCH   7  10
ATOM      8  C   UNL     1      50.543   2.301  17.494  0.00  0.00    +0.000 C 
ATOM      9  O   UNL     1      49.930   1.780  16.570  0.00  0.00    +0.000 OA
ATOM     10  N   UNL     1      49.972   3.201  18.371  0.00  0.00    +0.000 N 
ATOM     11  H   UNL     1      50.441   3.438  19.234  0.00  0.00    +0.000 HD
BRANCH   8  16
ATOM     12  C   UNL     1      54.172   2.629  18.492  0.00  0.00    +0.000 A 
ATOM     13  C   UNL     1      54.649   1.334  18.263  0.00  0.00    +0.000 A 
ATOM     14  C   UNL     1      53.792   0.346  17.775  0.00  0.00    +0.000 A 
ATOM     15  C   UNL     1      52.454   0.648  17.507  0.00  0.00    +0.000 A 
ATOM     16  C   UNL     1      51.970   1.944  17.725  0.00  0.00    +0.000 A 
ATOM     17  C   UNL     1      52.830   2.931  18.228  0.00  0.00    +0.000 A 
BRANCH  12  19
ATOM     18  N   UNL     1      55.775   4.453  19.409  0.00  0.00    +0.000 NA
ATOM     19  C   UNL     1      55.054   3.643  18.994  0.00  0.00    +0.000 C 
ENDBRANCH  12  19
ENDBRANCH   8  16
ENDBRANCH   7  10
ENDBRANCH   1   7
BRANCH   4  20
ATOM     20  C   UNL     1      47.609   7.000  13.602  0.00  0.00    +0.000 C 
BRANCH  20  21
ATOM     21  N   UNL     1      47.219   6.247  12.439  0.00  0.00    +0.000 N 
ATOM     22  C   UNL     1      45.899   6.129  12.074  0.00  0.00    +0.000 C 
ATOM     23  O   UNL     1      44.998   6.689  12.694  0.00  0.00    +0.000 OA
ATOM     24  H   UNL     1      47.892   5.580  12.076  0.00  0.00    +0.000 HD
BRANCH  22  25
ATOM     25  C   UNL     1      45.624   5.348  10.861  0.00  0.00    +0.000 A 
ATOM     26  C   UNL     1      46.024   5.827   9.620  0.00  0.00    +0.000 A 
ATOM     27  S   UNL     1      45.671   4.766   8.332  0.00  0.00    +0.000 S 
ATOM     28  C   UNL     1      44.925   3.652   9.380  0.00  0.00    +0.000 A 
ATOM     29  N   UNL     1      44.370   2.505   8.906  0.00  0.00    +0.000 NA
ATOM     30  C   UNL     1      43.813   1.769   9.809  0.00  0.00    +0.000 A 
ATOM     31  N   UNL     1      43.767   2.072  11.145  0.00  0.00    +0.000 N 
ATOM     32  C   UNL     1      44.339   3.203  11.672  0.00  0.00    +0.000 A 
ATOM     33  O   UNL     1      44.320   3.423  12.879  0.00  0.00    +0.000 OA
ATOM     34  C   UNL     1      44.965   4.075  10.697  0.00  0.00    +0.000 A 
ATOM     35  H   UNL     1      43.327   1.447  11.803  0.00  0.00    +0.000 HD
ENDBRANCH  22  25
ENDBRANCH  20  21
ENDBRANCH   4  20
TORSDOF 7
ENDMDL
