MODEL 1
REMARK VINA RESULT:    -7.181      0.000      0.000
REMARK INTER + INTRA:          -9.644
REMARK INTER:                  -9.070
REMARK INTRA:                  -0.574
REMARK UNBOUND:                -0.574
REMARK  Name = 
REMARK  5 active torsions:
REMARK  status: ('A' for Active; 'I' for Inactive)
REMARK    1  A    between atoms: N_1  and  C_2
REMARK    2  A    between atoms: C_2  and  C_3
REMARK    3  A    between atoms: C_6  and  O_7
REMARK    4  A    between atoms: O_7  and  C_8
REMARK    5  A    between atoms: C_8  and  C_9
REMARK                            x       y       z     vdW  Elec       q    Type
REMARK                         _______ _______ _______ _____ _____    ______ ____
ROOT
ATOM      1  C   UNL     1      46.545   2.283   7.631  0.00  0.00    +0.000 A 
ATOM      2  C   UNL     1      45.719   1.533   8.481  0.00  0.00    +0.000 A 
ATOM      3  C   UNL     1      44.738   2.154   9.256  0.00  0.00    +0.000 A 
ATOM      4  C   UNL     1      44.589   3.537   9.212  0.00  0.00    +0.000 A 
ATOM      5  C   UNL     1      45.376   4.289   8.341  0.00  0.00    +0.000 A 
ATOM      6  C   UNL     1      46.351   3.669   7.553  0.00  0.00    +0.000 A 
ENDROOT
BRANCH   1   7
ATOM      7  C   UNL     1      47.655   1.609   6.866  0.00  0.00    +0.000 C 
BRANCH   7   8
ATOM      8  N   UNL     1      48.612   2.571   6.333  0.00  0.00    +0.000 NA
ATOM      9  H   UNL     1      48.508   2.619   5.322  0.00  0.00    +0.000 HD
ATOM     10  H   UNL     1      49.554   2.226   6.515  0.00  0.00    +0.000 HD
ENDBRANCH   7   8
ENDBRANCH   1   7
BRANCH   4  11
ATOM     11  O   UNL     1      43.694   4.247   9.967  0.00  0.00    +0.000 OA
BRANCH  11  12
ATOM     12  C   UNL     1      43.419   3.699  11.261  0.00  0.00    +0.000 C 
BRANCH  12  13
ATOM     13  C   UNL     1      44.207   4.492  12.316  0.00  0.00    +0.000 C 
ATOM     14  C   UNL     1      44.445   5.932  11.830  0.00  0.00    +0.000 C 
ATOM     15  C   UNL     1      45.333   6.725  12.782  0.00  0.00    +0.000 C 
ATOM     16  C   UNL     1      46.653   6.008  13.033  0.00  0.00    +0.000 C 
ATOM     17  C   UNL     1      46.420   4.598  13.566  0.00  0.00    +0.000 C 
ATOM     18  C   UNL     1      45.533   3.782  12.630  0.00  0.00    +0.000 C 
ENDBRANCH  12  13
ENDBRANCH  11  12
ENDBRANCH   4  11
TORSDOF 5
ENDMDL
MODEL 2
REMARK VINA RESULT:    -6.977      0.770      1.372
REMARK INTER + INTRA:          -9.386
REMARK INTER:                  -8.941
REMARK INTRA:                  -0.445
REMARK UNBOUND:                -0.574
REMARK  Name = 
REMARK  5 active torsions:
REMARK  status: ('A' for Active; 'I' for Inactive)
REMARK    1  A    between atoms: N_1  and  C_2
REMARK    2  A    between atoms: C_2  and  C_3
REMARK    3  A    between atoms: C_6  and  O_7
REMARK    4  A    between atoms: O_7  and  C_8
REMARK    5  A    between atoms: C_8  and  C_9
REMARK                            x       y       z     vdW  Elec       q    Type
REMARK                         _______ _______ _______ _____ _____    ______ ____
ROOT
ATOM      1  C   UNL     1      46.741   2.139   7.534  0.00  0.00    +0.000 A 
ATOM      2  C   UNL     1      45.863   1.495   8.419  0.00  0.00    +0.000 A 
ATOM      3  C   UNL     1      44.870   2.211   9.089  0.00  0.00    +0.000 A 
ATOM      4  C   UNL     1      44.757   3.586   8.903  0.00  0.00    +0.000 A 
ATOM      5  C   UNL     1      45.597   4.231   7.995  0.00  0.00    +0.000 A 
ATOM      6  C   UNL     1      46.586   3.514   7.312  0.00  0.00    +0.000 A 
ENDROOT
BRANCH   1   7
ATOM      7  C   UNL     1      47.862   1.368   6.886  0.00  0.00    +0.000 C 
BRANCH   7   8
ATOM      8  N   UNL     1      48.347   2.024   5.678  0.00  0.00    +0.000 NA
ATOM      9  H   UNL     1      47.678   2.739   5.395  0.00  0.00    +0.000 HD
ATOM     10  H   UNL     1      48.377   1.338   4.925  0.00  0.00    +0.000 HD
ENDBRANCH   7   8
ENDBRANCH   1   7
BRANCH   4  11
ATOM     11  O   UNL     1      43.852   4.387   9.546  0.00  0.00    +0.000 OA
BRANCH  11  12
ATOM     12  C   UNL     1      43.865   4.294  10.975  0.00  0.00    +0.000 C 
BRANCH  12  13
ATOM     13  C   UNL     1      45.240   4.745  11.493  0.00  0.00    +0.000 C 
ATOM     14  C   UNL     1      45.342   4.504  13.009  0.00  0.00    +0.000 C 
ATOM     15  C   UNL     1      46.638   5.052  13.595  0.00  0.00    +0.000 C 
ATOM     16  C   UNL     1      46.814   6.529  13.263  0.00  0.00    +0.000 C 
ATOM     17  C   UNL     1      46.767   6.763  11.758  0.00  0.00    +0.000 C 
ATOM     18  C   UNL     1      45.477   6.223  11.145  0.00  0.00    +0.000 C 
ENDBRANCH  12  13
ENDBRANCH  11  12
ENDBRANCH   4  11
TORSDOF 5
ENDMDL
MODEL 3
REMARK VINA RESULT:    -6.689      2.534      5.758
REMARK INTER + INTRA:          -9.022
REMARK INTER:                  -8.618
REMARK INTRA:                  -0.404
REMARK UNBOUND:                -0.574
REMARK  Name = 
REMARK  5 active torsions:
REMARK  status: ('A' for Active; 'I' for Inactive)
REMARK    1  A    between atoms: N_1  and  C_2
REMARK    2  A    between atoms: C_2  and  C_3
REMARK    3  A    between atoms: C_6  and  O_7
REMARK    4  A    between atoms: O_7  and  C_8
REMARK    5  A    between atoms: C_8  and  C_9
REMARK                            x       y       z     vdW  Elec       q    Type
REMARK                         _______ _______ _______ _____ _____    ______ ____
ROOT
ATOM      1  C   UNL     1      46.145   5.227  12.917  0.00  0.00    +0.000 A 
ATOM      2  C   UNL     1      45.707   6.003  11.833  0.00  0.00    +0.000 A 
ATOM      3  C   UNL     1      44.951   5.436  10.806  0.00  0.00    +0.000 A 
ATOM      4  C   UNL     1      44.645   4.078  10.836  0.00  0.00    +0.000 A 
ATOM      5  C   UNL     1      45.040   3.305  11.928  0.00  0.00    +0.000 A 
ATOM      6  C   UNL     1      45.787   3.873  12.965  0.00  0.00    +0.000 A 
ENDROOT
BRANCH   1   7
ATOM      7  C   UNL     1      47.032   5.834  13.972  0.00  0.00    +0.000 C 
BRANCH   7   8
ATOM      8  N   UNL     1      47.107   5.001  15.167  0.00  0.00    +0.000 NA
ATOM      9  H   UNL     1      47.903   5.296  15.729  0.00  0.00    +0.000 HD
ATOM     10  H   UNL     1      47.290   4.040  14.882  0.00  0.00    +0.000 HD
ENDBRANCH   7   8
ENDBRANCH   1   7
BRANCH   4  11
ATOM     11  O   UNL     1      43.954   3.415   9.857  0.00  0.00    +0.000 OA
BRANCH  11  12
ATOM     12  C   UNL     1      44.512   2.156   9.464  0.00  0.00    +0.000 C 
BRANCH  12  13
ATOM     13  C   UNL     1      45.790   2.409   8.649  0.00  0.00    +0.000 C 
ATOM     14  C   UNL     1      45.527   3.467   7.564  0.00  0.00    +0.000 C 
ATOM     15  C   UNL     1      46.727   3.663   6.644  0.00  0.00    +0.000 C 
ATOM     16  C   UNL     1      47.170   2.343   6.025  0.00  0.00    +0.000 C 
ATOM     17  C   UNL     1      47.483   1.309   7.101  0.00  0.00    +0.000 C 
ATOM     18  C   UNL     1      46.296   1.094   8.036  0.00  0.00    +0.000 C 
ENDBRANCH  12  13
ENDBRANCH  11  12
ENDBRANCH   4  11
TORSDOF 5
ENDMDL
MODEL 4
REMARK VINA RESULT:    -6.533      2.713      5.954
REMARK INTER + INTRA:          -8.825
REMARK INTER:                  -8.316
REMARK INTRA:                  -0.510
REMARK UNBOUND:                -0.574
REMARK  Name = 
REMARK  5 active torsions:
REMARK  status: ('A' for Active; 'I' for Inactive)
REMARK    1  A    between atoms: N_1  and  C_2
REMARK    2  A    between atoms: C_2  and  C_3
REMARK    3  A    between atoms: C_6  and  O_7
REMARK    4  A    between atoms: O_7  and  C_8
REMARK    5  A    between atoms: C_8  and  C_9
REMARK                            x       y       z     vdW  Elec       q    Type
REMARK                         _______ _______ _______ _____ _____    ______ ____
ROOT
ATOM      1  C   UNL     1      46.592   6.578  12.749  0.00  0.00    +0.000 A 
ATOM      2  C   UNL     1      46.337   5.300  13.268  0.00  0.00    +0.000 A 
ATOM      3  C   UNL     1      45.728   4.318  12.485  0.00  0.00    +0.000 A 
ATOM      4  C   UNL     1      45.340   4.610  11.180  0.00  0.00    +0.000 A 
ATOM      5  C   UNL     1      45.625   5.864  10.639  0.00  0.00    +0.000 A 
ATOM      6  C   UNL     1      46.248   6.846  11.417  0.00  0.00    +0.000 A 
ENDROOT
BRANCH   1   7
ATOM      7  C   UNL     1      47.172   7.652  13.633  0.00  0.00    +0.000 C 
BRANCH   7   8
ATOM      8  N   UNL     1      46.346   8.853  13.645  0.00  0.00    +0.000 NA
ATOM      9  H   UNL     1      46.161   9.140  12.685  0.00  0.00    +0.000 HD
ATOM     10  H   UNL     1      46.875   9.607  14.079  0.00  0.00    +0.000 HD
ENDBRANCH   7   8
ENDBRANCH   1   7
BRANCH   4  11
ATOM     11  O   UNL     1      44.693   3.737  10.347  0.00  0.00    +0.000 OA
BRANCH  11  12
ATOM     12  C   UNL     1      44.495   4.206   9.009  0.00  0.00    +0.000 C 
BRANCH  12  13
ATOM     13  C   UNL     1      45.145   3.215   8.031  0.00  0.00    +0.000 C 
ATOM     14  C   UNL     1      45.595   1.949   8.779  0.00  0.00    +0.000 C 
ATOM     15  C   UNL     1      46.363   0.987   7.879  0.00  0.00    +0.000 C 
ATOM     16  C   UNL     1      47.546   1.678   7.214  0.00  0.00    +0.000 C 
ATOM     17  C   UNL     1      47.097   2.904   6.427  0.00  0.00    +0.000 C 
ATOM     18  C   UNL     1      46.325   3.884   7.307  0.00  0.00    +0.000 C 
ENDBRANCH  12  13
ENDBRANCH  11  12
ENDBRANCH   4  11
TORSDOF 5
ENDMDL
MODEL 5
REMARK VINA RESULT:    -5.507      3.167      6.150
REMARK INTER + INTRA:          -7.529
REMARK INTER:                  -7.074
REMARK INTRA:                  -0.455
REMARK UNBOUND:                -0.574
REMARK  Name = 
REMARK  5 active torsions:
REMARK  status: ('A' for Active; 'I' for Inactive)
REMARK    1  A    between atoms: N_1  and  C_2
REMARK    2  A    between atoms: C_2  and  C_3
REMARK    3  A    between atoms: C_6  and  O_7
REMARK    4  A    between atoms: O_7  and  C_8
REMARK    5  A    between atoms: C_8  and  C_9
REMARK                            x       y       z     vdW  Elec       q    Type
REMARK                         _______ _______ _______ _____ _____    ______ ____
ROOT
ATOM      1  C   UNL     1      48.295   6.762  13.764  0.00  0.00    +0.000 A 
ATOM      2  C   UNL     1      47.261   5.821  13.872  0.00  0.00    +0.000 A 
ATOM      3  C   UNL     1      46.387   5.593  12.809  0.00  0.00    +0.000 A 
ATOM      4  C   UNL     1      46.518   6.324  11.631  0.00  0.00    +0.000 A 
ATOM      5  C   UNL     1      47.567   7.233  11.496  0.00  0.00    +0.000 A 
ATOM      6  C   UNL     1      48.453   7.455  12.556  0.00  0.00    +0.000 A 
ENDROOT
BRANCH   1   7
ATOM      7  C   UNL     1      49.176   7.058  14.950  0.00  0.00    +0.000 C 
BRANCH   7   8
ATOM      8  N   UNL     1      48.400   7.275  16.165  0.00  0.00    +0.000 NA
ATOM      9  H   UNL     1      47.425   7.432  15.914  0.00  0.00    +0.000 HD
ATOM     10  H   UNL     1      48.728   8.130  16.612  0.00  0.00    +0.000 HD
ENDBRANCH   7   8
ENDBRANCH   1   7
BRANCH   4  11
ATOM     11  O   UNL     1      45.685   6.213  10.550  0.00  0.00    +0.000 OA
BRANCH  11  12
ATOM     12  C   UNL     1      44.593   5.302  10.713  0.00  0.00    +0.000 C 
BRANCH  12  13
ATOM     13  C   UNL     1      44.600   4.300   9.548  0.00  0.00    +0.000 C 
ATOM     14  C   UNL     1      44.678   2.861  10.086  0.00  0.00    +0.000 C 
ATOM     15  C   UNL     1      44.818   1.832   8.970  0.00  0.00    +0.000 C 
ATOM     16  C   UNL     1      46.010   2.146   8.075  0.00  0.00    +0.000 C 
ATOM     17  C   UNL     1      45.909   3.554   7.498  0.00  0.00    +0.000 C 
ATOM     18  C   UNL     1      45.768   4.604   8.596  0.00  0.00    +0.000 C 
ENDBRANCH  12  13
ENDBRANCH  11  12
ENDBRANCH   4  11
TORSDOF 5
ENDMDL
MODEL 6
REMARK VINA RESULT:    -5.049      3.332      4.826
REMARK INTER + INTRA:          -6.951
REMARK INTER:                  -6.665
REMARK INTRA:                  -0.286
REMARK UNBOUND:                -0.574
REMARK  Name = 
REMARK  5 active torsions:
REMARK  status: ('A' for Active; 'I' for Inactive)
REMARK    1  A    between atoms: N_1  and  C_2
REMARK    2  A    between atoms: C_2  and  C_3
REMARK    3  A    between atoms: C_6  and  O_7
REMARK    4  A    between atoms: O_7  and  C_8
REMARK    5  A    between atoms: C_8  and  C_9
REMARK                            x       y       z     vdW  Elec       q    Type
REMARK                         _______ _______ _______ _____ _____    ______ ____
ROOT
ATOM      1  C   UNL     1      44.945   4.467  10.334  0.00  0.00    +0.000 A 
ATOM      2  C   UNL     1      44.809   3.444  11.285  0.00  0.00    +0.000 A 
ATOM      3  C   UNL     1      45.295   3.606  12.583  0.00  0.00    +0.000 A 
ATOM      4  C   UNL     1      45.946   4.783  12.941  0.00  0.00    +0.000 A 
ATOM      5  C   UNL     1      46.051   5.823  12.017  0.00  0.00    +0.000 A 
ATOM      6  C   UNL     1      45.554   5.668  10.718  0.00  0.00    +0.000 A 
ENDROOT
BRANCH   1   7
ATOM      7  C   UNL     1      44.492   4.244   8.914  0.00  0.00    +0.000 C 
BRANCH   7   8
ATOM      8  N   UNL     1      45.588   4.392   7.963  0.00  0.00    +0.000 NA
ATOM      9  H   UNL     1      45.506   3.674   7.246  0.00  0.00    +0.000 HD
ATOM     10  H   UNL     1      46.466   4.220   8.451  0.00  0.00    +0.000 HD
ENDBRANCH   7   8
ENDBRANCH   1   7
BRANCH   4  11
ATOM     11  O   UNL     1      46.501   5.023  14.169  0.00  0.00    +0.000 OA
BRANCH  11  12
ATOM     12  C   UNL     1      47.191   3.912  14.753  0.00  0.00    +0.000 C 
BRANCH  12  13
ATOM     13  C   UNL     1      47.409   4.190  16.249  0.00  0.00    +0.000 C 
ATOM     14  C   UNL     1      48.336   5.403  16.434  0.00  0.00    +0.000 C 
ATOM     15  C   UNL     1      48.688   5.644  17.897  0.00  0.00    +0.000 C 
ATOM     16  C   UNL     1      49.288   4.397  18.534  0.00  0.00    +0.000 C 
ATOM     17  C   UNL     1      48.348   3.204  18.399  0.00  0.00    +0.000 C 
ATOM     18  C   UNL     1      47.979   2.941  16.941  0.00  0.00    +0.000 C 
ENDBRANCH  12  13
ENDBRANCH  11  12
ENDBRANCH   4  11
TORSDOF 5
ENDMDL
MODEL 7
REMARK VINA RESULT:    -4.784      1.382      2.303
REMARK INTER + INTRA:          -6.616
REMARK INTER:                  -6.334
REMARK INTRA:                  -0.282
REMARK UNBOUND:                -0.574
REMARK  Name = 
REMARK  5 active torsions:
REMARK  status: ('A' for Active; 'I' for Inactive)
REMARK    1  A    between atoms: N_1  and  C_2
REMARK    2  A    between atoms: C_2  and  C_3
REMARK    3  A    between atoms: C_6  and  O_7
REMARK    4  A    between atoms: O_7  and  C_8
REMARK    5  A    between atoms: C_8  and  C_9
REMARK                            x       y       z     vdW  Elec       q    Type
REMARK                         _______ _______ _______ _____ _____    ______ ____
ROOT
ATOM      1  C   UNL     1      45.734   2.455   8.552  0.00  0.00    +0.000 A 
ATOM      2  C   UNL     1      45.984   3.805   8.263  0.00  0.00    +0.000 A 
ATOM      3  C   UNL     1      45.437   4.819   9.051  0.00  0.00    +0.000 A 
ATOM      4  C   UNL     1      44.610   4.497  10.124  0.00  0.00    +0.000 A 
ATOM      5  C   UNL     1      44.386   3.158  10.446  0.00  0.00    +0.000 A 
ATOM      6  C   UNL     1      44.944   2.140   9.666  0.00  0.00    +0.000 A 
ENDROOT
BRANCH   1   7
ATOM      7  C   UNL     1      46.261   1.377   7.642  0.00  0.00    +0.000 C 
BRANCH   7   8
ATOM      8  N   UNL     1      47.614   1.665   7.182  0.00  0.00    +0.000 NA
ATOM      9  H   UNL     1      47.575   2.010   6.225  0.00  0.00    +0.000 HD
ATOM     10  H   UNL     1      48.141   0.793   7.158  0.00  0.00    +0.000 HD
ENDBRANCH   7   8
ENDBRANCH   1   7
BRANCH   4  11
ATOM     11  O   UNL     1      43.985   5.413  10.927  0.00  0.00    +0.000 OA
BRANCH  11  12
ATOM     12  C   UNL     1      44.567   6.722  10.925  0.00  0.00    +0.000 C 
BRANCH  12  13
ATOM     13  C   UNL     1      45.319   6.936  12.248  0.00  0.00    +0.000 C 
ATOM     14  C   UNL     1      45.803   8.392  12.355  0.00  0.00    +0.000 C 
ATOM     15  C   UNL     1      46.666   8.626  13.589  0.00  0.00    +0.000 C 
ATOM     16  C   UNL     1      47.840   7.656  13.635  0.00  0.00    +0.000 C 
ATOM     17  C   UNL     1      47.360   6.210  13.583  0.00  0.00    +0.000 C 
ATOM     18  C   UNL     1      46.493   5.949  12.355  0.00  0.00    +0.000 C 
ENDBRANCH  12  13
ENDBRANCH  11  12
ENDBRANCH   4  11
TORSDOF 5
ENDMDL
MODEL 8
REMARK VINA RESULT:    -4.692      3.623      5.358
REMARK INTER + INTRA:          -6.500
REMARK INTER:                  -6.119
REMARK INTRA:                  -0.381
REMARK UNBOUND:                -0.574
REMARK  Name = 
REMARK  5 active torsions:
REMARK  status: ('A' for Active; 'I' for Inactive)
REMARK    1  A    between atoms: N_1  and  C_2
REMARK    2  A    between atoms: C_2  and  C_3
REMARK    3  A    between atoms: C_6  and  O_7
REMARK    4  A    between atoms: O_7  and  C_8
REMARK    5  A    between atoms: C_8  and  C_9
REMARK                            x       y       z     vdW  Elec       q    Type
REMARK                         _______ _______ _______ _____ _____    ______ ____
ROOT
ATOM      1  C   UNL     1      44.856   3.996  11.114  0.00  0.00    +0.000 A 
ATOM      2  C   UNL     1      45.203   3.824  12.462  0.00  0.00    +0.000 A 
ATOM      3  C   UNL     1      45.981   4.773  13.127  0.00  0.00    +0.000 A 
ATOM      4  C   UNL     1      46.445   5.894  12.445  0.00  0.00    +0.000 A 
ATOM      5  C   UNL     1      46.073   6.097  11.116  0.00  0.00    +0.000 A 
ATOM      6  C   UNL     1      45.282   5.154  10.451  0.00  0.00    +0.000 A 
ENDROOT
BRANCH   1   7
ATOM      7  C   UNL     1      44.088   2.921  10.388  0.00  0.00    +0.000 C 
BRANCH   7   8
ATOM      8  N   UNL     1      44.960   2.092   9.564  0.00  0.00    +0.000 NA
ATOM      9  H   UNL     1      44.445   1.784   8.741  0.00  0.00    +0.000 HD
ATOM     10  H   UNL     1      45.201   1.253  10.089  0.00  0.00    +0.000 HD
ENDBRANCH   7   8
ENDBRANCH   1   7
BRANCH   4  11
ATOM     11  O   UNL     1      47.253   6.857  12.989  0.00  0.00    +0.000 OA
BRANCH  11  12
ATOM     12  C   UNL     1      48.650   6.706  12.713  0.00  0.00    +0.000 C 
BRANCH  12  13
ATOM     13  C   UNL     1      49.099   7.838  11.776  0.00  0.00    +0.000 C 
ATOM     14  C   UNL     1      50.602   8.112  11.955  0.00  0.00    +0.000 C 
ATOM     15  C   UNL     1      51.073   9.312  11.142  0.00  0.00    +0.000 C 
ATOM     16  C   UNL     1      50.250  10.554  11.463  0.00  0.00    +0.000 C 
ATOM     17  C   UNL     1      48.764  10.302  11.235  0.00  0.00    +0.000 C 
ATOM     18  C   UNL     1      48.267   9.103  12.039  0.00  0.00    +0.000 C 
ENDBRANCH  12  13
ENDBRANCH  11  12
ENDBRANCH   4  11
TORSDOF 5
ENDMDL
MODEL 9
REMARK VINA RESULT:    -4.476      2.337      3.913
REMARK INTER + INTRA:          -6.227
REMARK INTER:                  -5.835
REMARK INTRA:                  -0.391
REMARK UNBOUND:                -0.574
REMARK  Name = 
REMARK  5 active torsions:
REMARK  status: ('A' for Active; 'I' for Inactive)
REMARK    1  A    between atoms: N_1  and  C_2
REMARK    2  A    between atoms: C_2  and  C_3
REMARK    3  A    between atoms: C_6  and  O_7
REMARK    4  A    between atoms: O_7  and  C_8
REMARK    5  A    between atoms: C_8  and  C_9
REMARK                            x       y       z     vdW  Elec       q    Type
REMARK                         _______ _______ _______ _____ _____    ______ ____
ROOT
ATOM      1  C   UNL     1      44.848   3.576   9.899  0.00  0.00    +0.000 A 
ATOM      2  C   UNL     1      45.459   4.809   9.626  0.00  0.00    +0.000 A 
ATOM      3  C   UNL     1      45.612   5.769  10.628  0.00  0.00    +0.000 A 
ATOM      4  C   UNL     1      45.132   5.519  11.911  0.00  0.00    +0.000 A 
ATOM      5  C   UNL     1      44.560   4.282  12.205  0.00  0.00    +0.000 A 
ATOM      6  C   UNL     1      44.416   3.313  11.206  0.00  0.00    +0.000 A 
ENDROOT
BRANCH   1   7
ATOM      7  C   UNL     1      44.613   2.587   8.788  0.00  0.00    +0.000 C 
BRANCH   7   8
ATOM      8  N   UNL     1      45.846   2.254   8.084  0.00  0.00    +0.000 NA
ATOM      9  H   UNL     1      45.882   2.778   7.211  0.00  0.00    +0.000 HD
ATOM     10  H   UNL     1      45.820   1.267   7.832  0.00  0.00    +0.000 HD
ENDBRANCH   7   8
ENDBRANCH   1   7
BRANCH   4  11
ATOM     11  O   UNL     1      45.188   6.410  12.949  0.00  0.00    +0.000 OA
BRANCH  11  12
ATOM     12  C   UNL     1      45.475   7.763  12.577  0.00  0.00    +0.000 C 
BRANCH  12  13
ATOM     13  C   UNL     1      46.885   8.127  13.067  0.00  0.00    +0.000 C 
ATOM     14  C   UNL     1      47.742   8.629  11.892  0.00  0.00    +0.000 C 
ATOM     15  C   UNL     1      49.189   8.883  12.298  0.00  0.00    +0.000 C 
ATOM     16  C   UNL     1      49.808   7.647  12.938  0.00  0.00    +0.000 C 
ATOM     17  C   UNL     1      48.990   7.178  14.135  0.00  0.00    +0.000 C 
ATOM     18  C   UNL     1      47.535   6.916  13.755  0.00  0.00    +0.000 C 
ENDBRANCH  12  13
ENDBRANCH  11  12
ENDBRANCH   4  11
TORSDOF 5
ENDMDL
