MODEL 1
REMARK VINA RESULT:    -7.315      0.000      0.000
REMARK INTER + INTRA:          -9.725
REMARK INTER:                  -9.240
REMARK INTRA:                  -0.486
REMARK UNBOUND:                -0.486
REMARK  Name = 
REMARK  5 active torsions:
REMARK  status: ('A' for Active; 'I' for Inactive)
REMARK    1  A    between atoms: N_1  and  C_2
REMARK    2  A    between atoms: C_2  and  C_3
REMARK    3  A    between atoms: C_3  and  C_4
REMARK    4  A    between atoms: C_7  and  C_8
REMARK    5  A    between atoms: C_8  and  N_9
REMARK                            x       y       z     vdW  Elec       q    Type
REMARK                         _______ _______ _______ _____ _____    ______ ____
ROOT
ATOM      1  C   UNL     1      46.129   2.248   7.779  0.00  0.00    +0.000 A 
ATOM      2  C   UNL     1      45.327   1.714   8.788  0.00  0.00    +0.000 A 
ATOM      3  C   UNL     1      44.549   2.559   9.579  0.00  0.00    +0.000 A 
ATOM      4  C   UNL     1      44.602   3.934   9.355  0.00  0.00    +0.000 A 
ATOM      5  N   UNL     1      45.359   4.473   8.367  0.00  0.00    +0.000 NA
ATOM      6  C   UNL     1      46.082   3.625   7.600  0.00  0.00    +0.000 A 
ENDROOT
BRANCH   1   7
ATOM      7  C   UNL     1      47.006   1.374   6.922  0.00  0.00    +0.000 C 
BRANCH   7   8
ATOM      8  C   UNL     1      48.286   2.091   6.470  0.00  0.00    +0.000 C 
BRANCH   8   9
ATOM      9  N   UNL     1      48.296   2.302   5.023  0.00  0.00    +0.000 NA
ATOM     10  H   UNL     1      48.075   3.278   4.825  0.00  0.00    +0.000 HD
ATOM     11  H   UNL     1      47.555   1.752   4.588  0.00  0.00    +0.000 HD
ENDBRANCH   8   9
ENDBRANCH   7   8
ENDBRANCH   1   7
BRANCH   4  12
ATOM     12  C   UNL     1      43.869   4.889  10.262  0.00  0.00    +0.000 C 
BRANCH  12  13
ATOM     13  N   UNL     1      44.476   4.999  11.583  0.00  0.00    +0.000 N 
ATOM     14  C   UNL     1      44.056   4.295  12.686  0.00  0.00    +0.000 A 
ATOM     15  C   UNL     1      44.962   4.513  13.700  0.00  0.00    +0.000 A 
ATOM     16  C   UNL     1      45.976   5.372  13.197  0.00  0.00    +0.000 A 
ATOM     17  C   UNL     1      47.156   5.909  13.749  0.00  0.00    +0.000 A 
ATOM     18  C   UNL     1      47.970   6.736  12.967  0.00  0.00    +0.000 A 
ATOM     19  C   UNL     1      47.617   7.038  11.656  0.00  0.00    +0.000 A 
ATOM     20  C   UNL     1      46.450   6.520  11.087  0.00  0.00    +0.000 A 
ATOM     21  C   UNL     1      45.646   5.678  11.874  0.00  0.00    +0.000 A 
ENDBRANCH  12  13
ENDBRANCH   4  12
TORSDOF 5
ENDMDL
MODEL 2
REMARK VINA RESULT:    -7.307      0.942      1.719
REMARK INTER + INTRA:          -9.715
REMARK INTER:                  -9.261
REMARK INTRA:                  -0.454
REMARK UNBOUND:                -0.486
REMARK  Name = 
REMARK  5 active torsions:
REMARK  status: ('A' for Active; 'I' for Inactive)
REMARK    1  A    between atoms: N_1  and  C_2
REMARK    2  A    between atoms: C_2  and  C_3
REMARK    3  A    between atoms: C_3  and  C_4
REMARK    4  A    between atoms: C_7  and  C_8
REMARK    5  A    between atoms: C_8  and  N_9
REMARK                            x       y       z     vdW  Elec       q    Type
REMARK                         _______ _______ _______ _____ _____    ______ ____
ROOT
ATOM      1  C   UNL     1      46.026   2.290   7.902  0.00  0.00    +0.000 A 
ATOM      2  C   UNL     1      45.201   1.748   8.888  0.00  0.00    +0.000 A 
ATOM      3  C   UNL     1      44.457   2.591   9.713  0.00  0.00    +0.000 A 
ATOM      4  C   UNL     1      44.565   3.971   9.544  0.00  0.00    +0.000 A 
ATOM      5  N   UNL     1      45.345   4.518   8.580  0.00  0.00    +0.000 NA
ATOM      6  C   UNL     1      46.034   3.675   7.779  0.00  0.00    +0.000 A 
ENDROOT
BRANCH   1   7
ATOM      7  C   UNL     1      46.869   1.417   7.010  0.00  0.00    +0.000 C 
BRANCH   7   8
ATOM      8  C   UNL     1      48.213   2.068   6.653  0.00  0.00    +0.000 C 
BRANCH   8   9
ATOM      9  N   UNL     1      48.391   2.165   5.206  0.00  0.00    +0.000 NA
ATOM     10  H   UNL     1      49.225   1.646   4.935  0.00  0.00    +0.000 HD
ATOM     11  H   UNL     1      48.566   3.135   4.944  0.00  0.00    +0.000 HD
ENDBRANCH   8   9
ENDBRANCH   7   8
ENDBRANCH   1   7
BRANCH   4  12
ATOM     12  C   UNL     1      43.869   4.917  10.490  0.00  0.00    +0.000 C 
BRANCH  12  13
ATOM     13  N   UNL     1      44.795   5.751  11.245  0.00  0.00    +0.000 N 
ATOM     14  C   UNL     1      44.837   7.123  11.166  0.00  0.00    +0.000 A 
ATOM     15  C   UNL     1      45.699   7.578  12.138  0.00  0.00    +0.000 A 
ATOM     16  C   UNL     1      46.196   6.448  12.842  0.00  0.00    +0.000 A 
ATOM     17  C   UNL     1      47.071   6.290  13.934  0.00  0.00    +0.000 A 
ATOM     18  C   UNL     1      47.357   5.006  14.411  0.00  0.00    +0.000 A 
ATOM     19  C   UNL     1      46.792   3.888  13.807  0.00  0.00    +0.000 A 
ATOM     20  C   UNL     1      45.924   4.017  12.719  0.00  0.00    +0.000 A 
ATOM     21  C   UNL     1      45.630   5.311  12.257  0.00  0.00    +0.000 A 
ENDBRANCH  12  13
ENDBRANCH   4  12
TORSDOF 5
ENDMDL
MODEL 3
REMARK VINA RESULT:    -6.139      2.438      6.265
REMARK INTER + INTRA:          -8.239
REMARK INTER:                  -7.924
REMARK INTRA:                  -0.315
REMARK UNBOUND:                -0.486
REMARK  Name = 
REMARK  5 active torsions:
REMARK  status: ('A' for Active; 'I' for Inactive)
REMARK    1  A    between atoms: N_1  and  C_2
REMARK    2  A    between atoms: C_2  and  C_3
REMARK    3  A    between atoms: C_3  and  C_4
REMARK    4  A    between atoms: C_7  and  C_8
REMARK    5  A    between atoms: C_8  and  N_9
REMARK                            x       y       z     vdW  Elec       q    Type
REMARK                         _______ _______ _______ _____ _____    ______ ____
ROOT
ATOM      1  C   UNL     1      47.399   7.714  13.556  0.00  0.00    +0.000 A 
ATOM      2  C   UNL     1      46.520   8.640  12.994  0.00  0.00    +0.000 A 
ATOM      3  C   UNL     1      45.368   8.199  12.343  0.00  0.00    +0.000 A 
ATOM      4  C   UNL     1      45.123   6.829  12.252  0.00  0.00    +0.000 A 
ATOM      5  N   UNL     1      45.954   5.913  12.808  0.00  0.00    +0.000 NA
ATOM      6  C   UNL     1      47.048   6.372  13.456  0.00  0.00    +0.000 A 
ENDROOT
BRANCH   1   7
ATOM      7  C   UNL     1      48.668   8.145  14.242  0.00  0.00    +0.000 C 
BRANCH   7   8
ATOM      8  C   UNL     1      49.259   7.039  15.129  0.00  0.00    +0.000 C 
BRANCH   8   9
ATOM      9  N   UNL     1      50.717   6.999  15.029  0.00  0.00    +0.000 NA
ATOM     10  H   UNL     1      51.070   7.946  14.889  0.00  0.00    +0.000 HD
ATOM     11  H   UNL     1      50.992   6.471  14.201  0.00  0.00    +0.000 HD
ENDBRANCH   8   9
ENDBRANCH   7   8
ENDBRANCH   1   7
BRANCH   4  12
ATOM     12  C   UNL     1      43.953   6.309  11.456  0.00  0.00    +0.000 C 
BRANCH  12  13
ATOM     13  N   UNL     1      44.019   4.872  11.220  0.00  0.00    +0.000 N 
ATOM     14  C   UNL     1      43.329   3.938  11.954  0.00  0.00    +0.000 A 
ATOM     15  C   UNL     1      43.489   2.714  11.343  0.00  0.00    +0.000 A 
ATOM     16  C   UNL     1      44.298   2.908  10.191  0.00  0.00    +0.000 A 
ATOM     17  C   UNL     1      44.768   2.049   9.177  0.00  0.00    +0.000 A 
ATOM     18  C   UNL     1      45.557   2.566   8.144  0.00  0.00    +0.000 A 
ATOM     19  C   UNL     1      45.889   3.917   8.119  0.00  0.00    +0.000 A 
ATOM     20  C   UNL     1      45.439   4.789   9.115  0.00  0.00    +0.000 A 
ATOM     21  C   UNL     1      44.633   4.264  10.139  0.00  0.00    +0.000 A 
ENDBRANCH  12  13
ENDBRANCH   4  12
TORSDOF 5
ENDMDL
MODEL 4
REMARK VINA RESULT:    -6.032      1.667      6.066
REMARK INTER + INTRA:          -8.104
REMARK INTER:                  -7.569
REMARK INTRA:                  -0.536
REMARK UNBOUND:                -0.486
REMARK  Name = 
REMARK  5 active torsions:
REMARK  status: ('A' for Active; 'I' for Inactive)
REMARK    1  A    between atoms: N_1  and  C_2
REMARK    2  A    between atoms: C_2  and  C_3
REMARK    3  A    between atoms: C_3  and  C_4
REMARK    4  A    between atoms: C_7  and  C_8
REMARK    5  A    between atoms: C_8  and  N_9
REMARK                            x       y       z     vdW  Elec       q    Type
REMARK                         _______ _______ _______ _____ _____    ______ ____
ROOT
ATOM      1  C   UNL     1      46.622   6.052  12.889  0.00  0.00    +0.000 A 
ATOM      2  C   UNL     1      46.595   6.683  11.645  0.00  0.00    +0.000 A 
ATOM      3  C   UNL     1      45.781   6.182  10.629  0.00  0.00    +0.000 A 
ATOM      4  C   UNL     1      45.016   5.042  10.874  0.00  0.00    +0.000 A 
ATOM      5  N   UNL     1      45.012   4.425  12.081  0.00  0.00    +0.000 NA
ATOM      6  C   UNL     1      45.791   4.950  13.054  0.00  0.00    +0.000 A 
ENDROOT
BRANCH   1   7
ATOM      7  C   UNL     1      47.508   6.542  14.004  0.00  0.00    +0.000 C 
BRANCH   7   8
ATOM      8  C   UNL     1      48.518   7.596  13.529  0.00  0.00    +0.000 C 
BRANCH   8   9
ATOM      9  N   UNL     1      49.870   7.046  13.457  0.00  0.00    +0.000 NA
ATOM     10  H   UNL     1      50.534   7.806  13.312  0.00  0.00    +0.000 HD
ATOM     11  H   UNL     1      49.953   6.439  12.641  0.00  0.00    +0.000 HD
ENDBRANCH   8   9
ENDBRANCH   7   8
ENDBRANCH   1   7
BRANCH   4  12
ATOM     12  C   UNL     1      44.215   4.403   9.768  0.00  0.00    +0.000 C 
BRANCH  12  13
ATOM     13  N   UNL     1      44.836   3.193   9.242  0.00  0.00    +0.000 N 
ATOM     14  C   UNL     1      44.415   1.919   9.539  0.00  0.00    +0.000 A 
ATOM     15  C   UNL     1      45.109   1.044   8.734  0.00  0.00    +0.000 A 
ATOM     16  C   UNL     1      45.977   1.809   7.910  0.00  0.00    +0.000 A 
ATOM     17  C   UNL     1      46.892   1.477   6.890  0.00  0.00    +0.000 A 
ATOM     18  C   UNL     1      47.606   2.493   6.246  0.00  0.00    +0.000 A 
ATOM     19  C   UNL     1      47.426   3.823   6.612  0.00  0.00    +0.000 A 
ATOM     20  C   UNL     1      46.528   4.178   7.623  0.00  0.00    +0.000 A 
ATOM     21  C   UNL     1      45.803   3.152   8.254  0.00  0.00    +0.000 A 
ENDBRANCH  12  13
ENDBRANCH   4  12
TORSDOF 5
ENDMDL
MODEL 5
REMARK VINA RESULT:    -5.503      1.949      6.535
REMARK INTER + INTRA:          -7.436
REMARK INTER:                  -6.977
REMARK INTRA:                  -0.459
REMARK UNBOUND:                -0.486
REMARK  Name = 
REMARK  5 active torsions:
REMARK  status: ('A' for Active; 'I' for Inactive)
REMARK    1  A    between atoms: N_1  and  C_2
REMARK    2  A    between atoms: C_2  and  C_3
REMARK    3  A    between atoms: C_3  and  C_4
REMARK    4  A    between atoms: C_7  and  C_8
REMARK    5  A    between atoms: C_8  and  N_9
REMARK                            x       y       z     vdW  Elec       q    Type
REMARK                         _______ _______ _______ _____ _____    ______ ____
ROOT
ATOM      1  C   UNL     1      46.325   4.669  13.613  0.00  0.00    +0.000 A 
ATOM      2  C   UNL     1      45.807   3.417  13.280  0.00  0.00    +0.000 A 
ATOM      3  C   UNL     1      45.248   3.208  12.020  0.00  0.00    +0.000 A 
ATOM      4  C   UNL     1      45.202   4.268  11.115  0.00  0.00    +0.000 A 
ATOM      5  N   UNL     1      45.716   5.487  11.410  0.00  0.00    +0.000 NA
ATOM      6  C   UNL     1      46.276   5.651  12.630  0.00  0.00    +0.000 A 
ENDROOT
BRANCH   1   7
ATOM      7  C   UNL     1      46.911   4.946  14.972  0.00  0.00    +0.000 C 
BRANCH   7   8
ATOM      8  C   UNL     1      47.448   3.676  15.648  0.00  0.00    +0.000 C 
BRANCH   8   9
ATOM      9  N   UNL     1      47.264   3.725  17.097  0.00  0.00    +0.000 NA
ATOM     10  H   UNL     1      46.429   4.271  17.310  0.00  0.00    +0.000 HD
ATOM     11  H   UNL     1      48.043   4.223  17.528  0.00  0.00    +0.000 HD
ENDBRANCH   8   9
ENDBRANCH   7   8
ENDBRANCH   1   7
BRANCH   4  12
ATOM     12  C   UNL     1      44.501   4.115   9.789  0.00  0.00    +0.000 C 
BRANCH  12  13
ATOM     13  N   UNL     1      45.422   3.897   8.680  0.00  0.00    +0.000 N 
ATOM     14  C   UNL     1      46.102   4.901   8.034  0.00  0.00    +0.000 A 
ATOM     15  C   UNL     1      47.004   4.318   7.172  0.00  0.00    +0.000 A 
ATOM     16  C   UNL     1      46.878   2.908   7.302  0.00  0.00    +0.000 A 
ATOM     17  C   UNL     1      47.541   1.815   6.711  0.00  0.00    +0.000 A 
ATOM     18  C   UNL     1      47.181   0.512   7.072  0.00  0.00    +0.000 A 
ATOM     19  C   UNL     1      46.167   0.291   7.999  0.00  0.00    +0.000 A 
ATOM     20  C   UNL     1      45.492   1.359   8.596  0.00  0.00    +0.000 A 
ATOM     21  C   UNL     1      45.871   2.664   8.241  0.00  0.00    +0.000 A 
ENDBRANCH  12  13
ENDBRANCH   4  12
TORSDOF 5
ENDMDL
MODEL 6
REMARK VINA RESULT:    -5.403      3.832      7.789
REMARK INTER + INTRA:          -7.310
REMARK INTER:                  -6.845
REMARK INTRA:                  -0.465
REMARK UNBOUND:                -0.486
REMARK  Name = 
REMARK  5 active torsions:
REMARK  status: ('A' for Active; 'I' for Inactive)
REMARK    1  A    between atoms: N_1  and  C_2
REMARK    2  A    between atoms: C_2  and  C_3
REMARK    3  A    between atoms: C_3  and  C_4
REMARK    4  A    between atoms: C_7  and  C_8
REMARK    5  A    between atoms: C_8  and  N_9
REMARK                            x       y       z     vdW  Elec       q    Type
REMARK                         _______ _______ _______ _____ _____    ______ ____
ROOT
ATOM      1  C   UNL     1      47.988   5.318  17.519  0.00  0.00    +0.000 A 
ATOM      2  C   UNL     1      47.213   4.368  16.852  0.00  0.00    +0.000 A 
ATOM      3  C   UNL     1      47.157   4.371  15.459  0.00  0.00    +0.000 A 
ATOM      4  C   UNL     1      47.870   5.339  14.754  0.00  0.00    +0.000 A 
ATOM      5  N   UNL     1      48.645   6.259  15.381  0.00  0.00    +0.000 NA
ATOM      6  C   UNL     1      48.700   6.215  16.731  0.00  0.00    +0.000 A 
ENDROOT
BRANCH   1   7
ATOM      7  C   UNL     1      48.053   5.370  19.023  0.00  0.00    +0.000 C 
BRANCH   7   8
ATOM      8  C   UNL     1      49.032   4.339  19.603  0.00  0.00    +0.000 C 
BRANCH   8   9
ATOM      9  N   UNL     1      48.331   3.152  20.088  0.00  0.00    +0.000 NA
ATOM     10  H   UNL     1      48.888   2.709  20.818  0.00  0.00    +0.000 HD
ATOM     11  H   UNL     1      48.254   2.465  19.338  0.00  0.00    +0.000 HD
ENDBRANCH   8   9
ENDBRANCH   7   8
ENDBRANCH   1   7
BRANCH   4  12
ATOM     12  C   UNL     1      47.743   5.448  13.256  0.00  0.00    +0.000 C 
BRANCH  12  13
ATOM     13  N   UNL     1      46.435   5.929  12.829  0.00  0.00    +0.000 N 
ATOM     14  C   UNL     1      46.132   7.253  12.617  0.00  0.00    +0.000 A 
ATOM     15  C   UNL     1      44.876   7.317  12.056  0.00  0.00    +0.000 A 
ATOM     16  C   UNL     1      44.398   5.987  11.911  0.00  0.00    +0.000 A 
ATOM     17  C   UNL     1      43.215   5.432  11.384  0.00  0.00    +0.000 A 
ATOM     18  C   UNL     1      43.048   4.042  11.376  0.00  0.00    +0.000 A 
ATOM     19  C   UNL     1      44.035   3.211  11.894  0.00  0.00    +0.000 A 
ATOM     20  C   UNL     1      45.216   3.737  12.426  0.00  0.00    +0.000 A 
ATOM     21  C   UNL     1      45.382   5.132  12.416  0.00  0.00    +0.000 A 
ENDBRANCH  12  13
ENDBRANCH   4  12
TORSDOF 5
ENDMDL
MODEL 7
REMARK VINA RESULT:    -5.237      2.593      4.801
REMARK INTER + INTRA:          -7.100
REMARK INTER:                  -6.783
REMARK INTRA:                  -0.317
REMARK UNBOUND:                -0.486
REMARK  Name = 
REMARK  5 active torsions:
REMARK  status: ('A' for Active; 'I' for Inactive)
REMARK    1  A    between atoms: N_1  and  C_2
REMARK    2  A    between atoms: C_2  and  C_3
REMARK    3  A    between atoms: C_3  and  C_4
REMARK    4  A    between atoms: C_7  and  C_8
REMARK    5  A    between atoms: C_8  and  N_9
REMARK                            x       y       z     vdW  Elec       q    Type
REMARK                         _______ _______ _______ _____ _____    ______ ____
ROOT
ATOM      1  C   UNL     1      44.898   4.124  11.184  0.00  0.00    +0.000 A 
ATOM      2  C   UNL     1      45.282   5.310  10.558  0.00  0.00    +0.000 A 
ATOM      3  C   UNL     1      46.041   6.250  11.255  0.00  0.00    +0.000 A 
ATOM      4  C   UNL     1      46.391   5.991  12.579  0.00  0.00    +0.000 A 
ATOM      5  N   UNL     1      46.046   4.836  13.200  0.00  0.00    +0.000 NA
ATOM      6  C   UNL     1      45.333   3.933  12.490  0.00  0.00    +0.000 A 
ENDROOT
BRANCH   1   7
ATOM      7  C   UNL     1      44.055   3.095  10.478  0.00  0.00    +0.000 C 
BRANCH   7   8
ATOM      8  C   UNL     1      44.595   2.752   9.082  0.00  0.00    +0.000 C 
BRANCH   8   9
ATOM      9  N   UNL     1      45.198   1.421   9.056  0.00  0.00    +0.000 NA
ATOM     10  H   UNL     1      46.034   1.421   9.640  0.00  0.00    +0.000 HD
ATOM     11  H   UNL     1      45.514   1.204   8.112  0.00  0.00    +0.000 HD
ENDBRANCH   8   9
ENDBRANCH   7   8
ENDBRANCH   1   7
BRANCH   4  12
ATOM     12  C   UNL     1      47.109   7.031  13.401  0.00  0.00    +0.000 C 
BRANCH  12  13
ATOM     13  N   UNL     1      47.454   8.223  12.637  0.00  0.00    +0.000 N 
ATOM     14  C   UNL     1      46.646   9.329  12.527  0.00  0.00    +0.000 A 
ATOM     15  C   UNL     1      47.362  10.316  11.888  0.00  0.00    +0.000 A 
ATOM     16  C   UNL     1      48.655   9.799  11.604  0.00  0.00    +0.000 A 
ATOM     17  C   UNL     1      49.807  10.341  11.001  0.00  0.00    +0.000 A 
ATOM     18  C   UNL     1      50.957   9.554  10.877  0.00  0.00    +0.000 A 
ATOM     19  C   UNL     1      50.965   8.240  11.333  0.00  0.00    +0.000 A 
ATOM     20  C   UNL     1      49.833   7.678  11.931  0.00  0.00    +0.000 A 
ATOM     21  C   UNL     1      48.688   8.481  12.066  0.00  0.00    +0.000 A 
ENDBRANCH  12  13
ENDBRANCH   4  12
TORSDOF 5
ENDMDL
MODEL 8
REMARK VINA RESULT:    -5.108      3.806      6.323
REMARK INTER + INTRA:          -6.937
REMARK INTER:                  -6.498
REMARK INTRA:                  -0.439
REMARK UNBOUND:                -0.486
REMARK  Name = 
REMARK  5 active torsions:
REMARK  status: ('A' for Active; 'I' for Inactive)
REMARK    1  A    between atoms: N_1  and  C_2
REMARK    2  A    between atoms: C_2  and  C_3
REMARK    3  A    between atoms: C_3  and  C_4
REMARK    4  A    between atoms: C_7  and  C_8
REMARK    5  A    between atoms: C_8  and  N_9
REMARK                            x       y       z     vdW  Elec       q    Type
REMARK                         _______ _______ _______ _____ _____    ______ ____
ROOT
ATOM      1  C   UNL     1      45.046   4.967  13.057  0.00  0.00    +0.000 A 
ATOM      2  C   UNL     1      45.127   6.336  12.799  0.00  0.00    +0.000 A 
ATOM      3  C   UNL     1      46.337   7.006  12.973  0.00  0.00    +0.000 A 
ATOM      4  C   UNL     1      47.449   6.293  13.419  0.00  0.00    +0.000 A 
ATOM      5  N   UNL     1      47.398   4.959  13.656  0.00  0.00    +0.000 NA
ATOM      6  C   UNL     1      46.217   4.332  13.453  0.00  0.00    +0.000 A 
ENDROOT
BRANCH   1   7
ATOM      7  C   UNL     1      43.752   4.211  12.910  0.00  0.00    +0.000 C 
BRANCH   7   8
ATOM      8  C   UNL     1      43.643   3.493  11.557  0.00  0.00    +0.000 C 
BRANCH   8   9
ATOM      9  N   UNL     1      43.015   2.181  11.698  0.00  0.00    +0.000 NA
ATOM     10  H   UNL     1      43.041   1.902  12.679  0.00  0.00    +0.000 HD
ATOM     11  H   UNL     1      43.559   1.482  11.193  0.00  0.00    +0.000 HD
ENDBRANCH   8   9
ENDBRANCH   7   8
ENDBRANCH   1   7
BRANCH   4  12
ATOM     12  C   UNL     1      48.742   7.002  13.730  0.00  0.00    +0.000 C 
BRANCH  12  13
ATOM     13  N   UNL     1      48.703   7.728  14.994  0.00  0.00    +0.000 N 
ATOM     14  C   UNL     1      48.338   9.048  15.113  0.00  0.00    +0.000 A 
ATOM     15  C   UNL     1      48.244   9.343  16.455  0.00  0.00    +0.000 A 
ATOM     16  C   UNL     1      48.554   8.162  17.181  0.00  0.00    +0.000 A 
ATOM     17  C   UNL     1      48.596   7.848  18.554  0.00  0.00    +0.000 A 
ATOM     18  C   UNL     1      48.936   6.552  18.957  0.00  0.00    +0.000 A 
ATOM     19  C   UNL     1      49.243   5.578  18.012  0.00  0.00    +0.000 A 
ATOM     20  C   UNL     1      49.212   5.865  16.644  0.00  0.00    +0.000 A 
ATOM     21  C   UNL     1      48.854   7.165  16.248  0.00  0.00    +0.000 A 
ENDBRANCH  12  13
ENDBRANCH   4  12
TORSDOF 5
ENDMDL
MODEL 9
REMARK VINA RESULT:    -4.963      2.244      4.421
REMARK INTER + INTRA:          -6.755
REMARK INTER:                  -6.279
REMARK INTRA:                  -0.476
REMARK UNBOUND:                -0.486
REMARK  Name = 
REMARK  5 active torsions:
REMARK  status: ('A' for Active; 'I' for Inactive)
REMARK    1  A    between atoms: N_1  and  C_2
REMARK    2  A    between atoms: C_2  and  C_3
REMARK    3  A    between atoms: C_3  and  C_4
REMARK    4  A    between atoms: C_7  and  C_8
REMARK    5  A    between atoms: C_8  and  N_9
REMARK                            x       y       z     vdW  Elec       q    Type
REMARK                         _______ _______ _______ _____ _____    ______ ____
ROOT
ATOM      1  C   UNL     1      44.655   3.847  11.072  0.00  0.00    +0.000 A 
ATOM      2  C   UNL     1      45.453   3.648  12.199  0.00  0.00    +0.000 A 
ATOM      3  C   UNL     1      45.936   4.746  12.911  0.00  0.00    +0.000 A 
ATOM      4  C   UNL     1      45.622   6.031  12.470  0.00  0.00    +0.000 A 
ATOM      5  N   UNL     1      44.832   6.246  11.390  0.00  0.00    +0.000 NA
ATOM      6  C   UNL     1      44.357   5.162  10.736  0.00  0.00    +0.000 A 
ENDROOT
BRANCH   1   7
ATOM      7  C   UNL     1      44.136   2.691  10.258  0.00  0.00    +0.000 C 
BRANCH   7   8
ATOM      8  C   UNL     1      44.846   2.564   8.903  0.00  0.00    +0.000 C 
BRANCH   8   9
ATOM      9  N   UNL     1      45.590   1.309   8.806  0.00  0.00    +0.000 NA
ATOM     10  H   UNL     1      46.485   1.484   8.350  0.00  0.00    +0.000 HD
ATOM     11  H   UNL     1      45.090   0.656   8.203  0.00  0.00    +0.000 HD
ENDBRANCH   8   9
ENDBRANCH   7   8
ENDBRANCH   1   7
BRANCH   4  12
ATOM     12  C   UNL     1      46.220   7.241  13.142  0.00  0.00    +0.000 C 
BRANCH  12  13
ATOM     13  N   UNL     1      47.639   7.410  12.850  0.00  0.00    +0.000 N 
ATOM     14  C   UNL     1      48.135   7.777  11.622  0.00  0.00    +0.000 A 
ATOM     15  C   UNL     1      49.484   8.012  11.762  0.00  0.00    +0.000 A 
ATOM     16  C   UNL     1      49.824   7.791  13.124  0.00  0.00    +0.000 A 
ATOM     17  C   UNL     1      51.023   7.900  13.856  0.00  0.00    +0.000 A 
ATOM     18  C   UNL     1      51.023   7.615  15.226  0.00  0.00    +0.000 A 
ATOM     19  C   UNL     1      49.853   7.215  15.864  0.00  0.00    +0.000 A 
ATOM     20  C   UNL     1      48.652   7.096  15.158  0.00  0.00    +0.000 A 
ATOM     21  C   UNL     1      48.657   7.399  13.787  0.00  0.00    +0.000 A 
ENDBRANCH  12  13
ENDBRANCH   4  12
TORSDOF 5
ENDMDL
