MODEL 1
REMARK VINA RESULT:    -8.571      0.000      0.000
REMARK INTER + INTRA:         -11.311
REMARK INTER:                 -11.077
REMARK INTRA:                  -0.234
REMARK UNBOUND:                -0.234
REMARK  Name = 
REMARK  5 active torsions:
REMARK  status: ('A' for Active; 'I' for Inactive)
REMARK    1  A    between atoms: C_2  and  C_3
REMARK    2  A    between atoms: C_6  and  C_7
REMARK    3  A    between atoms: C_11  and  C_12
REMARK    4  A    between atoms: C_12  and  N_13
REMARK    5  A    between atoms: C_17  and  C_18
REMARK                            x       y       z     vdW  Elec       q    Type
REMARK                         _______ _______ _______ _____ _____    ______ ____
ROOT
ATOM      1  C   UNL     1      43.972   4.717  11.488  0.00  0.00    +0.000 C 
ATOM      2  C   UNL     1      43.241   5.957  10.994  0.00  0.00    +0.000 C 
ATOM      3  C   UNL     1      42.649   5.150  12.102  0.00  0.00    +0.000 C 
ENDROOT
BRANCH   1   4
ATOM      4  N   UNL     1      43.994   3.518  10.638  0.00  0.00    +0.000 N 
ATOM      5  C   UNL     1      44.893   3.318   9.587  0.00  0.00    +0.000 A 
ATOM      6  C   UNL     1      45.514   4.356   8.894  0.00  0.00    +0.000 A 
ATOM      7  C   UNL     1      46.354   4.070   7.813  0.00  0.00    +0.000 A 
ATOM      8  C   UNL     1      46.566   2.744   7.451  0.00  0.00    +0.000 A 
ATOM      9  C   UNL     1      45.920   1.769   8.196  0.00  0.00    +0.000 A 
ATOM     10  N   UNL     1      45.099   2.030   9.248  0.00  0.00    +0.000 NA
ATOM     11  H   UNL     1      43.749   2.612  11.023  0.00  0.00    +0.000 HD
BRANCH   8  12
ATOM     12  C   UNL     1      47.393   2.332   6.299  0.00  0.00    +0.000 C 
ATOM     13  N   UNL     1      47.278   3.050   5.140  0.00  0.00    +0.000 N 
ATOM     14  O   UNL     1      48.172   1.391   6.379  0.00  0.00    +0.000 OA
ATOM     15  H   UNL     1      46.803   3.938   5.076  0.00  0.00    +0.000 HD
ATOM     16  H   UNL     1      47.899   2.792   4.383  0.00  0.00    +0.000 HD
ENDBRANCH   8  12
ENDBRANCH   1   4
BRANCH   1  21
ATOM     17  C   UNL     1      47.137   6.251  12.635  0.00  0.00    +0.000 A 
ATOM     18  N   UNL     1      47.598   5.472  13.625  0.00  0.00    +0.000 NA
ATOM     19  C   UNL     1      46.834   4.411  13.943  0.00  0.00    +0.000 A 
ATOM     20  C   UNL     1      45.649   4.110  13.312  0.00  0.00    +0.000 A 
ATOM     21  C   UNL     1      45.252   4.956  12.292  0.00  0.00    +0.000 A 
ATOM     22  N   UNL     1      46.002   6.027  11.959  0.00  0.00    +0.000 NA
BRANCH  17  26
ATOM     23  C   UNL     1      49.497   9.569  11.492  0.00  0.00    +0.000 A 
ATOM     24  C   UNL     1      48.159   9.796  11.779  0.00  0.00    +0.000 A 
ATOM     25  C   UNL     1      47.364   8.711  12.147  0.00  0.00    +0.000 A 
ATOM     26  C   UNL     1      47.913   7.425  12.233  0.00  0.00    +0.000 A 
ATOM     27  C   UNL     1      49.272   7.317  11.919  0.00  0.00    +0.000 A 
ATOM     28  N   UNL     1      50.074   8.347  11.550  0.00  0.00    +0.000 NA
BRANCH  23  30
ATOM     29  N   UNL     1      51.068  11.510  10.778  0.00  0.00    +0.000 NA
ATOM     30  C   UNL     1      50.360  10.650  11.116  0.00  0.00    +0.000 C 
ENDBRANCH  23  30
ENDBRANCH  17  26
ENDBRANCH   1  21
TORSDOF 5
ENDMDL
MODEL 2
REMARK VINA RESULT:    -8.332      2.185      4.096
REMARK INTER + INTRA:         -11.001
REMARK INTER:                 -11.299
REMARK INTRA:                   0.298
REMARK UNBOUND:                -0.234
REMARK  Name = 
REMARK  5 active torsions:
REMARK  status: ('A' for Active; 'I' for Inactive)
REMARK    1  A    between atoms: C_2  and  C_3
REMARK    2  A    between atoms: C_6  and  C_7
REMARK    3  A    between atoms: C_11  and  C_12
REMARK    4  A    between atoms: C_12  and  N_13
REMARK    5  A    between atoms: C_17  and  C_18
REMARK                            x       y       z     vdW  Elec       q    Type
REMARK                         _______ _______ _______ _____ _____    ______ ____
ROOT
ATOM      1  C   UNL     1      43.922   4.685  11.647  0.00  0.00    +0.000 C 
ATOM      2  C   UNL     1      42.738   5.593  11.350  0.00  0.00    +0.000 C 
ATOM      3  C   UNL     1      42.773   4.829  12.633  0.00  0.00    +0.000 C 
ENDROOT
BRANCH   1   4
ATOM      4  N   UNL     1      44.058   3.426  10.902  0.00  0.00    +0.000 N 
ATOM      5  C   UNL     1      44.877   3.262   9.781  0.00  0.00    +0.000 A 
ATOM      6  C   UNL     1      45.256   4.308   8.942  0.00  0.00    +0.000 A 
ATOM      7  C   UNL     1      46.028   4.048   7.806  0.00  0.00    +0.000 A 
ATOM      8  C   UNL     1      46.416   2.740   7.534  0.00  0.00    +0.000 A 
ATOM      9  C   UNL     1      46.005   1.756   8.421  0.00  0.00    +0.000 A 
ATOM     10  N   UNL     1      45.254   1.992   9.530  0.00  0.00    +0.000 NA
ATOM     11  H   UNL     1      43.997   2.535  11.384  0.00  0.00    +0.000 HD
BRANCH   8  12
ATOM     12  C   UNL     1      47.188   2.346   6.338  0.00  0.00    +0.000 C 
ATOM     13  N   UNL     1      47.119   3.155   5.237  0.00  0.00    +0.000 N 
ATOM     14  O   UNL     1      47.884   1.339   6.334  0.00  0.00    +0.000 OA
ATOM     15  H   UNL     1      46.720   4.083   5.247  0.00  0.00    +0.000 HD
ATOM     16  H   UNL     1      47.705   2.903   4.451  0.00  0.00    +0.000 HD
ENDBRANCH   8  12
ENDBRANCH   1   4
BRANCH   1  21
ATOM     17  C   UNL     1      46.953   5.717  13.502  0.00  0.00    +0.000 A 
ATOM     18  N   UNL     1      47.596   6.594  12.716  0.00  0.00    +0.000 NA
ATOM     19  C   UNL     1      47.025   6.846  11.525  0.00  0.00    +0.000 A 
ATOM     20  C   UNL     1      45.853   6.261  11.104  0.00  0.00    +0.000 A 
ATOM     21  C   UNL     1      45.246   5.379  11.979  0.00  0.00    +0.000 A 
ATOM     22  N   UNL     1      45.803   5.110  13.178  0.00  0.00    +0.000 NA
BRANCH  17  26
ATOM     23  C   UNL     1      48.674   4.872  17.271  0.00  0.00    +0.000 A 
ATOM     24  C   UNL     1      47.738   3.978  16.773  0.00  0.00    +0.000 A 
ATOM     25  C   UNL     1      47.153   4.246  15.536  0.00  0.00    +0.000 A 
ATOM     26  C   UNL     1      47.514   5.391  14.814  0.00  0.00    +0.000 A 
ATOM     27  C   UNL     1      48.466   6.220  15.416  0.00  0.00    +0.000 A 
ATOM     28  N   UNL     1      49.050   5.996  16.620  0.00  0.00    +0.000 NA
BRANCH  23  30
ATOM     29  N   UNL     1      49.863   4.446  19.541  0.00  0.00    +0.000 NA
ATOM     30  C   UNL     1      49.311   4.639  18.534  0.00  0.00    +0.000 C 
ENDBRANCH  23  30
ENDBRANCH  17  26
ENDBRANCH   1  21
TORSDOF 5
ENDMDL
MODEL 3
REMARK VINA RESULT:    -6.862      4.917      8.747
REMARK INTER + INTRA:          -9.102
REMARK INTER:                  -8.955
REMARK INTRA:                  -0.146
REMARK UNBOUND:                -0.234
REMARK  Name = 
REMARK  5 active torsions:
REMARK  status: ('A' for Active; 'I' for Inactive)
REMARK    1  A    between atoms: C_2  and  C_3
REMARK    2  A    between atoms: C_6  and  C_7
REMARK    3  A    between atoms: C_11  and  C_12
REMARK    4  A    between atoms: C_12  and  N_13
REMARK    5  A    between atoms: C_17  and  C_18
REMARK                            x       y       z     vdW  Elec       q    Type
REMARK                         _______ _______ _______ _____ _____    ______ ____
ROOT
ATOM      1  C   UNL     1      49.379   6.945  17.293  0.00  0.00    +0.000 C 
ATOM      2  C   UNL     1      48.072   6.710  18.037  0.00  0.00    +0.000 C 
ATOM      3  C   UNL     1      48.694   8.068  18.057  0.00  0.00    +0.000 C 
ENDROOT
BRANCH   1   4
ATOM      4  N   UNL     1      50.620   6.377  17.837  0.00  0.00    +0.000 N 
ATOM      5  C   UNL     1      50.982   5.032  17.726  0.00  0.00    +0.000 A 
ATOM      6  C   UNL     1      50.065   3.996  17.561  0.00  0.00    +0.000 A 
ATOM      7  C   UNL     1      50.507   2.670  17.520  0.00  0.00    +0.000 A 
ATOM      8  C   UNL     1      51.867   2.405  17.635  0.00  0.00    +0.000 A 
ATOM      9  C   UNL     1      52.717   3.491  17.788  0.00  0.00    +0.000 A 
ATOM     10  N   UNL     1      52.303   4.785  17.830  0.00  0.00    +0.000 NA
ATOM     11  H   UNL     1      51.467   6.933  17.868  0.00  0.00    +0.000 HD
BRANCH   8  12
ATOM     12  C   UNL     1      52.438   1.043  17.654  0.00  0.00    +0.000 C 
ATOM     13  N   UNL     1      51.674   0.037  18.178  0.00  0.00    +0.000 N 
ATOM     14  O   UNL     1      53.551   0.814  17.199  0.00  0.00    +0.000 OA
ATOM     15  H   UNL     1      50.691   0.131  18.390  0.00  0.00    +0.000 HD
ATOM     16  H   UNL     1      52.057  -0.899  18.124  0.00  0.00    +0.000 HD
ENDBRANCH   8  12
ENDBRANCH   1   4
BRANCH   1  21
ATOM     17  C   UNL     1      48.198   6.263  13.853  0.00  0.00    +0.000 A 
ATOM     18  N   UNL     1      49.066   6.870  13.028  0.00  0.00    +0.000 NA
ATOM     19  C   UNL     1      50.068   7.543  13.621  0.00  0.00    +0.000 A 
ATOM     20  C   UNL     1      50.228   7.625  14.985  0.00  0.00    +0.000 A 
ATOM     21  C   UNL     1      49.298   6.960  15.764  0.00  0.00    +0.000 A 
ATOM     22  N   UNL     1      48.283   6.281  15.190  0.00  0.00    +0.000 NA
BRANCH  17  26
ATOM     23  C   UNL     1      45.005   3.980  12.281  0.00  0.00    +0.000 A 
ATOM     24  C   UNL     1      45.319   5.173  11.648  0.00  0.00    +0.000 A 
ATOM     25  C   UNL     1      46.363   5.944  12.159  0.00  0.00    +0.000 A 
ATOM     26  C   UNL     1      47.079   5.511  13.282  0.00  0.00    +0.000 A 
ATOM     27  C   UNL     1      46.672   4.294  13.838  0.00  0.00    +0.000 A 
ATOM     28  N   UNL     1      45.658   3.522  13.373  0.00  0.00    +0.000 NA
BRANCH  23  30
ATOM     29  N   UNL     1      43.078   2.461  11.430  0.00  0.00    +0.000 NA
ATOM     30  C   UNL     1      43.947   3.146  11.791  0.00  0.00    +0.000 C 
ENDBRANCH  23  30
ENDBRANCH  17  26
ENDBRANCH   1  21
TORSDOF 5
ENDMDL
MODEL 4
REMARK VINA RESULT:    -6.836      2.948      7.159
REMARK INTER + INTRA:          -9.068
REMARK INTER:                  -8.648
REMARK INTRA:                  -0.420
REMARK UNBOUND:                -0.234
REMARK  Name = 
REMARK  5 active torsions:
REMARK  status: ('A' for Active; 'I' for Inactive)
REMARK    1  A    between atoms: C_2  and  C_3
REMARK    2  A    between atoms: C_6  and  C_7
REMARK    3  A    between atoms: C_11  and  C_12
REMARK    4  A    between atoms: C_12  and  N_13
REMARK    5  A    between atoms: C_17  and  C_18
REMARK                            x       y       z     vdW  Elec       q    Type
REMARK                         _______ _______ _______ _____ _____    ______ ____
ROOT
ATOM      1  C   UNL     1      44.900   7.976  12.053  0.00  0.00    +0.000 C 
ATOM      2  C   UNL     1      44.011   9.184  11.796  0.00  0.00    +0.000 C 
ATOM      3  C   UNL     1      45.220   8.970  10.947  0.00  0.00    +0.000 C 
ENDROOT
BRANCH   1   4
ATOM      4  N   UNL     1      45.749   7.959  13.252  0.00  0.00    +0.000 N 
ATOM      5  C   UNL     1      47.145   8.013  13.227  0.00  0.00    +0.000 A 
ATOM      6  C   UNL     1      47.915   7.595  12.143  0.00  0.00    +0.000 A 
ATOM      7  C   UNL     1      49.310   7.626  12.222  0.00  0.00    +0.000 A 
ATOM      8  C   UNL     1      49.913   8.087  13.388  0.00  0.00    +0.000 A 
ATOM      9  C   UNL     1      49.079   8.493  14.419  0.00  0.00    +0.000 A 
ATOM     10  N   UNL     1      47.721   8.469  14.358  0.00  0.00    +0.000 NA
ATOM     11  H   UNL     1      45.430   8.392  14.113  0.00  0.00    +0.000 HD
BRANCH   8  12
ATOM     12  C   UNL     1      51.375   8.116  13.599  0.00  0.00    +0.000 C 
ATOM     13  N   UNL     1      52.180   8.104  12.493  0.00  0.00    +0.000 N 
ATOM     14  O   UNL     1      51.854   8.170  14.724  0.00  0.00    +0.000 OA
ATOM     15  H   UNL     1      51.843   8.251  11.553  0.00  0.00    +0.000 HD
ATOM     16  H   UNL     1      53.175   8.189  12.656  0.00  0.00    +0.000 HD
ENDBRANCH   8  12
ENDBRANCH   1   4
BRANCH   1  21
ATOM     17  C   UNL     1      44.519   4.717  10.343  0.00  0.00    +0.000 A 
ATOM     18  N   UNL     1      43.387   4.173  10.814  0.00  0.00    +0.000 NA
ATOM     19  C   UNL     1      42.730   4.893  11.741  0.00  0.00    +0.000 A 
ATOM     20  C   UNL     1      43.160   6.117  12.201  0.00  0.00    +0.000 A 
ATOM     21  C   UNL     1      44.329   6.613  11.654  0.00  0.00    +0.000 A 
ATOM     22  N   UNL     1      45.005   5.906  10.724  0.00  0.00    +0.000 NA
BRANCH  17  26
ATOM     23  C   UNL     1      46.766   2.745   7.352  0.00  0.00    +0.000 A 
ATOM     24  C   UNL     1      46.040   1.962   8.237  0.00  0.00    +0.000 A 
ATOM     25  C   UNL     1      45.302   2.596   9.236  0.00  0.00    +0.000 A 
ATOM     26  C   UNL     1      45.291   3.993   9.332  0.00  0.00    +0.000 A 
ATOM     27  C   UNL     1      46.061   4.678   8.387  0.00  0.00    +0.000 A 
ATOM     28  N   UNL     1      46.798   4.096   7.407  0.00  0.00    +0.000 NA
BRANCH  23  30
ATOM     29  N   UNL     1      48.179   1.637   5.476  0.00  0.00    +0.000 NA
ATOM     30  C   UNL     1      47.535   2.145   6.302  0.00  0.00    +0.000 C 
ENDBRANCH  23  30
ENDBRANCH  17  26
ENDBRANCH   1  21
TORSDOF 5
ENDMDL
MODEL 5
REMARK VINA RESULT:    -6.393      3.553      6.057
REMARK INTER + INTRA:          -8.496
REMARK INTER:                  -7.957
REMARK INTRA:                  -0.539
REMARK UNBOUND:                -0.234
REMARK  Name = 
REMARK  5 active torsions:
REMARK  status: ('A' for Active; 'I' for Inactive)
REMARK    1  A    between atoms: C_2  and  C_3
REMARK    2  A    between atoms: C_6  and  C_7
REMARK    3  A    between atoms: C_11  and  C_12
REMARK    4  A    between atoms: C_12  and  N_13
REMARK    5  A    between atoms: C_17  and  C_18
REMARK                            x       y       z     vdW  Elec       q    Type
REMARK                         _______ _______ _______ _____ _____    ______ ____
ROOT
ATOM      1  C   UNL     1      47.102   8.280  12.296  0.00  0.00    +0.000 C 
ATOM      2  C   UNL     1      46.646   9.725  12.155  0.00  0.00    +0.000 C 
ATOM      3  C   UNL     1      45.860   8.788  13.012  0.00  0.00    +0.000 C 
ENDROOT
BRANCH   1   4
ATOM      4  N   UNL     1      46.935   7.366  11.158  0.00  0.00    +0.000 N 
ATOM      5  C   UNL     1      46.148   6.211  11.188  0.00  0.00    +0.000 A 
ATOM      6  C   UNL     1      45.843   5.514  12.355  0.00  0.00    +0.000 A 
ATOM      7  C   UNL     1      45.098   4.332  12.290  0.00  0.00    +0.000 A 
ATOM      8  C   UNL     1      44.662   3.873  11.052  0.00  0.00    +0.000 A 
ATOM      9  C   UNL     1      44.999   4.628   9.938  0.00  0.00    +0.000 A 
ATOM     10  N   UNL     1      45.722   5.778   9.984  0.00  0.00    +0.000 NA
ATOM     11  H   UNL     1      46.940   7.722  10.209  0.00  0.00    +0.000 HD
BRANCH   8  12
ATOM     12  C   UNL     1      43.913   2.614  10.862  0.00  0.00    +0.000 C 
ATOM     13  N   UNL     1      44.301   1.787   9.844  0.00  0.00    +0.000 N 
ATOM     14  O   UNL     1      42.987   2.308  11.601  0.00  0.00    +0.000 OA
ATOM     15  H   UNL     1      45.164   1.895   9.332  0.00  0.00    +0.000 HD
ATOM     16  H   UNL     1      43.818   0.901   9.770  0.00  0.00    +0.000 HD
ENDBRANCH   8  12
ENDBRANCH   1   4
BRANCH   1  21
ATOM     17  C   UNL     1      49.307   7.208  15.067  0.00  0.00    +0.000 A 
ATOM     18  N   UNL     1      50.548   7.599  14.735  0.00  0.00    +0.000 NA
ATOM     19  C   UNL     1      50.671   8.222  13.550  0.00  0.00    +0.000 A 
ATOM     20  C   UNL     1      49.614   8.465  12.704  0.00  0.00    +0.000 A 
ATOM     21  C   UNL     1      48.366   8.043  13.127  0.00  0.00    +0.000 A 
ATOM     22  N   UNL     1      48.220   7.414  14.312  0.00  0.00    +0.000 NA
BRANCH  17  26
ATOM     23  C   UNL     1      48.795   5.302  18.807  0.00  0.00    +0.000 A 
ATOM     24  C   UNL     1      48.168   4.741  17.704  0.00  0.00    +0.000 A 
ATOM     25  C   UNL     1      48.318   5.363  16.465  0.00  0.00    +0.000 A 
ATOM     26  C   UNL     1      49.094   6.522  16.342  0.00  0.00    +0.000 A 
ATOM     27  C   UNL     1      49.676   6.998  17.522  0.00  0.00    +0.000 A 
ATOM     28  N   UNL     1      49.546   6.425  18.745  0.00  0.00    +0.000 NA
BRANCH  23  30
ATOM     29  N   UNL     1      48.601   4.175  21.139  0.00  0.00    +0.000 NA
ATOM     30  C   UNL     1      48.680   4.698  20.102  0.00  0.00    +0.000 C 
ENDBRANCH  23  30
ENDBRANCH  17  26
ENDBRANCH   1  21
TORSDOF 5
ENDMDL
MODEL 6
REMARK VINA RESULT:    -6.232      4.088      7.182
REMARK INTER + INTRA:          -8.288
REMARK INTER:                  -8.098
REMARK INTRA:                  -0.189
REMARK UNBOUND:                -0.234
REMARK  Name = 
REMARK  5 active torsions:
REMARK  status: ('A' for Active; 'I' for Inactive)
REMARK    1  A    between atoms: C_2  and  C_3
REMARK    2  A    between atoms: C_6  and  C_7
REMARK    3  A    between atoms: C_11  and  C_12
REMARK    4  A    between atoms: C_12  and  N_13
REMARK    5  A    between atoms: C_17  and  C_18
REMARK                            x       y       z     vdW  Elec       q    Type
REMARK                         _______ _______ _______ _____ _____    ______ ____
ROOT
ATOM      1  C   UNL     1      48.413   9.278  14.180  0.00  0.00    +0.000 C 
ATOM      2  C   UNL     1      49.749   9.270  13.451  0.00  0.00    +0.000 C 
ATOM      3  C   UNL     1      49.177  10.567  13.919  0.00  0.00    +0.000 C 
ENDROOT
BRANCH   1   4
ATOM      4  N   UNL     1      47.184   9.020  13.417  0.00  0.00    +0.000 N 
ATOM      5  C   UNL     1      46.652   7.748  13.192  0.00  0.00    +0.000 A 
ATOM      6  C   UNL     1      47.413   6.580  13.200  0.00  0.00    +0.000 A 
ATOM      7  C   UNL     1      46.812   5.352  12.905  0.00  0.00    +0.000 A 
ATOM      8  C   UNL     1      45.452   5.315  12.615  0.00  0.00    +0.000 A 
ATOM      9  C   UNL     1      44.763   6.518  12.636  0.00  0.00    +0.000 A 
ATOM     10  N   UNL     1      45.332   7.720  12.920  0.00  0.00    +0.000 NA
ATOM     11  H   UNL     1      46.419   9.686  13.437  0.00  0.00    +0.000 HD
BRANCH   8  12
ATOM     12  C   UNL     1      44.728   4.083  12.243  0.00  0.00    +0.000 C 
ATOM     13  N   UNL     1      45.313   2.883  12.539  0.00  0.00    +0.000 N 
ATOM     14  O   UNL     1      43.630   4.129  11.704  0.00  0.00    +0.000 OA
ATOM     15  H   UNL     1      46.115   2.784  13.145  0.00  0.00    +0.000 HD
ATOM     16  H   UNL     1      44.772   2.052  12.334  0.00  0.00    +0.000 HD
ENDBRANCH   8  12
ENDBRANCH   1   4
BRANCH   1  21
ATOM     17  C   UNL     1      48.872   6.941  17.011  0.00  0.00    +0.000 A 
ATOM     18  N   UNL     1      48.419   7.576  18.103  0.00  0.00    +0.000 NA
ATOM     19  C   UNL     1      47.961   8.826  17.909  0.00  0.00    +0.000 A 
ATOM     20  C   UNL     1      47.939   9.446  16.681  0.00  0.00    +0.000 A 
ATOM     21  C   UNL     1      48.411   8.717  15.604  0.00  0.00    +0.000 A 
ATOM     22  N   UNL     1      48.877   7.463  15.777  0.00  0.00    +0.000 NA
BRANCH  17  26
ATOM     23  C   UNL     1      50.492   3.051  17.364  0.00  0.00    +0.000 A 
ATOM     24  C   UNL     1      49.113   3.170  17.276  0.00  0.00    +0.000 A 
ATOM     25  C   UNL     1      48.561   4.447  17.170  0.00  0.00    +0.000 A 
ATOM     26  C   UNL     1      49.388   5.577  17.143  0.00  0.00    +0.000 A 
ATOM     27  C   UNL     1      50.762   5.334  17.241  0.00  0.00    +0.000 A 
ATOM     28  N   UNL     1      51.334   4.109  17.353  0.00  0.00    +0.000 NA
BRANCH  23  30
ATOM     29  N   UNL     1      51.648   0.733  17.554  0.00  0.00    +0.000 NA
ATOM     30  C   UNL     1      51.111   1.761  17.466  0.00  0.00    +0.000 C 
ENDBRANCH  23  30
ENDBRANCH  17  26
ENDBRANCH   1  21
TORSDOF 5
ENDMDL
MODEL 7
REMARK VINA RESULT:    -5.946      5.129      7.948
REMARK INTER + INTRA:          -7.919
REMARK INTER:                  -7.724
REMARK INTRA:                  -0.195
REMARK UNBOUND:                -0.234
REMARK  Name = 
REMARK  5 active torsions:
REMARK  status: ('A' for Active; 'I' for Inactive)
REMARK    1  A    between atoms: C_2  and  C_3
REMARK    2  A    between atoms: C_6  and  C_7
REMARK    3  A    between atoms: C_11  and  C_12
REMARK    4  A    between atoms: C_12  and  N_13
REMARK    5  A    between atoms: C_17  and  C_18
REMARK                            x       y       z     vdW  Elec       q    Type
REMARK                         _______ _______ _______ _____ _____    ______ ____
ROOT
ATOM      1  C   UNL     1      49.140   7.417  15.962  0.00  0.00    +0.000 C 
ATOM      2  C   UNL     1      50.052   8.574  16.342  0.00  0.00    +0.000 C 
ATOM      3  C   UNL     1      48.571   8.771  16.358  0.00  0.00    +0.000 C 
ENDROOT
BRANCH   1   4
ATOM      4  N   UNL     1      49.062   7.005  14.553  0.00  0.00    +0.000 N 
ATOM      5  C   UNL     1      48.002   6.278  14.005  0.00  0.00    +0.000 A 
ATOM      6  C   UNL     1      47.172   5.442  14.750  0.00  0.00    +0.000 A 
ATOM      7  C   UNL     1      46.171   4.703  14.114  0.00  0.00    +0.000 A 
ATOM      8  C   UNL     1      46.012   4.822  12.737  0.00  0.00    +0.000 A 
ATOM      9  C   UNL     1      46.871   5.681  12.068  0.00  0.00    +0.000 A 
ATOM     10  N   UNL     1      47.849   6.406  12.672  0.00  0.00    +0.000 NA
ATOM     11  H   UNL     1      49.455   7.592  13.825  0.00  0.00    +0.000 HD
BRANCH   8  12
ATOM     12  C   UNL     1      45.021   4.052  11.957  0.00  0.00    +0.000 C 
ATOM     13  N   UNL     1      44.666   2.815  12.419  0.00  0.00    +0.000 N 
ATOM     14  O   UNL     1      44.517   4.511  10.940  0.00  0.00    +0.000 OA
ATOM     15  H   UNL     1      44.901   2.471  13.338  0.00  0.00    +0.000 HD
ATOM     16  H   UNL     1      43.939   2.331  11.906  0.00  0.00    +0.000 HD
ENDBRANCH   8  12
ENDBRANCH   1   4
BRANCH   1  21
ATOM     17  C   UNL     1      49.918   4.291  17.782  0.00  0.00    +0.000 A 
ATOM     18  N   UNL     1      48.947   4.134  18.694  0.00  0.00    +0.000 NA
ATOM     19  C   UNL     1      48.009   5.097  18.727  0.00  0.00    +0.000 A 
ATOM     20  C   UNL     1      48.010   6.190  17.892  0.00  0.00    +0.000 A 
ATOM     21  C   UNL     1      49.039   6.270  16.970  0.00  0.00    +0.000 A 
ATOM     22  N   UNL     1      49.991   5.316  16.922  0.00  0.00    +0.000 NA
BRANCH  17  26
ATOM     23  C   UNL     1      52.874   1.281  17.496  0.00  0.00    +0.000 A 
ATOM     24  C   UNL     1      53.277   2.546  17.898  0.00  0.00    +0.000 A 
ATOM     25  C   UNL     1      52.317   3.553  17.988  0.00  0.00    +0.000 A 
ATOM     26  C   UNL     1      50.976   3.284  17.686  0.00  0.00    +0.000 A 
ATOM     27  C   UNL     1      50.688   1.974  17.290  0.00  0.00    +0.000 A 
ATOM     28  N   UNL     1      51.596   0.971  17.183  0.00  0.00    +0.000 NA
BRANCH  23  30
ATOM     29  N   UNL     1      54.614  -0.640  17.330  0.00  0.00    +0.000 NA
ATOM     30  C   UNL     1      53.820   0.208  17.395  0.00  0.00    +0.000 C 
ENDBRANCH  23  30
ENDBRANCH  17  26
ENDBRANCH   1  21
TORSDOF 5
ENDMDL
