MODEL 1
REMARK VINA RESULT:    -8.556      0.000      0.000
REMARK INTER + INTRA:         -12.277
REMARK INTER:                 -11.557
REMARK INTRA:                  -0.720
REMARK UNBOUND:                -0.720
REMARK  Name = 
REMARK  7 active torsions:
REMARK  status: ('A' for Active; 'I' for Inactive)
REMARK    1  A    between atoms: C_1  and  O_2
REMARK    2  A    between atoms: O_2  and  C_3
REMARK    3  A    between atoms: C_5  and  C_6
REMARK    4  A    between atoms: C_6  and  N_7
REMARK    5  A    between atoms: N_7  and  C_8
REMARK    6  A    between atoms: C_11  and  C_12
REMARK    7  A    between atoms: C_21  and  C_22
REMARK                            x       y       z     vdW  Elec       q    Type
REMARK                         _______ _______ _______ _____ _____    ______ ____
ROOT
ATOM      1  C   UNL     1      43.788   5.131  11.318  0.00  0.00    +0.000 C 
ATOM      2  C   UNL     1      42.555   5.647  12.026  0.00  0.00    +0.000 C 
ATOM      3  C   UNL     1      42.912   4.203  12.158  0.00  0.00    +0.000 C 
ENDROOT
BRANCH   1   6
ATOM      4  C   UNL     1      47.039   5.096  13.401  0.00  0.00    +0.000 A 
ATOM      5  C   UNL     1      45.854   4.690  12.764  0.00  0.00    +0.000 A 
ATOM      6  C   UNL     1      45.164   5.513  11.852  0.00  0.00    +0.000 A 
ATOM      7  C   UNL     1      45.758   6.740  11.528  0.00  0.00    +0.000 A 
ATOM      8  C   UNL     1      46.953   7.148  12.129  0.00  0.00    +0.000 A 
ATOM      9  C   UNL     1      47.592   6.338  13.080  0.00  0.00    +0.000 A 
BRANCH   4  11
ATOM     10  C   UNL     1      47.190   4.231  15.618  0.00  0.00    +0.000 C 
ATOM     11  O   UNL     1      47.556   4.146  14.243  0.00  0.00    +0.000 OA
ENDBRANCH   4  11
BRANCH   9  12
ATOM     12  C   UNL     1      48.801   6.845  13.661  0.00  0.00    +0.000 C 
ATOM     13  N   UNL     1      49.785   7.213  14.150  0.00  0.00    +0.000 NA
ENDBRANCH   9  12
ENDBRANCH   1   6
BRANCH   1  14
ATOM     14  N   UNL     1      43.800   4.762   9.894  0.00  0.00    +0.000 N 
ATOM     15  H   UNL     1      42.886   4.516   9.524  0.00  0.00    +0.000 HD
BRANCH  14  16
ATOM     16  C   UNL     1      44.831   4.109   9.192  0.00  0.00    +0.000 A 
ATOM     17  C   UNL     1      45.730   4.735   8.326  0.00  0.00    +0.000 A 
ATOM     18  C   UNL     1      46.643   3.981   7.564  0.00  0.00    +0.000 A 
ATOM     19  C   UNL     1      46.640   2.582   7.642  0.00  0.00    +0.000 A 
ATOM     20  C   UNL     1      45.743   1.948   8.498  0.00  0.00    +0.000 A 
ATOM     21  C   UNL     1      44.853   2.707   9.259  0.00  0.00    +0.000 A 
BRANCH  19  22
ATOM     22  C   UNL     1      47.516   1.716   6.803  0.00  0.00    +0.000 C 
ATOM     23  N   UNL     1      48.669   2.256   6.315  0.00  0.00    +0.000 N 
ATOM     24  O   UNL     1      47.233   0.545   6.579  0.00  0.00    +0.000 OA
ATOM     25  H   UNL     1      49.060   3.115   6.668  0.00  0.00    +0.000 HD
ATOM     26  H   UNL     1      49.291   1.612   5.841  0.00  0.00    +0.000 HD
ENDBRANCH  19  22
ENDBRANCH  14  16
ENDBRANCH   1  14
TORSDOF 6
ENDMDL
MODEL 2
REMARK VINA RESULT:    -7.695      1.449      2.339
REMARK INTER + INTRA:         -11.114
REMARK INTER:                 -10.323
REMARK INTRA:                  -0.791
REMARK UNBOUND:                -0.720
REMARK  Name = 
REMARK  7 active torsions:
REMARK  status: ('A' for Active; 'I' for Inactive)
REMARK    1  A    between atoms: C_1  and  O_2
REMARK    2  A    between atoms: O_2  and  C_3
REMARK    3  A    between atoms: C_5  and  C_6
REMARK    4  A    between atoms: C_6  and  N_7
REMARK    5  A    between atoms: N_7  and  C_8
REMARK    6  A    between atoms: C_11  and  C_12
REMARK    7  A    between atoms: C_21  and  C_22
REMARK                            x       y       z     vdW  Elec       q    Type
REMARK                         _______ _______ _______ _____ _____    ______ ____
ROOT
ATOM      1  C   UNL     1      43.954   4.960  11.574  0.00  0.00    +0.000 C 
ATOM      2  C   UNL     1      43.010   5.991  10.995  0.00  0.00    +0.000 C 
ATOM      3  C   UNL     1      42.545   5.145  12.134  0.00  0.00    +0.000 C 
ENDROOT
BRANCH   1   6
ATOM      4  C   UNL     1      46.693   7.218  13.092  0.00  0.00    +0.000 A 
ATOM      5  C   UNL     1      45.510   6.784  12.470  0.00  0.00    +0.000 A 
ATOM      6  C   UNL     1      45.138   5.427  12.413  0.00  0.00    +0.000 A 
ATOM      7  C   UNL     1      45.959   4.514  13.089  0.00  0.00    +0.000 A 
ATOM      8  C   UNL     1      47.123   4.931  13.741  0.00  0.00    +0.000 A 
ATOM      9  C   UNL     1      47.507   6.281  13.733  0.00  0.00    +0.000 A 
BRANCH   4  11
ATOM     10  C   UNL     1      45.937   9.321  12.260  0.00  0.00    +0.000 C 
ATOM     11  O   UNL     1      46.865   8.577  13.045  0.00  0.00    +0.000 OA
ENDBRANCH   4  11
BRANCH   9  12
ATOM     12  C   UNL     1      48.727   6.615  14.407  0.00  0.00    +0.000 C 
ATOM     13  N   UNL     1      49.733   6.845  14.935  0.00  0.00    +0.000 NA
ENDBRANCH   9  12
ENDBRANCH   1   6
BRANCH   1  14
ATOM     14  N   UNL     1      44.154   3.631  10.975  0.00  0.00    +0.000 N 
ATOM     15  H   UNL     1      44.275   2.886  11.655  0.00  0.00    +0.000 HD
BRANCH  14  16
ATOM     16  C   UNL     1      44.807   3.332   9.764  0.00  0.00    +0.000 A 
ATOM     17  C   UNL     1      45.127   2.046   9.324  0.00  0.00    +0.000 A 
ATOM     18  C   UNL     1      45.900   1.851   8.163  0.00  0.00    +0.000 A 
ATOM     19  C   UNL     1      46.386   2.953   7.447  0.00  0.00    +0.000 A 
ATOM     20  C   UNL     1      46.077   4.240   7.882  0.00  0.00    +0.000 A 
ATOM     21  C   UNL     1      45.299   4.420   9.025  0.00  0.00    +0.000 A 
BRANCH  19  22
ATOM     22  C   UNL     1      47.280   2.826   6.262  0.00  0.00    +0.000 C 
ATOM     23  N   UNL     1      48.587   2.503   6.480  0.00  0.00    +0.000 N 
ATOM     24  O   UNL     1      46.858   2.976   5.121  0.00  0.00    +0.000 OA
ATOM     25  H   UNL     1      48.918   2.135   7.357  0.00  0.00    +0.000 HD
ATOM     26  H   UNL     1      49.141   2.320   5.652  0.00  0.00    +0.000 HD
ENDBRANCH  19  22
ENDBRANCH  14  16
ENDBRANCH   1  14
TORSDOF 6
ENDMDL
MODEL 3
REMARK VINA RESULT:    -5.941      3.028      4.893
REMARK INTER + INTRA:          -8.744
REMARK INTER:                  -7.922
REMARK INTRA:                  -0.823
REMARK UNBOUND:                -0.720
REMARK  Name = 
REMARK  7 active torsions:
REMARK  status: ('A' for Active; 'I' for Inactive)
REMARK    1  A    between atoms: C_1  and  O_2
REMARK    2  A    between atoms: O_2  and  C_3
REMARK    3  A    between atoms: C_5  and  C_6
REMARK    4  A    between atoms: C_6  and  N_7
REMARK    5  A    between atoms: N_7  and  C_8
REMARK    6  A    between atoms: C_11  and  C_12
REMARK    7  A    between atoms: C_21  and  C_22
REMARK                            x       y       z     vdW  Elec       q    Type
REMARK                         _______ _______ _______ _____ _____    ______ ____
ROOT
ATOM      1  C   UNL     1      47.949   8.018  12.562  0.00  0.00    +0.000 C 
ATOM      2  C   UNL     1      49.001   7.733  11.513  0.00  0.00    +0.000 C 
ATOM      3  C   UNL     1      48.625   9.150  11.792  0.00  0.00    +0.000 C 
ENDROOT
BRANCH   1   6
ATOM      4  C   UNL     1      48.663   6.331  15.960  0.00  0.00    +0.000 A 
ATOM      5  C   UNL     1      48.511   6.548  14.580  0.00  0.00    +0.000 A 
ATOM      6  C   UNL     1      48.298   7.828  14.034  0.00  0.00    +0.000 A 
ATOM      7  C   UNL     1      48.331   8.912  14.921  0.00  0.00    +0.000 A 
ATOM      8  C   UNL     1      48.512   8.719  16.294  0.00  0.00    +0.000 A 
ATOM      9  C   UNL     1      48.662   7.428  16.825  0.00  0.00    +0.000 A 
BRANCH   4  11
ATOM     10  C   UNL     1      47.714   4.188  16.400  0.00  0.00    +0.000 C 
ATOM     11  O   UNL     1      48.869   5.015  16.285  0.00  0.00    +0.000 OA
ENDBRANCH   4  11
BRANCH   9  12
ATOM     12  C   UNL     1      48.820   7.323  18.246  0.00  0.00    +0.000 C 
ATOM     13  N   UNL     1      48.985   7.209  19.388  0.00  0.00    +0.000 NA
ENDBRANCH   9  12
ENDBRANCH   1   6
BRANCH   1  14
ATOM     14  N   UNL     1      46.505   7.934  12.291  0.00  0.00    +0.000 N 
ATOM     15  H   UNL     1      45.955   8.648  12.761  0.00  0.00    +0.000 HD
BRANCH  14  16
ATOM     16  C   UNL     1      45.748   6.769  12.063  0.00  0.00    +0.000 A 
ATOM     17  C   UNL     1      45.116   6.017  13.056  0.00  0.00    +0.000 A 
ATOM     18  C   UNL     1      44.493   4.793  12.749  0.00  0.00    +0.000 A 
ATOM     19  C   UNL     1      44.525   4.294  11.440  0.00  0.00    +0.000 A 
ATOM     20  C   UNL     1      45.159   5.034  10.444  0.00  0.00    +0.000 A 
ATOM     21  C   UNL     1      45.759   6.253  10.757  0.00  0.00    +0.000 A 
BRANCH  19  22
ATOM     22  C   UNL     1      43.965   2.968  11.057  0.00  0.00    +0.000 C 
ATOM     23  N   UNL     1      44.638   2.237  10.123  0.00  0.00    +0.000 N 
ATOM     24  O   UNL     1      42.950   2.525  11.581  0.00  0.00    +0.000 OA
ATOM     25  H   UNL     1      45.586   2.440   9.851  0.00  0.00    +0.000 HD
ATOM     26  H   UNL     1      44.292   1.298   9.964  0.00  0.00    +0.000 HD
ENDBRANCH  19  22
ENDBRANCH  14  16
ENDBRANCH   1  14
TORSDOF 6
ENDMDL
MODEL 4
REMARK VINA RESULT:    -5.739      2.859      5.304
REMARK INTER + INTRA:          -8.473
REMARK INTER:                  -7.804
REMARK INTRA:                  -0.669
REMARK UNBOUND:                -0.720
REMARK  Name = 
REMARK  7 active torsions:
REMARK  status: ('A' for Active; 'I' for Inactive)
REMARK    1  A    between atoms: C_1  and  O_2
REMARK    2  A    between atoms: O_2  and  C_3
REMARK    3  A    between atoms: C_5  and  C_6
REMARK    4  A    between atoms: C_6  and  N_7
REMARK    5  A    between atoms: N_7  and  C_8
REMARK    6  A    between atoms: C_11  and  C_12
REMARK    7  A    between atoms: C_21  and  C_22
REMARK                            x       y       z     vdW  Elec       q    Type
REMARK                         _______ _______ _______ _____ _____    ______ ____
ROOT
ATOM      1  C   UNL     1      48.417   7.527  14.097  0.00  0.00    +0.000 C 
ATOM      2  C   UNL     1      49.263   8.082  12.973  0.00  0.00    +0.000 C 
ATOM      3  C   UNL     1      48.674   9.026  13.968  0.00  0.00    +0.000 C 
ENDROOT
BRANCH   1   6
ATOM      4  C   UNL     1      48.933   5.311  17.217  0.00  0.00    +0.000 A 
ATOM      5  C   UNL     1      48.375   5.890  16.064  0.00  0.00    +0.000 A 
ATOM      6  C   UNL     1      49.096   6.767  15.231  0.00  0.00    +0.000 A 
ATOM      7  C   UNL     1      50.444   6.979  15.548  0.00  0.00    +0.000 A 
ATOM      8  C   UNL     1      51.027   6.388  16.673  0.00  0.00    +0.000 A 
ATOM      9  C   UNL     1      50.272   5.565  17.524  0.00  0.00    +0.000 A 
BRANCH   4  11
ATOM     10  C   UNL     1      47.251   3.627  17.088  0.00  0.00    +0.000 C 
ATOM     11  O   UNL     1      48.069   4.482  17.883  0.00  0.00    +0.000 OA
ENDBRANCH   4  11
BRANCH   9  12
ATOM     12  C   UNL     1      50.945   5.019  18.666  0.00  0.00    +0.000 C 
ATOM     13  N   UNL     1      51.501   4.622  19.603  0.00  0.00    +0.000 NA
ENDBRANCH   9  12
ENDBRANCH   1   6
BRANCH   1  14
ATOM     14  N   UNL     1      46.996   7.181  13.936  0.00  0.00    +0.000 N 
ATOM     15  H   UNL     1      46.500   7.052  14.813  0.00  0.00    +0.000 HD
BRANCH  14  16
ATOM     16  C   UNL     1      46.417   6.423  12.901  0.00  0.00    +0.000 A 
ATOM     17  C   UNL     1      46.132   6.902  11.620  0.00  0.00    +0.000 A 
ATOM     18  C   UNL     1      45.429   6.110  10.692  0.00  0.00    +0.000 A 
ATOM     19  C   UNL     1      44.977   4.835  11.053  0.00  0.00    +0.000 A 
ATOM     20  C   UNL     1      45.250   4.351  12.331  0.00  0.00    +0.000 A 
ATOM     21  C   UNL     1      45.960   5.138  13.236  0.00  0.00    +0.000 A 
BRANCH  19  22
ATOM     22  C   UNL     1      44.153   3.975  10.156  0.00  0.00    +0.000 C 
ATOM     23  N   UNL     1      44.112   4.292   8.831  0.00  0.00    +0.000 N 
ATOM     24  O   UNL     1      43.554   2.995  10.581  0.00  0.00    +0.000 OA
ATOM     25  H   UNL     1      44.769   4.923   8.400  0.00  0.00    +0.000 HD
ATOM     26  H   UNL     1      43.634   3.629   8.233  0.00  0.00    +0.000 HD
ENDBRANCH  19  22
ENDBRANCH  14  16
ENDBRANCH   1  14
TORSDOF 6
ENDMDL
