MODEL 1
REMARK VINA RESULT:    -7.747      0.000      0.000
REMARK INTER + INTRA:         -12.899
REMARK INTER:                 -11.597
REMARK INTRA:                  -1.302
REMARK UNBOUND:                -1.302
REMARK  Name = 
REMARK  9 active torsions:
REMARK  status: ('A' for Active; 'I' for Inactive)
REMARK    1  A    between atoms: N_1  and  C_2
REMARK    2  A    between atoms: C_2  and  C_3
REMARK    3  A    between atoms: C_3  and  N_4
REMARK    4  A    between atoms: N_4  and  C_5
REMARK    5  A    between atoms: C_5  and  C_6
REMARK    6  A    between atoms: C_9  and  C_10
REMARK    7  A    between atoms: C_10  and  N_11
REMARK    8  A    between atoms: C_12  and  C_14
REMARK    9  A    between atoms: C_26  and  C_28
REMARK                            x       y       z     vdW  Elec       q    Type
REMARK                         _______ _______ _______ _____ _____    ______ ____
ROOT
ATOM      1  C   UNL     1      45.303   6.536  11.049  0.00  0.00    +0.000 A 
ATOM      2  C   UNL     1      46.664   6.235  11.191  0.00  0.00    +0.000 A 
ATOM      3  C   UNL     1      47.459   6.954  12.080  0.00  0.00    +0.000 A 
ATOM      4  C   UNL     1      46.899   7.974  12.859  0.00  0.00    +0.000 A 
ATOM      5  C   UNL     1      45.561   8.336  12.649  0.00  0.00    +0.000 A 
ATOM      6  C   UNL     1      44.766   7.620  11.754  0.00  0.00    +0.000 A 
ENDROOT
BRANCH   1   7
ATOM      7  C   UNL     1      44.438   5.689  10.153  0.00  0.00    +0.000 C 
BRANCH   7   8
ATOM      8  N   UNL     1      43.964   4.390  10.647  0.00  0.00    +0.000 N 
ATOM      9  C   UNL     1      44.264   3.184   9.970  0.00  0.00    +0.000 C 
ATOM     10  O   UNL     1      43.662   2.153  10.281  0.00  0.00    +0.000 OA
BRANCH   9  11
ATOM     11  C   UNL     1      45.249   3.182   8.880  0.00  0.00    +0.000 A 
ATOM     12  C   UNL     1      45.822   4.204   8.139  0.00  0.00    +0.000 A 
ATOM     13  C   UNL     1      46.686   3.732   7.107  0.00  0.00    +0.000 A 
ATOM     14  C   UNL     1      46.843   2.368   7.155  0.00  0.00    +0.000 A 
ATOM     15  S   UNL     1      45.913   1.662   8.402  0.00  0.00    +0.000 S 
ENDBRANCH   9  11
BRANCH   8  16
ATOM     16  C   UNL     1      42.952   4.308  11.718  0.00  0.00    +0.000 C 
BRANCH  16  17
ATOM     17  C   UNL     1      43.510   4.333  13.161  0.00  0.00    +0.000 C 
BRANCH  17  18
ATOM     18  N   UNL     1      44.855   3.759  13.290  0.00  0.00    +0.000 NA
ATOM     19  H   UNL     1      45.265   3.698  12.358  0.00  0.00    +0.000 HD
ATOM     20  H   UNL     1      44.773   2.797  13.619  0.00  0.00    +0.000 HD
ENDBRANCH  17  18
ENDBRANCH  16  17
ENDBRANCH   8  16
ENDBRANCH   7   8
ENDBRANCH   1   7
BRANCH   4  21
ATOM     21  C   UNL     1      47.714   8.650  13.929  0.00  0.00    +0.000 C 
BRANCH  21  22
ATOM     22  N   UNL     1      47.943   7.794  15.059  0.00  0.00    +0.000 N 
ATOM     23  C   UNL     1      49.151   7.155  15.201  0.00  0.00    +0.000 C 
ATOM     24  O   UNL     1      50.081   7.348  14.425  0.00  0.00    +0.000 OA
ATOM     25  H   UNL     1      47.129   7.450  15.560  0.00  0.00    +0.000 HD
BRANCH  23  26
ATOM     26  C   UNL     1      49.298   6.277  16.367  0.00  0.00    +0.000 A 
ATOM     27  C   UNL     1      50.285   6.552  17.305  0.00  0.00    +0.000 A 
ATOM     28  S   UNL     1      50.285   5.480  18.629  0.00  0.00    +0.000 S 
ATOM     29  C   UNL     1      49.007   4.570  17.964  0.00  0.00    +0.000 A 
ATOM     30  N   UNL     1      48.527   3.473  18.604  0.00  0.00    +0.000 NA
ATOM     31  C   UNL     1      47.576   2.866  17.974  0.00  0.00    +0.000 A 
ATOM     32  N   UNL     1      47.060   3.260  16.770  0.00  0.00    +0.000 N 
ATOM     33  C   UNL     1      47.497   4.375  16.098  0.00  0.00    +0.000 A 
ATOM     34  O   UNL     1      46.992   4.718  15.031  0.00  0.00    +0.000 OA
ATOM     35  C   UNL     1      48.573   5.093  16.759  0.00  0.00    +0.000 A 
ATOM     36  H   UNL     1      46.314   2.738  16.332  0.00  0.00    +0.000 HD
ENDBRANCH  23  26
ENDBRANCH  21  22
ENDBRANCH   4  21
TORSDOF 9
ENDMDL
MODEL 2
REMARK VINA RESULT:    -7.293      2.061      2.341
REMARK INTER + INTRA:         -12.219
REMARK INTER:                 -11.906
REMARK INTRA:                  -0.313
REMARK UNBOUND:                -1.302
REMARK  Name = 
REMARK  9 active torsions:
REMARK  status: ('A' for Active; 'I' for Inactive)
REMARK    1  A    between atoms: N_1  and  C_2
REMARK    2  A    between atoms: C_2  and  C_3
REMARK    3  A    between atoms: C_3  and  N_4
REMARK    4  A    between atoms: N_4  and  C_5
REMARK    5  A    between atoms: C_5  and  C_6
REMARK    6  A    between atoms: C_9  and  C_10
REMARK    7  A    between atoms: C_10  and  N_11
REMARK    8  A    between atoms: C_12  and  C_14
REMARK    9  A    between atoms: C_26  and  C_28
REMARK                            x       y       z     vdW  Elec       q    Type
REMARK                         _______ _______ _______ _____ _____    ______ ____
ROOT
ATOM      1  C   UNL     1      46.212   5.603  11.665  0.00  0.00    +0.000 A 
ATOM      2  C   UNL     1      46.300   4.851  12.844  0.00  0.00    +0.000 A 
ATOM      3  C   UNL     1      47.011   5.334  13.940  0.00  0.00    +0.000 A 
ATOM      4  C   UNL     1      47.631   6.588  13.881  0.00  0.00    +0.000 A 
ATOM      5  C   UNL     1      47.622   7.297  12.672  0.00  0.00    +0.000 A 
ATOM      6  C   UNL     1      46.913   6.812  11.572  0.00  0.00    +0.000 A 
ENDROOT
BRANCH   1   7
ATOM      7  C   UNL     1      45.362   5.111  10.525  0.00  0.00    +0.000 C 
BRANCH   7   8
ATOM      8  N   UNL     1      44.597   3.868  10.695  0.00  0.00    +0.000 N 
ATOM      9  C   UNL     1      44.588   2.860   9.702  0.00  0.00    +0.000 C 
ATOM     10  O   UNL     1      43.761   1.947   9.777  0.00  0.00    +0.000 OA
BRANCH   9  11
ATOM     11  C   UNL     1      45.527   2.935   8.574  0.00  0.00    +0.000 A 
ATOM     12  C   UNL     1      45.978   3.996   7.806  0.00  0.00    +0.000 A 
ATOM     13  C   UNL     1      46.840   3.594   6.743  0.00  0.00    +0.000 A 
ATOM     14  C   UNL     1      47.119   2.250   6.793  0.00  0.00    +0.000 A 
ATOM     15  S   UNL     1      46.304   1.475   8.078  0.00  0.00    +0.000 S 
ENDBRANCH   9  11
BRANCH   8  16
ATOM     16  C   UNL     1      43.612   3.726  11.785  0.00  0.00    +0.000 C 
BRANCH  16  17
ATOM     17  C   UNL     1      42.651   4.924  11.970  0.00  0.00    +0.000 C 
BRANCH  17  18
ATOM     18  N   UNL     1      42.672   5.502  13.319  0.00  0.00    +0.000 NA
ATOM     19  H   UNL     1      41.898   6.163  13.393  0.00  0.00    +0.000 HD
ATOM     20  H   UNL     1      43.520   6.057  13.427  0.00  0.00    +0.000 HD
ENDBRANCH  17  18
ENDBRANCH  16  17
ENDBRANCH   8  16
ENDBRANCH   7   8
ENDBRANCH   1   7
BRANCH   4  21
ATOM     21  C   UNL     1      48.269   7.181  15.108  0.00  0.00    +0.000 C 
BRANCH  21  22
ATOM     22  N   UNL     1      49.378   6.398  15.576  0.00  0.00    +0.000 N 
ATOM     23  C   UNL     1      49.364   5.880  16.849  0.00  0.00    +0.000 C 
ATOM     24  O   UNL     1      48.393   6.006  17.588  0.00  0.00    +0.000 OA
ATOM     25  H   UNL     1      50.258   6.487  15.078  0.00  0.00    +0.000 HD
BRANCH  23  26
ATOM     26  C   UNL     1      50.545   5.115  17.262  0.00  0.00    +0.000 A 
ATOM     27  C   UNL     1      51.679   5.792  17.692  0.00  0.00    +0.000 A 
ATOM     28  S   UNL     1      52.938   4.763  18.196  0.00  0.00    +0.000 S 
ATOM     29  C   UNL     1      52.038   3.372  17.797  0.00  0.00    +0.000 A 
ATOM     30  N   UNL     1      52.560   2.131  17.970  0.00  0.00    +0.000 NA
ATOM     31  C   UNL     1      51.777   1.171  17.602  0.00  0.00    +0.000 A 
ATOM     32  N   UNL     1      50.521   1.340  17.086  0.00  0.00    +0.000 N 
ATOM     33  C   UNL     1      49.944   2.574  16.916  0.00  0.00    +0.000 A 
ATOM     34  O   UNL     1      48.801   2.691  16.477  0.00  0.00    +0.000 OA
ATOM     35  C   UNL     1      50.784   3.692  17.307  0.00  0.00    +0.000 A 
ATOM     36  H   UNL     1      49.961   0.543  16.819  0.00  0.00    +0.000 HD
ENDBRANCH  23  26
ENDBRANCH  21  22
ENDBRANCH   4  21
TORSDOF 9
ENDMDL
MODEL 3
REMARK VINA RESULT:    -7.112      2.782      3.712
REMARK INTER + INTRA:         -11.948
REMARK INTER:                 -10.568
REMARK INTRA:                  -1.379
REMARK UNBOUND:                -1.302
REMARK  Name = 
REMARK  9 active torsions:
REMARK  status: ('A' for Active; 'I' for Inactive)
REMARK    1  A    between atoms: N_1  and  C_2
REMARK    2  A    between atoms: C_2  and  C_3
REMARK    3  A    between atoms: C_3  and  N_4
REMARK    4  A    between atoms: N_4  and  C_5
REMARK    5  A    between atoms: C_5  and  C_6
REMARK    6  A    between atoms: C_9  and  C_10
REMARK    7  A    between atoms: C_10  and  N_11
REMARK    8  A    between atoms: C_12  and  C_14
REMARK    9  A    between atoms: C_26  and  C_28
REMARK                            x       y       z     vdW  Elec       q    Type
REMARK                         _______ _______ _______ _____ _____    ______ ____
ROOT
ATOM      1  C   UNL     1      47.057   5.338  13.206  0.00  0.00    +0.000 A 
ATOM      2  C   UNL     1      46.810   4.462  14.272  0.00  0.00    +0.000 A 
ATOM      3  C   UNL     1      47.374   4.695  15.524  0.00  0.00    +0.000 A 
ATOM      4  C   UNL     1      48.180   5.820  15.736  0.00  0.00    +0.000 A 
ATOM      5  C   UNL     1      48.502   6.643  14.648  0.00  0.00    +0.000 A 
ATOM      6  C   UNL     1      47.941   6.407  13.392  0.00  0.00    +0.000 A 
ENDROOT
BRANCH   1   7
ATOM      7  C   UNL     1      46.365   5.124  11.886  0.00  0.00    +0.000 C 
BRANCH   7   8
ATOM      8  N   UNL     1      44.960   5.528  11.749  0.00  0.00    +0.000 N 
ATOM      9  C   UNL     1      44.138   5.017  10.717  0.00  0.00    +0.000 C 
ATOM     10  O   UNL     1      43.046   5.548  10.497  0.00  0.00    +0.000 OA
BRANCH   9  11
ATOM     11  C   UNL     1      44.610   3.896   9.893  0.00  0.00    +0.000 A 
ATOM     12  C   UNL     1      44.452   2.524  10.005  0.00  0.00    +0.000 A 
ATOM     13  C   UNL     1      45.162   1.793   9.007  0.00  0.00    +0.000 A 
ATOM     14  C   UNL     1      45.752   2.625   8.087  0.00  0.00    +0.000 A 
ATOM     15  S   UNL     1      45.495   4.273   8.458  0.00  0.00    +0.000 S 
ENDBRANCH   9  11
BRANCH   8  16
ATOM     16  C   UNL     1      44.417   6.664  12.519  0.00  0.00    +0.000 C 
BRANCH  16  17
ATOM     17  C   UNL     1      44.729   8.065  11.944  0.00  0.00    +0.000 C 
BRANCH  17  18
ATOM     18  N   UNL     1      43.674   8.602  11.076  0.00  0.00    +0.000 NA
ATOM     19  H   UNL     1      44.037   9.437  10.614  0.00  0.00    +0.000 HD
ATOM     20  H   UNL     1      42.900   8.924  11.658  0.00  0.00    +0.000 HD
ENDBRANCH  17  18
ENDBRANCH  16  17
ENDBRANCH   8  16
ENDBRANCH   7   8
ENDBRANCH   1   7
BRANCH   4  21
ATOM     21  C   UNL     1      48.667   6.160  17.119  0.00  0.00    +0.000 C 
BRANCH  21  22
ATOM     22  N   UNL     1      49.682   5.253  17.575  0.00  0.00    +0.000 N 
ATOM     23  C   UNL     1      51.001   5.490  17.270  0.00  0.00    +0.000 C 
ATOM     24  O   UNL     1      51.356   6.501  16.673  0.00  0.00    +0.000 OA
ATOM     25  H   UNL     1      49.389   4.321  17.852  0.00  0.00    +0.000 HD
BRANCH  23  26
ATOM     26  C   UNL     1      51.975   4.503  17.748  0.00  0.00    +0.000 A 
ATOM     27  C   UNL     1      53.165   4.942  18.315  0.00  0.00    +0.000 A 
ATOM     28  S   UNL     1      54.159   3.680  18.879  0.00  0.00    +0.000 S 
ATOM     29  C   UNL     1      53.064   2.496  18.328  0.00  0.00    +0.000 A 
ATOM     30  N   UNL     1      53.331   1.174  18.484  0.00  0.00    +0.000 NA
ATOM     31  C   UNL     1      52.426   0.390  17.997  0.00  0.00    +0.000 A 
ATOM     32  N   UNL     1      51.280   0.808  17.378  0.00  0.00    +0.000 N 
ATOM     33  C   UNL     1      50.957   2.133  17.219  0.00  0.00    +0.000 A 
ATOM     34  O   UNL     1      49.905   2.476  16.684  0.00  0.00    +0.000 OA
ATOM     35  C   UNL     1      51.944   3.061  17.742  0.00  0.00    +0.000 A 
ATOM     36  H   UNL     1      50.612   0.139  17.020  0.00  0.00    +0.000 HD
ENDBRANCH  23  26
ENDBRANCH  21  22
ENDBRANCH   4  21
TORSDOF 9
ENDMDL
MODEL 4
REMARK VINA RESULT:    -6.559      2.799      8.490
REMARK INTER + INTRA:         -11.121
REMARK INTER:                  -9.631
REMARK INTRA:                  -1.490
REMARK UNBOUND:                -1.302
REMARK  Name = 
REMARK  9 active torsions:
REMARK  status: ('A' for Active; 'I' for Inactive)
REMARK    1  A    between atoms: N_1  and  C_2
REMARK    2  A    between atoms: C_2  and  C_3
REMARK    3  A    between atoms: C_3  and  N_4
REMARK    4  A    between atoms: N_4  and  C_5
REMARK    5  A    between atoms: C_5  and  C_6
REMARK    6  A    between atoms: C_9  and  C_10
REMARK    7  A    between atoms: C_10  and  N_11
REMARK    8  A    between atoms: C_12  and  C_14
REMARK    9  A    between atoms: C_26  and  C_28
REMARK                            x       y       z     vdW  Elec       q    Type
REMARK                         _______ _______ _______ _____ _____    ______ ____
ROOT
ATOM      1  C   UNL     1      49.093   7.510  16.258  0.00  0.00    +0.000 A 
ATOM      2  C   UNL     1      48.408   8.697  15.965  0.00  0.00    +0.000 A 
ATOM      3  C   UNL     1      48.059   9.006  14.652  0.00  0.00    +0.000 A 
ATOM      4  C   UNL     1      48.371   8.121  13.613  0.00  0.00    +0.000 A 
ATOM      5  C   UNL     1      49.136   6.981  13.894  0.00  0.00    +0.000 A 
ATOM      6  C   UNL     1      49.491   6.673  15.209  0.00  0.00    +0.000 A 
ENDROOT
BRANCH   1   7
ATOM      7  C   UNL     1      49.380   7.146  17.691  0.00  0.00    +0.000 C 
BRANCH   7   8
ATOM      8  N   UNL     1      48.429   6.288  18.409  0.00  0.00    +0.000 N 
ATOM      9  C   UNL     1      47.693   6.763  19.520  0.00  0.00    +0.000 C 
ATOM     10  O   UNL     1      47.087   5.956  20.231  0.00  0.00    +0.000 OA
BRANCH   9  11
ATOM     11  C   UNL     1      47.697   8.196  19.842  0.00  0.00    +0.000 A 
ATOM     12  C   UNL     1      46.986   9.269  19.327  0.00  0.00    +0.000 A 
ATOM     13  C   UNL     1      47.373  10.521  19.892  0.00  0.00    +0.000 A 
ATOM     14  C   UNL     1      48.287  10.365  20.905  0.00  0.00    +0.000 A 
ATOM     15  S   UNL     1      48.713   8.726  21.133  0.00  0.00    +0.000 S 
ENDBRANCH   9  11
BRANCH   8  16
ATOM     16  C   UNL     1      48.386   4.833  18.165  0.00  0.00    +0.000 C 
BRANCH  16  17
ATOM     17  C   UNL     1      47.267   4.354  17.210  0.00  0.00    +0.000 C 
BRANCH  17  18
ATOM     18  N   UNL     1      46.635   3.093  17.617  0.00  0.00    +0.000 NA
ATOM     19  H   UNL     1      46.908   2.371  16.949  0.00  0.00    +0.000 HD
ATOM     20  H   UNL     1      45.624   3.185  17.525  0.00  0.00    +0.000 HD
ENDBRANCH  17  18
ENDBRANCH  16  17
ENDBRANCH   8  16
ENDBRANCH   7   8
ENDBRANCH   1   7
BRANCH   4  21
ATOM     21  C   UNL     1      47.863   8.374  12.219  0.00  0.00    +0.000 C 
BRANCH  21  22
ATOM     22  N   UNL     1      47.320   7.189  11.616  0.00  0.00    +0.000 N 
ATOM     23  C   UNL     1      45.967   7.093  11.391  0.00  0.00    +0.000 C 
ATOM     24  O   UNL     1      45.205   8.024  11.624  0.00  0.00    +0.000 OA
ATOM     25  H   UNL     1      47.887   6.348  11.640  0.00  0.00    +0.000 HD
BRANCH  23  26
ATOM     26  C   UNL     1      45.487   5.841  10.797  0.00  0.00    +0.000 A 
ATOM     27  C   UNL     1      45.761   5.573   9.461  0.00  0.00    +0.000 A 
ATOM     28  S   UNL     1      45.192   4.055   8.940  0.00  0.00    +0.000 S 
ATOM     29  C   UNL     1      44.501   3.727  10.463  0.00  0.00    +0.000 A 
ATOM     30  N   UNL     1      43.829   2.570  10.688  0.00  0.00    +0.000 NA
ATOM     31  C   UNL     1      43.336   2.467  11.879  0.00  0.00    +0.000 A 
ATOM     32  N   UNL     1      43.463   3.409  12.862  0.00  0.00    +0.000 N 
ATOM     33  C   UNL     1      44.155   4.582  12.687  0.00  0.00    +0.000 A 
ATOM     34  O   UNL     1      44.275   5.396  13.601  0.00  0.00    +0.000 OA
ATOM     35  C   UNL     1      44.723   4.755  11.363  0.00  0.00    +0.000 A 
ATOM     36  H   UNL     1      43.053   3.263  13.774  0.00  0.00    +0.000 HD
ENDBRANCH  23  26
ENDBRANCH  21  22
ENDBRANCH   4  21
TORSDOF 9
ENDMDL
MODEL 5
REMARK VINA RESULT:    -6.502      1.751      2.167
REMARK INTER + INTRA:         -11.035
REMARK INTER:                 -10.489
REMARK INTRA:                  -0.546
REMARK UNBOUND:                -1.302
REMARK  Name = 
REMARK  9 active torsions:
REMARK  status: ('A' for Active; 'I' for Inactive)
REMARK    1  A    between atoms: N_1  and  C_2
REMARK    2  A    between atoms: C_2  and  C_3
REMARK    3  A    between atoms: C_3  and  N_4
REMARK    4  A    between atoms: N_4  and  C_5
REMARK    5  A    between atoms: C_5  and  C_6
REMARK    6  A    between atoms: C_9  and  C_10
REMARK    7  A    between atoms: C_10  and  N_11
REMARK    8  A    between atoms: C_12  and  C_14
REMARK    9  A    between atoms: C_26  and  C_28
REMARK                            x       y       z     vdW  Elec       q    Type
REMARK                         _______ _______ _______ _____ _____    ______ ____
ROOT
ATOM      1  C   UNL     1      46.271   6.533  11.815  0.00  0.00    +0.000 A 
ATOM      2  C   UNL     1      45.900   7.839  12.164  0.00  0.00    +0.000 A 
ATOM      3  C   UNL     1      46.625   8.549  13.118  0.00  0.00    +0.000 A 
ATOM      4  C   UNL     1      47.747   7.972  13.725  0.00  0.00    +0.000 A 
ATOM      5  C   UNL     1      48.061   6.634  13.444  0.00  0.00    +0.000 A 
ATOM      6  C   UNL     1      47.332   5.920  12.492  0.00  0.00    +0.000 A 
ENDROOT
BRANCH   1   7
ATOM      7  C   UNL     1      45.535   5.814  10.716  0.00  0.00    +0.000 C 
BRANCH   7   8
ATOM      8  N   UNL     1      44.618   4.724  11.072  0.00  0.00    +0.000 N 
ATOM      9  C   UNL     1      44.417   3.614  10.217  0.00  0.00    +0.000 C 
ATOM     10  O   UNL     1      43.478   2.845  10.439  0.00  0.00    +0.000 OA
BRANCH   9  11
ATOM     11  C   UNL     1      45.293   3.418   9.054  0.00  0.00    +0.000 A 
ATOM     12  C   UNL     1      45.921   4.309   8.198  0.00  0.00    +0.000 A 
ATOM     13  C   UNL     1      46.625   3.667   7.137  0.00  0.00    +0.000 A 
ATOM     14  C   UNL     1      46.615   2.300   7.270  0.00  0.00    +0.000 A 
ATOM     15  S   UNL     1      45.718   1.798   8.634  0.00  0.00    +0.000 S 
ENDBRANCH   9  11
BRANCH   8  16
ATOM     16  C   UNL     1      43.684   4.856  12.207  0.00  0.00    +0.000 C 
BRANCH  16  17
ATOM     17  C   UNL     1      42.344   5.558  11.884  0.00  0.00    +0.000 C 
BRANCH  17  18
ATOM     18  N   UNL     1      42.497   6.904  11.319  0.00  0.00    +0.000 NA
ATOM     19  H   UNL     1      41.757   7.045  10.631  0.00  0.00    +0.000 HD
ATOM     20  H   UNL     1      43.371   6.945  10.795  0.00  0.00    +0.000 HD
ENDBRANCH  17  18
ENDBRANCH  16  17
ENDBRANCH   8  16
ENDBRANCH   7   8
ENDBRANCH   1   7
BRANCH   4  21
ATOM     21  C   UNL     1      48.622   8.785  14.640  0.00  0.00    +0.000 C 
BRANCH  21  22
ATOM     22  N   UNL     1      48.882   8.113  15.881  0.00  0.00    +0.000 N 
ATOM     23  C   UNL     1      48.384   8.625  17.056  0.00  0.00    +0.000 C 
ATOM     24  O   UNL     1      47.655   9.611  17.074  0.00  0.00    +0.000 OA
ATOM     25  H   UNL     1      49.655   7.456  15.906  0.00  0.00    +0.000 HD
BRANCH  23  26
ATOM     26  C   UNL     1      48.715   7.896  18.284  0.00  0.00    +0.000 A 
ATOM     27  C   UNL     1      49.164   8.602  19.394  0.00  0.00    +0.000 A 
ATOM     28  S   UNL     1      49.444   7.622  20.758  0.00  0.00    +0.000 S 
ATOM     29  C   UNL     1      49.038   6.208  19.897  0.00  0.00    +0.000 A 
ATOM     30  N   UNL     1      49.092   4.990  20.493  0.00  0.00    +0.000 NA
ATOM     31  C   UNL     1      48.783   4.006  19.715  0.00  0.00    +0.000 A 
ATOM     32  N   UNL     1      48.418   4.131  18.402  0.00  0.00    +0.000 N 
ATOM     33  C   UNL     1      48.327   5.344  17.765  0.00  0.00    +0.000 A 
ATOM     34  O   UNL     1      47.968   5.425  16.592  0.00  0.00    +0.000 OA
ATOM     35  C   UNL     1      48.671   6.487  18.592  0.00  0.00    +0.000 A 
ATOM     36  H   UNL     1      48.187   3.317  17.850  0.00  0.00    +0.000 HD
ENDBRANCH  23  26
ENDBRANCH  21  22
ENDBRANCH   4  21
TORSDOF 9
ENDMDL
MODEL 6
REMARK VINA RESULT:    -6.466      2.649      8.120
REMARK INTER + INTRA:         -10.980
REMARK INTER:                  -9.574
REMARK INTRA:                  -1.407
REMARK UNBOUND:                -1.302
REMARK  Name = 
REMARK  9 active torsions:
REMARK  status: ('A' for Active; 'I' for Inactive)
REMARK    1  A    between atoms: N_1  and  C_2
REMARK    2  A    between atoms: C_2  and  C_3
REMARK    3  A    between atoms: C_3  and  N_4
REMARK    4  A    between atoms: N_4  and  C_5
REMARK    5  A    between atoms: C_5  and  C_6
REMARK    6  A    between atoms: C_9  and  C_10
REMARK    7  A    between atoms: C_10  and  N_11
REMARK    8  A    between atoms: C_12  and  C_14
REMARK    9  A    between atoms: C_26  and  C_28
REMARK                            x       y       z     vdW  Elec       q    Type
REMARK                         _______ _______ _______ _____ _____    ______ ____
ROOT
ATOM      1  C   UNL     1      48.909   7.666  16.077  0.00  0.00    +0.000 A 
ATOM      2  C   UNL     1      48.235   8.813  15.639  0.00  0.00    +0.000 A 
ATOM      3  C   UNL     1      47.744   8.892  14.338  0.00  0.00    +0.000 A 
ATOM      4  C   UNL     1      47.902   7.813  13.459  0.00  0.00    +0.000 A 
ATOM      5  C   UNL     1      48.658   6.705  13.868  0.00  0.00    +0.000 A 
ATOM      6  C   UNL     1      49.154   6.629  15.170  0.00  0.00    +0.000 A 
ENDROOT
BRANCH   1   7
ATOM      7  C   UNL     1      49.351   7.560  17.513  0.00  0.00    +0.000 C 
BRANCH   7   8
ATOM      8  N   UNL     1      48.334   7.363  18.554  0.00  0.00    +0.000 N 
ATOM      9  C   UNL     1      47.752   6.096  18.794  0.00  0.00    +0.000 C 
ATOM     10  O   UNL     1      46.748   6.019  19.508  0.00  0.00    +0.000 OA
BRANCH   9  11
ATOM     11  C   UNL     1      48.317   4.899  18.157  0.00  0.00    +0.000 A 
ATOM     12  C   UNL     1      49.551   4.278  18.268  0.00  0.00    +0.000 A 
ATOM     13  C   UNL     1      49.701   3.165  17.389  0.00  0.00    +0.000 A 
ATOM     14  C   UNL     1      48.539   2.891  16.708  0.00  0.00    +0.000 A 
ATOM     15  S   UNL     1      47.299   4.002  17.090  0.00  0.00    +0.000 S 
ENDBRANCH   9  11
BRANCH   8  16
ATOM     16  C   UNL     1      47.696   8.516  19.220  0.00  0.00    +0.000 C 
BRANCH  16  17
ATOM     17  C   UNL     1      48.429   9.868  19.053  0.00  0.00    +0.000 C 
BRANCH  17  18
ATOM     18  N   UNL     1      47.557  10.971  18.630  0.00  0.00    +0.000 NA
ATOM     19  H   UNL     1      46.877  11.140  19.371  0.00  0.00    +0.000 HD
ATOM     20  H   UNL     1      47.014  10.670  17.821  0.00  0.00    +0.000 HD
ENDBRANCH  17  18
ENDBRANCH  16  17
ENDBRANCH   8  16
ENDBRANCH   7   8
ENDBRANCH   1   7
BRANCH   4  21
ATOM     21  C   UNL     1      47.244   7.830  12.106  0.00  0.00    +0.000 C 
BRANCH  21  22
ATOM     22  N   UNL     1      46.658   6.562  11.772  0.00  0.00    +0.000 N 
ATOM     23  C   UNL     1      45.291   6.434  11.708  0.00  0.00    +0.000 C 
ATOM     24  O   UNL     1      44.543   7.394  11.859  0.00  0.00    +0.000 OA
ATOM     25  H   UNL     1      47.237   5.735  11.878  0.00  0.00    +0.000 HD
BRANCH  23  26
ATOM     26  C   UNL     1      44.769   5.101  11.388  0.00  0.00    +0.000 A 
ATOM     27  C   UNL     1      44.023   4.416  12.339  0.00  0.00    +0.000 A 
ATOM     28  S   UNL     1      43.437   2.913  11.793  0.00  0.00    +0.000 S 
ATOM     29  C   UNL     1      44.212   3.094  10.286  0.00  0.00    +0.000 A 
ATOM     30  N   UNL     1      44.125   2.127   9.338  0.00  0.00    +0.000 NA
ATOM     31  C   UNL     1      44.783   2.385   8.256  0.00  0.00    +0.000 A 
ATOM     32  N   UNL     1      45.509   3.524   8.035  0.00  0.00    +0.000 N 
ATOM     33  C   UNL     1      45.605   4.539   8.955  0.00  0.00    +0.000 A 
ATOM     34  O   UNL     1      46.242   5.562   8.714  0.00  0.00    +0.000 OA
ATOM     35  C   UNL     1      44.890   4.297  10.196  0.00  0.00    +0.000 A 
ATOM     36  H   UNL     1      45.999   3.663   7.163  0.00  0.00    +0.000 HD
ENDBRANCH  23  26
ENDBRANCH  21  22
ENDBRANCH   4  21
TORSDOF 9
ENDMDL
MODEL 7
REMARK VINA RESULT:    -6.236      3.144      4.806
REMARK INTER + INTRA:         -10.637
REMARK INTER:                  -9.379
REMARK INTRA:                  -1.258
REMARK UNBOUND:                -1.302
REMARK  Name = 
REMARK  9 active torsions:
REMARK  status: ('A' for Active; 'I' for Inactive)
REMARK    1  A    between atoms: N_1  and  C_2
REMARK    2  A    between atoms: C_2  and  C_3
REMARK    3  A    between atoms: C_3  and  N_4
REMARK    4  A    between atoms: N_4  and  C_5
REMARK    5  A    between atoms: C_5  and  C_6
REMARK    6  A    between atoms: C_9  and  C_10
REMARK    7  A    between atoms: C_10  and  N_11
REMARK    8  A    between atoms: C_12  and  C_14
REMARK    9  A    between atoms: C_26  and  C_28
REMARK                            x       y       z     vdW  Elec       q    Type
REMARK                         _______ _______ _______ _____ _____    ______ ____
ROOT
ATOM      1  C   UNL     1      47.490   5.724  13.720  0.00  0.00    +0.000 A 
ATOM      2  C   UNL     1      47.009   4.596  14.400  0.00  0.00    +0.000 A 
ATOM      3  C   UNL     1      47.313   4.398  15.744  0.00  0.00    +0.000 A 
ATOM      4  C   UNL     1      48.087   5.337  16.438  0.00  0.00    +0.000 A 
ATOM      5  C   UNL     1      48.643   6.414  15.735  0.00  0.00    +0.000 A 
ATOM      6  C   UNL     1      48.344   6.611  14.386  0.00  0.00    +0.000 A 
ENDROOT
BRANCH   1   7
ATOM      7  C   UNL     1      47.075   5.971  12.294  0.00  0.00    +0.000 C 
BRANCH   7   8
ATOM      8  N   UNL     1      46.080   7.014  12.015  0.00  0.00    +0.000 N 
ATOM      9  C   UNL     1      44.746   6.694  11.666  0.00  0.00    +0.000 C 
ATOM     10  O   UNL     1      44.012   7.579  11.218  0.00  0.00    +0.000 OA
BRANCH   9  11
ATOM     11  C   UNL     1      44.268   5.311  11.795  0.00  0.00    +0.000 A 
ATOM     12  C   UNL     1      43.792   4.586  12.876  0.00  0.00    +0.000 A 
ATOM     13  C   UNL     1      43.509   3.224  12.557  0.00  0.00    +0.000 A 
ATOM     14  C   UNL     1      43.666   2.970  11.217  0.00  0.00    +0.000 A 
ATOM     15  S   UNL     1      44.202   4.349  10.363  0.00  0.00    +0.000 S 
ENDBRANCH   9  11
BRANCH   8  16
ATOM     16  C   UNL     1      46.485   8.423  11.841  0.00  0.00    +0.000 C 
BRANCH  16  17
ATOM     17  C   UNL     1      46.337   9.315  13.096  0.00  0.00    +0.000 C 
BRANCH  17  18
ATOM     18  N   UNL     1      47.452  10.249  13.298  0.00  0.00    +0.000 NA
ATOM     19  H   UNL     1      48.310   9.704  13.387  0.00  0.00    +0.000 HD
ATOM     20  H   UNL     1      47.330  10.720  14.194  0.00  0.00    +0.000 HD
ENDBRANCH  17  18
ENDBRANCH  16  17
ENDBRANCH   8  16
ENDBRANCH   7   8
ENDBRANCH   1   7
BRANCH   4  21
ATOM     21  C   UNL     1      48.290   5.208  17.923  0.00  0.00    +0.000 C 
BRANCH  21  22
ATOM     22  N   UNL     1      49.444   4.418  18.247  0.00  0.00    +0.000 N 
ATOM     23  C   UNL     1      50.686   5.005  18.297  0.00  0.00    +0.000 C 
ATOM     24  O   UNL     1      50.838   6.212  18.142  0.00  0.00    +0.000 OA
ATOM     25  H   UNL     1      49.367   3.411  18.143  0.00  0.00    +0.000 HD
BRANCH  23  26
ATOM     26  C   UNL     1      51.818   4.126  18.607  0.00  0.00    +0.000 A 
ATOM     27  C   UNL     1      52.832   4.589  19.436  0.00  0.00    +0.000 A 
ATOM     28  S   UNL     1      54.039   3.430  19.751  0.00  0.00    +0.000 S 
ATOM     29  C   UNL     1      53.283   2.285  18.739  0.00  0.00    +0.000 A 
ATOM     30  N   UNL     1      53.828   1.057  18.549  0.00  0.00    +0.000 NA
ATOM     31  C   UNL     1      53.164   0.302  17.738  0.00  0.00    +0.000 A 
ATOM     32  N   UNL     1      52.003   0.662  17.108  0.00  0.00    +0.000 N 
ATOM     33  C   UNL     1      51.403   1.884  17.290  0.00  0.00    +0.000 A 
ATOM     34  O   UNL     1      50.345   2.166  16.731  0.00  0.00    +0.000 OA
ATOM     35  C   UNL     1      52.113   2.777  18.187  0.00  0.00    +0.000 A 
ATOM     36  H   UNL     1      51.533   0.021  16.486  0.00  0.00    +0.000 HD
ENDBRANCH  23  26
ENDBRANCH  21  22
ENDBRANCH   4  21
TORSDOF 9
ENDMDL
MODEL 8
REMARK VINA RESULT:    -6.211      2.483      7.806
REMARK INTER + INTRA:         -10.600
REMARK INTER:                  -9.471
REMARK INTRA:                  -1.129
REMARK UNBOUND:                -1.302
REMARK  Name = 
REMARK  9 active torsions:
REMARK  status: ('A' for Active; 'I' for Inactive)
REMARK    1  A    between atoms: N_1  and  C_2
REMARK    2  A    between atoms: C_2  and  C_3
REMARK    3  A    between atoms: C_3  and  N_4
REMARK    4  A    between atoms: N_4  and  C_5
REMARK    5  A    between atoms: C_5  and  C_6
REMARK    6  A    between atoms: C_9  and  C_10
REMARK    7  A    between atoms: C_10  and  N_11
REMARK    8  A    between atoms: C_12  and  C_14
REMARK    9  A    between atoms: C_26  and  C_28
REMARK                            x       y       z     vdW  Elec       q    Type
REMARK                         _______ _______ _______ _____ _____    ______ ____
ROOT
ATOM      1  C   UNL     1      49.981   7.026  15.710  0.00  0.00    +0.000 A 
ATOM      2  C   UNL     1      48.713   6.557  15.344  0.00  0.00    +0.000 A 
ATOM      3  C   UNL     1      48.134   6.950  14.139  0.00  0.00    +0.000 A 
ATOM      4  C   UNL     1      48.826   7.803  13.270  0.00  0.00    +0.000 A 
ATOM      5  C   UNL     1      50.053   8.345  13.679  0.00  0.00    +0.000 A 
ATOM      6  C   UNL     1      50.630   7.955  14.889  0.00  0.00    +0.000 A 
ENDROOT
BRANCH   1   7
ATOM      7  C   UNL     1      50.631   6.518  16.970  0.00  0.00    +0.000 C 
BRANCH   7   8
ATOM      8  N   UNL     1      49.857   6.520  18.218  0.00  0.00    +0.000 N 
ATOM      9  C   UNL     1      49.117   5.387  18.634  0.00  0.00    +0.000 C 
ATOM     10  O   UNL     1      48.303   5.503  19.555  0.00  0.00    +0.000 OA
BRANCH   9  11
ATOM     11  C   UNL     1      49.290   4.104  17.939  0.00  0.00    +0.000 A 
ATOM     12  C   UNL     1      50.375   3.251  17.813  0.00  0.00    +0.000 A 
ATOM     13  C   UNL     1      50.115   2.134  16.965  0.00  0.00    +0.000 A 
ATOM     14  C   UNL     1      48.805   2.097  16.555  0.00  0.00    +0.000 A 
ATOM     15  S   UNL     1      47.913   3.429  17.146  0.00  0.00    +0.000 S 
ENDBRANCH   9  11
BRANCH   8  16
ATOM     16  C   UNL     1      49.611   7.773  18.958  0.00  0.00    +0.000 C 
BRANCH  16  17
ATOM     17  C   UNL     1      48.486   8.669  18.390  0.00  0.00    +0.000 C 
BRANCH  17  18
ATOM     18  N   UNL     1      48.929  10.020  18.022  0.00  0.00    +0.000 NA
ATOM     19  H   UNL     1      48.193  10.677  18.283  0.00  0.00    +0.000 HD
ATOM     20  H   UNL     1      49.003  10.078  17.006  0.00  0.00    +0.000 HD
ENDBRANCH  17  18
ENDBRANCH  16  17
ENDBRANCH   8  16
ENDBRANCH   7   8
ENDBRANCH   1   7
BRANCH   4  21
ATOM     21  C   UNL     1      48.276   8.108  11.903  0.00  0.00    +0.000 C 
BRANCH  21  22
ATOM     22  N   UNL     1      47.608   6.978  11.322  0.00  0.00    +0.000 N 
ATOM     23  C   UNL     1      46.234   6.918  11.322  0.00  0.00    +0.000 C 
ATOM     24  O   UNL     1      45.546   7.842  11.743  0.00  0.00    +0.000 OA
ATOM     25  H   UNL     1      48.149   6.129  11.193  0.00  0.00    +0.000 HD
BRANCH  23  26
ATOM     26  C   UNL     1      45.628   5.720  10.734  0.00  0.00    +0.000 A 
ATOM     27  C   UNL     1      45.790   5.471   9.377  0.00  0.00    +0.000 A 
ATOM     28  S   UNL     1      45.082   4.011   8.862  0.00  0.00    +0.000 S 
ATOM     29  C   UNL     1      44.478   3.687  10.422  0.00  0.00    +0.000 A 
ATOM     30  N   UNL     1      43.744   2.572  10.667  0.00  0.00    +0.000 NA
ATOM     31  C   UNL     1      43.329   2.468  11.886  0.00  0.00    +0.000 A 
ATOM     32  N   UNL     1      43.589   3.372  12.881  0.00  0.00    +0.000 N 
ATOM     33  C   UNL     1      44.346   4.500  12.685  0.00  0.00    +0.000 A 
ATOM     34  O   UNL     1      44.586   5.278  13.606  0.00  0.00    +0.000 OA
ATOM     35  C   UNL     1      44.832   4.672  11.327  0.00  0.00    +0.000 A 
ATOM     36  H   UNL     1      43.234   3.228  13.815  0.00  0.00    +0.000 HD
ENDBRANCH  23  26
ENDBRANCH  21  22
ENDBRANCH   4  21
TORSDOF 9
ENDMDL
MODEL 9
REMARK VINA RESULT:    -6.089      2.045      2.936
REMARK INTER + INTRA:         -10.417
REMARK INTER:                  -9.469
REMARK INTRA:                  -0.948
REMARK UNBOUND:                -1.302
REMARK  Name = 
REMARK  9 active torsions:
REMARK  status: ('A' for Active; 'I' for Inactive)
REMARK    1  A    between atoms: N_1  and  C_2
REMARK    2  A    between atoms: C_2  and  C_3
REMARK    3  A    between atoms: C_3  and  N_4
REMARK    4  A    between atoms: N_4  and  C_5
REMARK    5  A    between atoms: C_5  and  C_6
REMARK    6  A    between atoms: C_9  and  C_10
REMARK    7  A    between atoms: C_10  and  N_11
REMARK    8  A    between atoms: C_12  and  C_14
REMARK    9  A    between atoms: C_26  and  C_28
REMARK                            x       y       z     vdW  Elec       q    Type
REMARK                         _______ _______ _______ _____ _____    ______ ____
ROOT
ATOM      1  C   UNL     1      47.347   6.646  11.973  0.00  0.00    +0.000 A 
ATOM      2  C   UNL     1      48.232   7.663  11.589  0.00  0.00    +0.000 A 
ATOM      3  C   UNL     1      49.261   8.063  12.438  0.00  0.00    +0.000 A 
ATOM      4  C   UNL     1      49.435   7.436  13.678  0.00  0.00    +0.000 A 
ATOM      5  C   UNL     1      48.495   6.486  14.100  0.00  0.00    +0.000 A 
ATOM      6  C   UNL     1      47.461   6.089  13.252  0.00  0.00    +0.000 A 
ENDROOT
BRANCH   1   7
ATOM      7  C   UNL     1      46.299   6.162  11.006  0.00  0.00    +0.000 C 
BRANCH   7   8
ATOM      8  N   UNL     1      44.883   6.284  11.376  0.00  0.00    +0.000 N 
ATOM      9  C   UNL     1      43.887   5.475  10.779  0.00  0.00    +0.000 C 
ATOM     10  O   UNL     1      42.698   5.763  10.943  0.00  0.00    +0.000 OA
BRANCH   9  11
ATOM     11  C   UNL     1      44.277   4.337   9.936  0.00  0.00    +0.000 A 
ATOM     12  C   UNL     1      44.806   4.261   8.657  0.00  0.00    +0.000 A 
ATOM     13  C   UNL     1      44.959   2.921   8.192  0.00  0.00    +0.000 A 
ATOM     14  C   UNL     1      44.652   2.003   9.166  0.00  0.00    +0.000 A 
ATOM     15  S   UNL     1      44.133   2.753  10.610  0.00  0.00    +0.000 S 
ENDBRANCH   9  11
BRANCH   8  16
ATOM     16  C   UNL     1      44.406   7.416  12.194  0.00  0.00    +0.000 C 
BRANCH  16  17
ATOM     17  C   UNL     1      44.593   8.816  11.562  0.00  0.00    +0.000 C 
BRANCH  17  18
ATOM     18  N   UNL     1      44.548   9.918  12.530  0.00  0.00    +0.000 NA
ATOM     19  H   UNL     1      45.461  10.373  12.536  0.00  0.00    +0.000 HD
ATOM     20  H   UNL     1      44.427   9.531  13.466  0.00  0.00    +0.000 HD
ENDBRANCH  17  18
ENDBRANCH  16  17
ENDBRANCH   8  16
ENDBRANCH   7   8
ENDBRANCH   1   7
BRANCH   4  21
ATOM     21  C   UNL     1      50.633   7.756  14.532  0.00  0.00    +0.000 C 
BRANCH  21  22
ATOM     22  N   UNL     1      50.419   7.425  15.912  0.00  0.00    +0.000 N 
ATOM     23  C   UNL     1      51.378   6.728  16.608  0.00  0.00    +0.000 C 
ATOM     24  O   UNL     1      52.457   6.434  16.104  0.00  0.00    +0.000 OA
ATOM     25  H   UNL     1      49.465   7.451  16.258  0.00  0.00    +0.000 HD
BRANCH  23  26
ATOM     26  C   UNL     1      51.073   6.405  18.005  0.00  0.00    +0.000 A 
ATOM     27  C   UNL     1      51.811   7.005  19.018  0.00  0.00    +0.000 A 
ATOM     28  S   UNL     1      51.295   6.577  20.583  0.00  0.00    +0.000 S 
ATOM     29  C   UNL     1      50.106   5.524  19.965  0.00  0.00    +0.000 A 
ATOM     30  N   UNL     1      49.307   4.811  20.798  0.00  0.00    +0.000 NA
ATOM     31  C   UNL     1      48.470   4.034  20.193  0.00  0.00    +0.000 A 
ATOM     32  N   UNL     1      48.356   3.915  18.835  0.00  0.00    +0.000 N 
ATOM     33  C   UNL     1      49.126   4.634  17.954  0.00  0.00    +0.000 A 
ATOM     34  O   UNL     1      48.978   4.525  16.739  0.00  0.00    +0.000 OA
ATOM     35  C   UNL     1      50.091   5.519  18.581  0.00  0.00    +0.000 A 
ATOM     36  H   UNL     1      47.677   3.288  18.426  0.00  0.00    +0.000 HD
ENDBRANCH  23  26
ENDBRANCH  21  22
ENDBRANCH   4  21
TORSDOF 9
ENDMDL
