MODEL 1
REMARK VINA RESULT:    -7.131      0.000      0.000
REMARK INTER + INTRA:         -11.617
REMARK INTER:                 -10.049
REMARK INTRA:                  -1.568
REMARK UNBOUND:                -1.568
REMARK  Name = 
REMARK  8 active torsions:
REMARK  status: ('A' for Active; 'I' for Inactive)
REMARK    1  A    between atoms: C_1  and  C_2
REMARK    2  A    between atoms: C_2  and  N_3
REMARK    3  A    between atoms: N_3  and  C_4
REMARK    4  A    between atoms: C_4  and  C_5
REMARK    5  A    between atoms: C_8  and  C_9
REMARK    6  A    between atoms: C_9  and  N_10
REMARK    7  A    between atoms: N_10  and  C_11
REMARK    8  A    between atoms: C_18  and  C_20
REMARK                            x       y       z     vdW  Elec       q    Type
REMARK                         _______ _______ _______ _____ _____    ______ ____
ROOT
ATOM      1  N   UNL     1      46.189   7.318  12.414  0.00  0.00    +0.000 N 
ATOM      2  C   UNL     1      44.977   6.989  11.766  0.00  0.00    +0.000 C 
ATOM      3  O   UNL     1      44.282   7.847  11.279  0.00  0.00    +0.000 OA
ENDROOT
BRANCH   2   4
ATOM      4  C   UNL     1      44.569   5.574  11.699  0.00  0.00    +0.000 A 
ATOM      5  C   UNL     1      43.889   4.906  12.681  0.00  0.00    +0.000 A 
ATOM      6  S   UNL     1      43.488   3.300  12.289  0.00  0.00    +0.000 S 
ATOM      7  C   UNL     1      44.188   3.465  10.750  0.00  0.00    +0.000 A 
ATOM      8  N   UNL     1      44.104   2.464   9.831  0.00  0.00    +0.000 NA
ATOM      9  C   UNL     1      44.637   2.756   8.687  0.00  0.00    +0.000 A 
ATOM     10  N   UNL     1      45.295   3.922   8.400  0.00  0.00    +0.000 N 
ATOM     11  C   UNL     1      45.505   4.927   9.333  0.00  0.00    +0.000 A 
ATOM     12  O   UNL     1      46.260   5.841   9.109  0.00  0.00    +0.000 OA
ATOM     13  C   UNL     1      44.796   4.693  10.583  0.00  0.00    +0.000 A 
ATOM     14  H   UNL     1      45.720   4.077   7.499  0.00  0.00    +0.000 HD
ENDBRANCH   2   4
BRANCH   1  16
ATOM     15  C   UNL     1      47.955   9.173  12.144  0.00  0.00    +0.000 C 
ATOM     16  C   UNL     1      46.507   8.757  12.418  0.00  0.00    +0.000 C 
ENDBRANCH   1  16
BRANCH   1  17
ATOM     17  C   UNL     1      47.196   6.290  12.684  0.00  0.00    +0.000 C 
BRANCH  17  18
ATOM     18  C   UNL     1      47.422   5.825  14.089  0.00  0.00    +0.000 A 
ATOM     19  C   UNL     1      46.890   4.593  14.499  0.00  0.00    +0.000 A 
ATOM     20  C   UNL     1      47.303   4.008  15.687  0.00  0.00    +0.000 A 
ATOM     21  C   UNL     1      48.286   4.629  16.476  0.00  0.00    +0.000 A 
ATOM     22  C   UNL     1      48.721   5.915  16.118  0.00  0.00    +0.000 A 
ATOM     23  C   UNL     1      48.281   6.519  14.946  0.00  0.00    +0.000 A 
BRANCH  21  24
ATOM     24  C   UNL     1      48.930   3.937  17.649  0.00  0.00    +0.000 C 
BRANCH  24  25
ATOM     25  N   UNL     1      48.097   4.019  18.847  0.00  0.00    +0.000 NA
ATOM     26  H   UNL     1      47.599   3.145  18.985  0.00  0.00    +0.000 HD
BRANCH  25  27
ATOM     27  C   UNL     1      48.796   4.402  20.058  0.00  0.00    +0.000 C 
ATOM     28  C   UNL     1      49.454   5.768  19.876  0.00  0.00    +0.000 C 
ATOM     29  C   UNL     1      48.304   6.751  20.045  0.00  0.00    +0.000 C 
ATOM     30  C   UNL     1      47.319   6.024  20.952  0.00  0.00    +0.000 C 
ATOM     31  N   UNL     1      47.867   4.682  21.139  0.00  0.00    +0.000 NA
ATOM     32  H   UNL     1      47.146   3.980  21.232  0.00  0.00    +0.000 HD
ENDBRANCH  25  27
ENDBRANCH  24  25
ENDBRANCH  21  24
ENDBRANCH  17  18
ENDBRANCH   1  17
TORSDOF 7
ENDMDL
MODEL 2
REMARK VINA RESULT:    -6.600      3.230      8.279
REMARK INTER + INTRA:         -10.869
REMARK INTER:                  -9.473
REMARK INTRA:                  -1.395
REMARK UNBOUND:                -1.568
REMARK  Name = 
REMARK  8 active torsions:
REMARK  status: ('A' for Active; 'I' for Inactive)
REMARK    1  A    between atoms: C_1  and  C_2
REMARK    2  A    between atoms: C_2  and  N_3
REMARK    3  A    between atoms: N_3  and  C_4
REMARK    4  A    between atoms: C_4  and  C_5
REMARK    5  A    between atoms: C_8  and  C_9
REMARK    6  A    between atoms: C_9  and  N_10
REMARK    7  A    between atoms: N_10  and  C_11
REMARK    8  A    between atoms: C_18  and  C_20
REMARK                            x       y       z     vdW  Elec       q    Type
REMARK                         _______ _______ _______ _____ _____    ______ ____
ROOT
ATOM      1  N   UNL     1      48.957   7.560  13.596  0.00  0.00    +0.000 N 
ATOM      2  C   UNL     1      49.790   7.957  14.668  0.00  0.00    +0.000 C 
ATOM      3  O   UNL     1      50.990   7.991  14.539  0.00  0.00    +0.000 OA
ENDROOT
BRANCH   2   4
ATOM      4  C   UNL     1      49.168   8.325  15.952  0.00  0.00    +0.000 A 
ATOM      5  C   UNL     1      48.891   9.605  16.351  0.00  0.00    +0.000 A 
ATOM      6  S   UNL     1      48.099   9.716  17.852  0.00  0.00    +0.000 S 
ATOM      7  C   UNL     1      48.067   8.024  17.999  0.00  0.00    +0.000 A 
ATOM      8  N   UNL     1      47.424   7.422  19.037  0.00  0.00    +0.000 NA
ATOM      9  C   UNL     1      47.438   6.128  18.984  0.00  0.00    +0.000 A 
ATOM     10  N   UNL     1      48.083   5.387  18.032  0.00  0.00    +0.000 N 
ATOM     11  C   UNL     1      48.845   5.947  17.018  0.00  0.00    +0.000 A 
ATOM     12  O   UNL     1      49.563   5.268  16.325  0.00  0.00    +0.000 OA
ATOM     13  C   UNL     1      48.732   7.399  16.963  0.00  0.00    +0.000 A 
ATOM     14  H   UNL     1      48.087   4.379  18.064  0.00  0.00    +0.000 HD
ENDBRANCH   2   4
BRANCH   1  16
ATOM     15  C   UNL     1      49.978   8.353  11.369  0.00  0.00    +0.000 C 
ATOM     16  C   UNL     1      49.677   7.222  12.357  0.00  0.00    +0.000 C 
ENDBRANCH   1  16
BRANCH   1  17
ATOM     17  C   UNL     1      47.523   7.853  13.616  0.00  0.00    +0.000 C 
BRANCH  17  18
ATOM     18  C   UNL     1      46.539   6.752  13.368  0.00  0.00    +0.000 A 
ATOM     19  C   UNL     1      45.440   6.988  12.529  0.00  0.00    +0.000 A 
ATOM     20  C   UNL     1      44.671   5.932  12.061  0.00  0.00    +0.000 A 
ATOM     21  C   UNL     1      45.007   4.611  12.396  0.00  0.00    +0.000 A 
ATOM     22  C   UNL     1      46.033   4.394  13.330  0.00  0.00    +0.000 A 
ATOM     23  C   UNL     1      46.781   5.454  13.829  0.00  0.00    +0.000 A 
BRANCH  21  24
ATOM     24  C   UNL     1      44.351   3.424  11.740  0.00  0.00    +0.000 C 
BRANCH  24  25
ATOM     25  N   UNL     1      45.192   2.853  10.691  0.00  0.00    +0.000 NA
ATOM     26  H   UNL     1      45.755   2.098  11.067  0.00  0.00    +0.000 HD
BRANCH  25  27
ATOM     27  C   UNL     1      44.484   2.416   9.503  0.00  0.00    +0.000 C 
ATOM     28  C   UNL     1      44.598   3.472   8.404  0.00  0.00    +0.000 C 
ATOM     29  C   UNL     1      45.994   3.257   7.838  0.00  0.00    +0.000 C 
ATOM     30  C   UNL     1      46.282   1.784   8.097  0.00  0.00    +0.000 C 
ATOM     31  N   UNL     1      45.150   1.288   8.876  0.00  0.00    +0.000 NA
ATOM     32  H   UNL     1      45.419   0.571   9.535  0.00  0.00    +0.000 HD
ENDBRANCH  25  27
ENDBRANCH  24  25
ENDBRANCH  21  24
ENDBRANCH  17  18
ENDBRANCH   1  17
TORSDOF 7
ENDMDL
MODEL 3
REMARK VINA RESULT:    -6.514      3.183      8.489
REMARK INTER + INTRA:         -10.748
REMARK INTER:                  -9.170
REMARK INTRA:                  -1.578
REMARK UNBOUND:                -1.568
REMARK  Name = 
REMARK  8 active torsions:
REMARK  status: ('A' for Active; 'I' for Inactive)
REMARK    1  A    between atoms: C_1  and  C_2
REMARK    2  A    between atoms: C_2  and  N_3
REMARK    3  A    between atoms: N_3  and  C_4
REMARK    4  A    between atoms: C_4  and  C_5
REMARK    5  A    between atoms: C_8  and  C_9
REMARK    6  A    between atoms: C_9  and  N_10
REMARK    7  A    between atoms: N_10  and  C_11
REMARK    8  A    between atoms: C_18  and  C_20
REMARK                            x       y       z     vdW  Elec       q    Type
REMARK                         _______ _______ _______ _____ _____    ______ ____
ROOT
ATOM      1  N   UNL     1      49.357   7.734  14.041  0.00  0.00    +0.000 N 
ATOM      2  C   UNL     1      50.029   7.554  15.272  0.00  0.00    +0.000 C 
ATOM      3  O   UNL     1      51.179   7.897  15.406  0.00  0.00    +0.000 OA
ENDROOT
BRANCH   2   4
ATOM      4  C   UNL     1      49.302   6.931  16.392  0.00  0.00    +0.000 A 
ATOM      5  C   UNL     1      49.237   5.585  16.634  0.00  0.00    +0.000 A 
ATOM      6  S   UNL     1      48.389   5.167  18.048  0.00  0.00    +0.000 S 
ATOM      7  C   UNL     1      48.112   6.803  18.407  0.00  0.00    +0.000 A 
ATOM      8  N   UNL     1      47.508   7.173  19.570  0.00  0.00    +0.000 NA
ATOM      9  C   UNL     1      47.416   8.456  19.729  0.00  0.00    +0.000 A 
ATOM     10  N   UNL     1      47.811   9.392  18.813  0.00  0.00    +0.000 N 
ATOM     11  C   UNL     1      48.330   9.068  17.568  0.00  0.00    +0.000 A 
ATOM     12  O   UNL     1      48.474   9.906  16.711  0.00  0.00    +0.000 OA
ATOM     13  C   UNL     1      48.581   7.641  17.415  0.00  0.00    +0.000 A 
ATOM     14  H   UNL     1      47.681  10.378  18.980  0.00  0.00    +0.000 HD
ENDBRANCH   2   4
BRANCH   1  16
ATOM     15  C   UNL     1      50.316   7.642  11.652  0.00  0.00    +0.000 C 
ATOM     16  C   UNL     1      50.171   8.372  12.991  0.00  0.00    +0.000 C 
ENDBRANCH   1  16
BRANCH   1  17
ATOM     17  C   UNL     1      47.898   7.661  13.968  0.00  0.00    +0.000 C 
BRANCH  17  18
ATOM     18  C   UNL     1      47.249   6.566  13.180  0.00  0.00    +0.000 A 
ATOM     19  C   UNL     1      46.964   5.343  13.807  0.00  0.00    +0.000 A 
ATOM     20  C   UNL     1      46.128   4.418  13.199  0.00  0.00    +0.000 A 
ATOM     21  C   UNL     1      45.531   4.711  11.962  0.00  0.00    +0.000 A 
ATOM     22  C   UNL     1      45.918   5.882  11.289  0.00  0.00    +0.000 A 
ATOM     23  C   UNL     1      46.783   6.794  11.881  0.00  0.00    +0.000 A 
BRANCH  21  24
ATOM     24  C   UNL     1      44.449   3.848  11.368  0.00  0.00    +0.000 C 
BRANCH  24  25
ATOM     25  N   UNL     1      45.004   2.696  10.662  0.00  0.00    +0.000 NA
ATOM     26  H   UNL     1      44.968   1.873  11.255  0.00  0.00    +0.000 HD
BRANCH  25  27
ATOM     27  C   UNL     1      44.407   2.418   9.370  0.00  0.00    +0.000 C 
ATOM     28  C   UNL     1      44.540   3.634   8.456  0.00  0.00    +0.000 C 
ATOM     29  C   UNL     1      45.983   3.571   7.974  0.00  0.00    +0.000 C 
ATOM     30  C   UNL     1      46.332   2.089   8.030  0.00  0.00    +0.000 C 
ATOM     31  N   UNL     1      45.176   1.430   8.634  0.00  0.00    +0.000 NA
ATOM     32  H   UNL     1      45.436   0.632   9.196  0.00  0.00    +0.000 HD
ENDBRANCH  25  27
ENDBRANCH  24  25
ENDBRANCH  21  24
ENDBRANCH  17  18
ENDBRANCH   1  17
TORSDOF 7
ENDMDL
MODEL 4
REMARK VINA RESULT:    -6.213      3.396      7.872
REMARK INTER + INTRA:         -10.324
REMARK INTER:                  -8.872
REMARK INTRA:                  -1.452
REMARK UNBOUND:                -1.568
REMARK  Name = 
REMARK  8 active torsions:
REMARK  status: ('A' for Active; 'I' for Inactive)
REMARK    1  A    between atoms: C_1  and  C_2
REMARK    2  A    between atoms: C_2  and  N_3
REMARK    3  A    between atoms: N_3  and  C_4
REMARK    4  A    between atoms: C_4  and  C_5
REMARK    5  A    between atoms: C_8  and  C_9
REMARK    6  A    between atoms: C_9  and  N_10
REMARK    7  A    between atoms: N_10  and  C_11
REMARK    8  A    between atoms: C_18  and  C_20
REMARK                            x       y       z     vdW  Elec       q    Type
REMARK                         _______ _______ _______ _____ _____    ______ ____
ROOT
ATOM      1  N   UNL     1      49.150   7.514  16.309  0.00  0.00    +0.000 N 
ATOM      2  C   UNL     1      48.559   6.847  17.406  0.00  0.00    +0.000 C 
ATOM      3  O   UNL     1      48.054   7.468  18.310  0.00  0.00    +0.000 OA
ENDROOT
BRANCH   2   4
ATOM      4  C   UNL     1      48.573   5.373  17.433  0.00  0.00    +0.000 A 
ATOM      5  C   UNL     1      47.474   4.575  17.259  0.00  0.00    +0.000 A 
ATOM      6  S   UNL     1      47.811   2.907  17.263  0.00  0.00    +0.000 S 
ATOM      7  C   UNL     1      49.471   3.209  17.461  0.00  0.00    +0.000 A 
ATOM      8  N   UNL     1      50.375   2.191  17.443  0.00  0.00    +0.000 NA
ATOM      9  C   UNL     1      51.606   2.580  17.552  0.00  0.00    +0.000 A 
ATOM     10  N   UNL     1      52.008   3.875  17.738  0.00  0.00    +0.000 N 
ATOM     11  C   UNL     1      51.123   4.935  17.875  0.00  0.00    +0.000 A 
ATOM     12  O   UNL     1      51.500   6.022  18.240  0.00  0.00    +0.000 OA
ATOM     13  C   UNL     1      49.742   4.554  17.614  0.00  0.00    +0.000 A 
ATOM     14  H   UNL     1      52.981   4.112  17.850  0.00  0.00    +0.000 HD
ENDBRANCH   2   4
BRANCH   1  16
ATOM     15  C   UNL     1      50.269   9.789  15.857  0.00  0.00    +0.000 C 
ATOM     16  C   UNL     1      49.074   8.983  16.376  0.00  0.00    +0.000 C 
ENDBRANCH   1  16
BRANCH   1  17
ATOM     17  C   UNL     1      49.434   6.798  15.064  0.00  0.00    +0.000 C 
BRANCH  17  18
ATOM     18  C   UNL     1      48.388   6.725  13.996  0.00  0.00    +0.000 A 
ATOM     19  C   UNL     1      47.461   5.673  14.012  0.00  0.00    +0.000 A 
ATOM     20  C   UNL     1      46.326   5.721  13.215  0.00  0.00    +0.000 A 
ATOM     21  C   UNL     1      46.077   6.844  12.408  0.00  0.00    +0.000 A 
ATOM     22  C   UNL     1      47.068   7.834  12.309  0.00  0.00    +0.000 A 
ATOM     23  C   UNL     1      48.223   7.769  13.079  0.00  0.00    +0.000 A 
BRANCH  21  24
ATOM     24  C   UNL     1      44.762   7.050  11.702  0.00  0.00    +0.000 C 
BRANCH  24  25
ATOM     25  N   UNL     1      43.774   6.049  12.099  0.00  0.00    +0.000 NA
ATOM     26  H   UNL     1      43.039   6.484  12.648  0.00  0.00    +0.000 HD
BRANCH  25  27
ATOM     27  C   UNL     1      43.206   5.278  11.010  0.00  0.00    +0.000 C 
ATOM     28  C   UNL     1      44.318   4.640  10.181  0.00  0.00    +0.000 C 
ATOM     29  C   UNL     1      44.747   3.439  11.011  0.00  0.00    +0.000 C 
ATOM     30  C   UNL     1      43.501   3.067  11.804  0.00  0.00    +0.000 C 
ATOM     31  N   UNL     1      42.513   4.100  11.502  0.00  0.00    +0.000 NA
ATOM     32  H   UNL     1      41.907   4.297  12.286  0.00  0.00    +0.000 HD
ENDBRANCH  25  27
ENDBRANCH  24  25
ENDBRANCH  21  24
ENDBRANCH  17  18
ENDBRANCH   1  17
TORSDOF 7
ENDMDL
MODEL 5
REMARK VINA RESULT:    -6.201      1.714      2.293
REMARK INTER + INTRA:         -10.306
REMARK INTER:                  -9.449
REMARK INTRA:                  -0.858
REMARK UNBOUND:                -1.568
REMARK  Name = 
REMARK  8 active torsions:
REMARK  status: ('A' for Active; 'I' for Inactive)
REMARK    1  A    between atoms: C_1  and  C_2
REMARK    2  A    between atoms: C_2  and  N_3
REMARK    3  A    between atoms: N_3  and  C_4
REMARK    4  A    between atoms: C_4  and  C_5
REMARK    5  A    between atoms: C_8  and  C_9
REMARK    6  A    between atoms: C_9  and  N_10
REMARK    7  A    between atoms: N_10  and  C_11
REMARK    8  A    between atoms: C_18  and  C_20
REMARK                            x       y       z     vdW  Elec       q    Type
REMARK                         _______ _______ _______ _____ _____    ______ ____
ROOT
ATOM      1  N   UNL     1      46.117   6.716  12.834  0.00  0.00    +0.000 N 
ATOM      2  C   UNL     1      45.047   6.449  11.950  0.00  0.00    +0.000 C 
ATOM      3  O   UNL     1      44.471   7.347  11.384  0.00  0.00    +0.000 OA
ENDROOT
BRANCH   2   4
ATOM      4  C   UNL     1      44.640   5.049  11.732  0.00  0.00    +0.000 A 
ATOM      5  C   UNL     1      44.005   4.264  12.657  0.00  0.00    +0.000 A 
ATOM      6  S   UNL     1      43.589   2.714  12.094  0.00  0.00    +0.000 S 
ATOM      7  C   UNL     1      44.221   3.065  10.557  0.00  0.00    +0.000 A 
ATOM      8  N   UNL     1      44.099   2.180   9.530  0.00  0.00    +0.000 NA
ATOM      9  C   UNL     1      44.580   2.610   8.406  0.00  0.00    +0.000 A 
ATOM     10  N   UNL     1      45.222   3.806   8.232  0.00  0.00    +0.000 N 
ATOM     11  C   UNL     1      45.472   4.694   9.268  0.00  0.00    +0.000 A 
ATOM     12  O   UNL     1      46.215   5.634   9.121  0.00  0.00    +0.000 OA
ATOM     13  C   UNL     1      44.818   4.309  10.511  0.00  0.00    +0.000 A 
ATOM     14  H   UNL     1      45.607   4.070   7.339  0.00  0.00    +0.000 HD
ENDBRANCH   2   4
BRANCH   1  16
ATOM     15  C   UNL     1      47.613   8.696  12.144  0.00  0.00    +0.000 C 
ATOM     16  C   UNL     1      46.449   8.145  12.974  0.00  0.00    +0.000 C 
ENDBRANCH   1  16
BRANCH   1  17
ATOM     17  C   UNL     1      47.039   5.653  13.237  0.00  0.00    +0.000 C 
BRANCH  17  18
ATOM     18  C   UNL     1      47.464   5.545  14.668  0.00  0.00    +0.000 A 
ATOM     19  C   UNL     1      47.116   4.403  15.405  0.00  0.00    +0.000 A 
ATOM     20  C   UNL     1      47.717   4.144  16.629  0.00  0.00    +0.000 A 
ATOM     21  C   UNL     1      48.706   5.007  17.127  0.00  0.00    +0.000 A 
ATOM     22  C   UNL     1      48.959   6.207  16.442  0.00  0.00    +0.000 A 
ATOM     23  C   UNL     1      48.331   6.486  15.233  0.00  0.00    +0.000 A 
BRANCH  21  24
ATOM     24  C   UNL     1      49.545   4.660  18.329  0.00  0.00    +0.000 C 
BRANCH  24  25
ATOM     25  N   UNL     1      50.106   3.315  18.225  0.00  0.00    +0.000 NA
ATOM     26  H   UNL     1      49.394   2.663  17.913  0.00  0.00    +0.000 HD
BRANCH  25  27
ATOM     27  C   UNL     1      51.293   3.205  17.398  0.00  0.00    +0.000 C 
ATOM     28  C   UNL     1      52.116   4.488  17.485  0.00  0.00    +0.000 C 
ATOM     29  C   UNL     1      52.845   4.362  18.816  0.00  0.00    +0.000 C 
ATOM     30  C   UNL     1      52.968   2.859  19.035  0.00  0.00    +0.000 C 
ATOM     31  N   UNL     1      52.227   2.235  17.941  0.00  0.00    +0.000 NA
ATOM     32  H   UNL     1      51.784   1.371  18.219  0.00  0.00    +0.000 HD
ENDBRANCH  25  27
ENDBRANCH  24  25
ENDBRANCH  21  24
ENDBRANCH  17  18
ENDBRANCH   1  17
TORSDOF 7
ENDMDL
MODEL 6
REMARK VINA RESULT:    -6.015      3.531      7.667
REMARK INTER + INTRA:         -10.045
REMARK INTER:                  -8.525
REMARK INTRA:                  -1.520
REMARK UNBOUND:                -1.568
REMARK  Name = 
REMARK  8 active torsions:
REMARK  status: ('A' for Active; 'I' for Inactive)
REMARK    1  A    between atoms: C_1  and  C_2
REMARK    2  A    between atoms: C_2  and  N_3
REMARK    3  A    between atoms: N_3  and  C_4
REMARK    4  A    between atoms: C_4  and  C_5
REMARK    5  A    between atoms: C_8  and  C_9
REMARK    6  A    between atoms: C_9  and  N_10
REMARK    7  A    between atoms: N_10  and  C_11
REMARK    8  A    between atoms: C_18  and  C_20
REMARK                            x       y       z     vdW  Elec       q    Type
REMARK                         _______ _______ _______ _____ _____    ______ ____
ROOT
ATOM      1  N   UNL     1      48.719   8.151  17.714  0.00  0.00    +0.000 N 
ATOM      2  C   UNL     1      48.754   6.929  18.424  0.00  0.00    +0.000 C 
ATOM      3  O   UNL     1      47.966   6.704  19.310  0.00  0.00    +0.000 OA
ENDROOT
BRANCH   2   4
ATOM      4  C   UNL     1      49.778   5.931  18.067  0.00  0.00    +0.000 A 
ATOM      5  C   UNL     1      51.126   6.093  18.240  0.00  0.00    +0.000 A 
ATOM      6  S   UNL     1      52.058   4.737  17.807  0.00  0.00    +0.000 S 
ATOM      7  C   UNL     1      50.659   3.862  17.406  0.00  0.00    +0.000 A 
ATOM      8  N   UNL     1      50.732   2.552  17.044  0.00  0.00    +0.000 NA
ATOM      9  C   UNL     1      49.579   2.004  16.820  0.00  0.00    +0.000 A 
ATOM     10  N   UNL     1      48.377   2.656  16.863  0.00  0.00    +0.000 N 
ATOM     11  C   UNL     1      48.256   4.014  17.117  0.00  0.00    +0.000 A 
ATOM     12  O   UNL     1      47.211   4.593  16.945  0.00  0.00    +0.000 OA
ATOM     13  C   UNL     1      49.516   4.628  17.514  0.00  0.00    +0.000 A 
ATOM     14  H   UNL     1      47.515   2.182  16.645  0.00  0.00    +0.000 HD
ENDBRANCH   2   4
BRANCH   1  16
ATOM     15  C   UNL     1      47.942  10.578  18.091  0.00  0.00    +0.000 C 
ATOM     16  C   UNL     1      47.653   9.074  18.143  0.00  0.00    +0.000 C 
ENDBRANCH   1  16
BRANCH   1  17
ATOM     17  C   UNL     1      49.411   8.292  16.432  0.00  0.00    +0.000 C 
BRANCH  17  18
ATOM     18  C   UNL     1      48.684   7.984  15.160  0.00  0.00    +0.000 A 
ATOM     19  C   UNL     1      48.758   6.690  14.622  0.00  0.00    +0.000 A 
ATOM     20  C   UNL     1      47.890   6.296  13.613  0.00  0.00    +0.000 A 
ATOM     21  C   UNL     1      46.904   7.180  13.145  0.00  0.00    +0.000 A 
ATOM     22  C   UNL     1      46.917   8.506  13.604  0.00  0.00    +0.000 A 
ATOM     23  C   UNL     1      47.809   8.914  14.589  0.00  0.00    +0.000 A 
BRANCH  21  24
ATOM     24  C   UNL     1      45.801   6.735  12.220  0.00  0.00    +0.000 C 
BRANCH  24  25
ATOM     25  N   UNL     1      45.681   5.279  12.185  0.00  0.00    +0.000 NA
ATOM     26  H   UNL     1      46.585   4.850  12.351  0.00  0.00    +0.000 HD
BRANCH  25  27
ATOM     27  C   UNL     1      44.682   4.722  13.076  0.00  0.00    +0.000 C 
ATOM     28  C   UNL     1      43.304   5.290  12.744  0.00  0.00    +0.000 C 
ATOM     29  C   UNL     1      42.871   4.501  11.517  0.00  0.00    +0.000 C 
ATOM     30  C   UNL     1      43.602   3.170  11.650  0.00  0.00    +0.000 C 
ATOM     31  N   UNL     1      44.471   3.309  12.816  0.00  0.00    +0.000 NA
ATOM     32  H   UNL     1      45.334   2.792  12.718  0.00  0.00    +0.000 HD
ENDBRANCH  25  27
ENDBRANCH  24  25
ENDBRANCH  21  24
ENDBRANCH  17  18
ENDBRANCH   1  17
TORSDOF 7
ENDMDL
MODEL 7
REMARK VINA RESULT:    -5.849      3.827      8.800
REMARK INTER + INTRA:          -9.811
REMARK INTER:                  -8.501
REMARK INTRA:                  -1.309
REMARK UNBOUND:                -1.568
REMARK  Name = 
REMARK  8 active torsions:
REMARK  status: ('A' for Active; 'I' for Inactive)
REMARK    1  A    between atoms: C_1  and  C_2
REMARK    2  A    between atoms: C_2  and  N_3
REMARK    3  A    between atoms: N_3  and  C_4
REMARK    4  A    between atoms: C_4  and  C_5
REMARK    5  A    between atoms: C_8  and  C_9
REMARK    6  A    between atoms: C_9  and  N_10
REMARK    7  A    between atoms: N_10  and  C_11
REMARK    8  A    between atoms: C_18  and  C_20
REMARK                            x       y       z     vdW  Elec       q    Type
REMARK                         _______ _______ _______ _____ _____    ______ ____
ROOT
ATOM      1  N   UNL     1      48.008   5.649  16.399  0.00  0.00    +0.000 N 
ATOM      2  C   UNL     1      48.566   6.785  17.028  0.00  0.00    +0.000 C 
ATOM      3  O   UNL     1      48.593   6.876  18.232  0.00  0.00    +0.000 OA
ENDROOT
BRANCH   2   4
ATOM      4  C   UNL     1      49.112   7.865  16.188  0.00  0.00    +0.000 A 
ATOM      5  C   UNL     1      48.399   8.941  15.732  0.00  0.00    +0.000 A 
ATOM      6  S   UNL     1      49.317  10.067  14.847  0.00  0.00    +0.000 S 
ATOM      7  C   UNL     1      50.729   9.155  15.085  0.00  0.00    +0.000 A 
ATOM      8  N   UNL     1      51.939   9.612  14.660  0.00  0.00    +0.000 NA
ATOM      9  C   UNL     1      52.930   8.833  14.961  0.00  0.00    +0.000 A 
ATOM     10  N   UNL     1      52.815   7.622  15.586  0.00  0.00    +0.000 N 
ATOM     11  C   UNL     1      51.598   7.059  15.940  0.00  0.00    +0.000 A 
ATOM     12  O   UNL     1      51.520   5.909  16.299  0.00  0.00    +0.000 OA
ATOM     13  C   UNL     1      50.478   7.970  15.748  0.00  0.00    +0.000 A 
ATOM     14  H   UNL     1      53.622   7.044  15.763  0.00  0.00    +0.000 HD
ENDBRANCH   2   4
BRANCH   1  16
ATOM     15  C   UNL     1      47.778   3.155  17.002  0.00  0.00    +0.000 C 
ATOM     16  C   UNL     1      47.499   4.626  17.329  0.00  0.00    +0.000 C 
ENDBRANCH   1  16
BRANCH   1  17
ATOM     17  C   UNL     1      48.286   5.362  14.991  0.00  0.00    +0.000 C 
BRANCH  17  18
ATOM     18  C   UNL     1      47.189   5.483  13.980  0.00  0.00    +0.000 A 
ATOM     19  C   UNL     1      47.360   6.334  12.877  0.00  0.00    +0.000 A 
ATOM     20  C   UNL     1      46.496   6.265  11.793  0.00  0.00    +0.000 A 
ATOM     21  C   UNL     1      45.461   5.316  11.775  0.00  0.00    +0.000 A 
ATOM     22  C   UNL     1      45.225   4.555  12.931  0.00  0.00    +0.000 A 
ATOM     23  C   UNL     1      46.067   4.649  14.033  0.00  0.00    +0.000 A 
BRANCH  21  24
ATOM     24  C   UNL     1      44.641   5.046  10.540  0.00  0.00    +0.000 C 
BRANCH  24  25
ATOM     25  N   UNL     1      45.482   4.683   9.403  0.00  0.00    +0.000 NA
ATOM     26  H   UNL     1      46.288   4.153   9.720  0.00  0.00    +0.000 HD
BRANCH  25  27
ATOM     27  C   UNL     1      44.802   3.979   8.332  0.00  0.00    +0.000 C 
ATOM     28  C   UNL     1      45.813   3.494   7.296  0.00  0.00    +0.000 C 
ATOM     29  C   UNL     1      46.419   2.252   7.933  0.00  0.00    +0.000 C 
ATOM     30  C   UNL     1      45.322   1.728   8.851  0.00  0.00    +0.000 C 
ATOM     31  N   UNL     1      44.249   2.719   8.795  0.00  0.00    +0.000 NA
ATOM     32  H   UNL     1      43.754   2.802   9.672  0.00  0.00    +0.000 HD
ENDBRANCH  25  27
ENDBRANCH  24  25
ENDBRANCH  21  24
ENDBRANCH  17  18
ENDBRANCH   1  17
TORSDOF 7
ENDMDL
MODEL 8
REMARK VINA RESULT:    -5.833      3.308      8.261
REMARK INTER + INTRA:          -9.788
REMARK INTER:                  -8.172
REMARK INTRA:                  -1.616
REMARK UNBOUND:                -1.568
REMARK  Name = 
REMARK  8 active torsions:
REMARK  status: ('A' for Active; 'I' for Inactive)
REMARK    1  A    between atoms: C_1  and  C_2
REMARK    2  A    between atoms: C_2  and  N_3
REMARK    3  A    between atoms: N_3  and  C_4
REMARK    4  A    between atoms: C_4  and  C_5
REMARK    5  A    between atoms: C_8  and  C_9
REMARK    6  A    between atoms: C_9  and  N_10
REMARK    7  A    between atoms: N_10  and  C_11
REMARK    8  A    between atoms: C_18  and  C_20
REMARK                            x       y       z     vdW  Elec       q    Type
REMARK                         _______ _______ _______ _____ _____    ______ ____
ROOT
ATOM      1  N   UNL     1      50.047   7.565  15.175  0.00  0.00    +0.000 N 
ATOM      2  C   UNL     1      50.316   6.635  16.205  0.00  0.00    +0.000 C 
ATOM      3  O   UNL     1      51.448   6.297  16.456  0.00  0.00    +0.000 OA
ENDROOT
BRANCH   2   4
ATOM      4  C   UNL     1      49.186   6.076  16.968  0.00  0.00    +0.000 A 
ATOM      5  C   UNL     1      48.494   4.943  16.630  0.00  0.00    +0.000 A 
ATOM      6  S   UNL     1      47.289   4.498  17.745  0.00  0.00    +0.000 S 
ATOM      7  C   UNL     1      47.689   5.806  18.752  0.00  0.00    +0.000 A 
ATOM      8  N   UNL     1      47.092   5.966  19.964  0.00  0.00    +0.000 NA
ATOM      9  C   UNL     1      47.539   6.977  20.641  0.00  0.00    +0.000 A 
ATOM     10  N   UNL     1      48.474   7.870  20.194  0.00  0.00    +0.000 N 
ATOM     11  C   UNL     1      49.032   7.818  18.926  0.00  0.00    +0.000 A 
ATOM     12  O   UNL     1      49.693   8.731  18.494  0.00  0.00    +0.000 OA
ATOM     13  C   UNL     1      48.661   6.614  18.195  0.00  0.00    +0.000 A 
ATOM     14  H   UNL     1      48.757   8.658  20.756  0.00  0.00    +0.000 HD
ENDBRANCH   2   4
BRANCH   1  16
ATOM     15  C   UNL     1      51.137   9.401  13.734  0.00  0.00    +0.000 C 
ATOM     16  C   UNL     1      51.246   8.068  14.480  0.00  0.00    +0.000 C 
ENDBRANCH   1  16
BRANCH   1  17
ATOM     17  C   UNL     1      48.753   8.243  15.098  0.00  0.00    +0.000 C 
BRANCH  17  18
ATOM     18  C   UNL     1      47.865   8.011  13.915  0.00  0.00    +0.000 A 
ATOM     19  C   UNL     1      47.725   6.712  13.404  0.00  0.00    +0.000 A 
ATOM     20  C   UNL     1      46.715   6.416  12.499  0.00  0.00    +0.000 A 
ATOM     21  C   UNL     1      45.800   7.408  12.113  0.00  0.00    +0.000 A 
ATOM     22  C   UNL     1      46.021   8.728  12.536  0.00  0.00    +0.000 A 
ATOM     23  C   UNL     1      47.054   9.035  13.414  0.00  0.00    +0.000 A 
BRANCH  21  24
ATOM     24  C   UNL     1      44.560   7.091  11.318  0.00  0.00    +0.000 C 
BRANCH  24  25
ATOM     25  N   UNL     1      43.769   6.037  11.948  0.00  0.00    +0.000 NA
ATOM     26  H   UNL     1      43.106   6.442  12.601  0.00  0.00    +0.000 HD
BRANCH  25  27
ATOM     27  C   UNL     1      43.095   5.139  11.031  0.00  0.00    +0.000 C 
ATOM     28  C   UNL     1      44.106   4.498  10.082  0.00  0.00    +0.000 C 
ATOM     29  C   UNL     1      44.749   3.404  10.923  0.00  0.00    +0.000 C 
ATOM     30  C   UNL     1      43.674   3.029  11.935  0.00  0.00    +0.000 C 
ATOM     31  N   UNL     1      42.577   3.970  11.719  0.00  0.00    +0.000 NA
ATOM     32  H   UNL     1      42.089   4.198  12.574  0.00  0.00    +0.000 HD
ENDBRANCH  25  27
ENDBRANCH  24  25
ENDBRANCH  21  24
ENDBRANCH  17  18
ENDBRANCH   1  17
TORSDOF 7
ENDMDL
MODEL 9
REMARK VINA RESULT:    -5.485      3.842      8.182
REMARK INTER + INTRA:          -9.298
REMARK INTER:                  -7.829
REMARK INTRA:                  -1.469
REMARK UNBOUND:                -1.568
REMARK  Name = 
REMARK  8 active torsions:
REMARK  status: ('A' for Active; 'I' for Inactive)
REMARK    1  A    between atoms: C_1  and  C_2
REMARK    2  A    between atoms: C_2  and  N_3
REMARK    3  A    between atoms: N_3  and  C_4
REMARK    4  A    between atoms: C_4  and  C_5
REMARK    5  A    between atoms: C_8  and  C_9
REMARK    6  A    between atoms: C_9  and  N_10
REMARK    7  A    between atoms: N_10  and  C_11
REMARK    8  A    between atoms: C_18  and  C_20
REMARK                            x       y       z     vdW  Elec       q    Type
REMARK                         _______ _______ _______ _____ _____    ______ ____
ROOT
ATOM      1  N   UNL     1      51.012   7.964  15.220  0.00  0.00    +0.000 N 
ATOM      2  C   UNL     1      51.254   7.772  16.600  0.00  0.00    +0.000 C 
ATOM      3  O   UNL     1      52.378   7.645  17.020  0.00  0.00    +0.000 OA
ENDROOT
BRANCH   2   4
ATOM      4  C   UNL     1      50.105   7.725  17.522  0.00  0.00    +0.000 A 
ATOM      5  C   UNL     1      49.653   8.781  18.267  0.00  0.00    +0.000 A 
ATOM      6  S   UNL     1      48.258   8.447  19.182  0.00  0.00    +0.000 S 
ATOM      7  C   UNL     1      48.192   6.865  18.568  0.00  0.00    +0.000 A 
ATOM      8  N   UNL     1      47.154   6.038  18.872  0.00  0.00    +0.000 NA
ATOM      9  C   UNL     1      47.213   4.884  18.286  0.00  0.00    +0.000 A 
ATOM     10  N   UNL     1      48.237   4.462  17.483  0.00  0.00    +0.000 N 
ATOM     11  C   UNL     1      49.370   5.221  17.230  0.00  0.00    +0.000 A 
ATOM     12  O   UNL     1      50.338   4.743  16.690  0.00  0.00    +0.000 OA
ATOM     13  C   UNL     1      49.269   6.577  17.754  0.00  0.00    +0.000 A 
ATOM     14  H   UNL     1      48.243   3.537  17.082  0.00  0.00    +0.000 HD
ENDBRANCH   2   4
BRANCH   1  16
ATOM     15  C   UNL     1      52.612   9.339  13.743  0.00  0.00    +0.000 C 
ATOM     16  C   UNL     1      52.228   8.004  14.389  0.00  0.00    +0.000 C 
ENDBRANCH   1  16
BRANCH   1  17
ATOM     17  C   UNL     1      49.722   8.470  14.750  0.00  0.00    +0.000 C 
BRANCH  17  18
ATOM     18  C   UNL     1      48.942   7.685  13.741  0.00  0.00    +0.000 A 
ATOM     19  C   UNL     1      47.979   6.765  14.180  0.00  0.00    +0.000 A 
ATOM     20  C   UNL     1      47.058   6.230  13.290  0.00  0.00    +0.000 A 
ATOM     21  C   UNL     1      47.060   6.632  11.945  0.00  0.00    +0.000 A 
ATOM     22  C   UNL     1      48.102   7.459  11.492  0.00  0.00    +0.000 A 
ATOM     23  C   UNL     1      49.047   7.967  12.375  0.00  0.00    +0.000 A 
BRANCH  21  24
ATOM     24  C   UNL     1      45.954   6.260  10.993  0.00  0.00    +0.000 C 
BRANCH  24  25
ATOM     25  N   UNL     1      45.117   5.190  11.531  0.00  0.00    +0.000 NA
ATOM     26  H   UNL     1      44.934   5.352  12.516  0.00  0.00    +0.000 HD
BRANCH  25  27
ATOM     27  C   UNL     1      43.876   4.960  10.817  0.00  0.00    +0.000 C 
ATOM     28  C   UNL     1      44.116   4.024   9.634  0.00  0.00    +0.000 C 
ATOM     29  C   UNL     1      44.183   2.643  10.271  0.00  0.00    +0.000 C 
ATOM     30  C   UNL     1      43.331   2.768  11.527  0.00  0.00    +0.000 C 
ATOM     31  N   UNL     1      42.947   4.175  11.610  0.00  0.00    +0.000 NA
ATOM     32  H   UNL     1      42.869   4.500  12.564  0.00  0.00    +0.000 HD
ENDBRANCH  25  27
ENDBRANCH  24  25
ENDBRANCH  21  24
ENDBRANCH  17  18
ENDBRANCH   1  17
TORSDOF 7
ENDMDL
