MODEL 1
REMARK VINA RESULT:    -7.041      0.000      0.000
REMARK INTER + INTRA:          -9.428
REMARK INTER:                  -8.893
REMARK INTRA:                  -0.535
REMARK UNBOUND:                -0.535
REMARK  Name = 
REMARK  5 active torsions:
REMARK  status: ('A' for Active; 'I' for Inactive)
REMARK    1  A    between atoms: N_1  and  C_2
REMARK    2  A    between atoms: C_2  and  C_3
REMARK    3  A    between atoms: C_6  and  S_7
REMARK    4  A    between atoms: S_7  and  C_8
REMARK    5  A    between atoms: C_8  and  C_9
REMARK                            x       y       z     vdW  Elec       q    Type
REMARK                         _______ _______ _______ _____ _____    ______ ____
ROOT
ATOM      1  C   UNL     1      46.549   2.401   7.539  0.00  0.00    +0.000 A 
ATOM      2  C   UNL     1      46.389   3.792   7.567  0.00  0.00    +0.000 A 
ATOM      3  C   UNL     1      45.519   4.401   8.482  0.00  0.00    +0.000 A 
ATOM      4  C   UNL     1      44.776   3.632   9.382  0.00  0.00    +0.000 A 
ATOM      5  C   UNL     1      44.947   2.241   9.365  0.00  0.00    +0.000 A 
ATOM      6  C   UNL     1      45.819   1.631   8.452  0.00  0.00    +0.000 A 
ENDROOT
BRANCH   1   7
ATOM      7  C   UNL     1      47.473   1.753   6.538  0.00  0.00    +0.000 C 
BRANCH   7   8
ATOM      8  N   UNL     1      48.678   2.546   6.319  0.00  0.00    +0.000 NA
ATOM      9  H   UNL     1      48.803   3.185   7.102  0.00  0.00    +0.000 HD
ATOM     10  H   UNL     1      48.542   3.128   5.494  0.00  0.00    +0.000 HD
ENDBRANCH   7   8
ENDBRANCH   1   7
BRANCH   4  11
ATOM     11  S   UNL     1      43.666   4.330  10.605  0.00  0.00    +0.000 S 
BRANCH  11  12
ATOM     12  C   UNL     1      44.531   5.860  11.093  0.00  0.00    +0.000 C 
BRANCH  12  13
ATOM     13  C   UNL     1      45.664   5.604  12.059  0.00  0.00    +0.000 A 
ATOM     14  C   UNL     1      45.625   4.531  12.955  0.00  0.00    +0.000 A 
ATOM     15  C   UNL     1      46.711   4.315  13.790  0.00  0.00    +0.000 A 
ATOM     16  N   UNL     1      47.819   5.087  13.798  0.00  0.00    +0.000 NA
ATOM     17  C   UNL     1      47.834   6.127  12.941  0.00  0.00    +0.000 A 
ATOM     18  C   UNL     1      46.797   6.426  12.068  0.00  0.00    +0.000 A 
ENDBRANCH  12  13
ENDBRANCH  11  12
ENDBRANCH   4  11
TORSDOF 5
ENDMDL
MODEL 2
REMARK VINA RESULT:    -6.723      1.392      6.213
REMARK INTER + INTRA:          -9.027
REMARK INTER:                  -8.641
REMARK INTRA:                  -0.386
REMARK UNBOUND:                -0.535
REMARK  Name = 
REMARK  5 active torsions:
REMARK  status: ('A' for Active; 'I' for Inactive)
REMARK    1  A    between atoms: N_1  and  C_2
REMARK    2  A    between atoms: C_2  and  C_3
REMARK    3  A    between atoms: C_6  and  S_7
REMARK    4  A    between atoms: S_7  and  C_8
REMARK    5  A    between atoms: C_8  and  C_9
REMARK                            x       y       z     vdW  Elec       q    Type
REMARK                         _______ _______ _______ _____ _____    ______ ____
ROOT
ATOM      1  C   UNL     1      46.677   6.384  12.741  0.00  0.00    +0.000 A 
ATOM      2  C   UNL     1      46.287   5.148  13.272  0.00  0.00    +0.000 A 
ATOM      3  C   UNL     1      45.560   4.229  12.504  0.00  0.00    +0.000 A 
ATOM      4  C   UNL     1      45.191   4.529  11.189  0.00  0.00    +0.000 A 
ATOM      5  C   UNL     1      45.594   5.759  10.652  0.00  0.00    +0.000 A 
ATOM      6  C   UNL     1      46.324   6.678  11.419  0.00  0.00    +0.000 A 
ENDROOT
BRANCH   1   7
ATOM      7  C   UNL     1      47.442   7.376  13.581  0.00  0.00    +0.000 C 
BRANCH   7   8
ATOM      8  N   UNL     1      46.642   8.555  13.892  0.00  0.00    +0.000 NA
ATOM      9  H   UNL     1      47.021   9.006  14.722  0.00  0.00    +0.000 HD
ATOM     10  H   UNL     1      45.698   8.257  14.133  0.00  0.00    +0.000 HD
ENDBRANCH   7   8
ENDBRANCH   1   7
BRANCH   4  11
ATOM     11  S   UNL     1      44.290   3.399  10.128  0.00  0.00    +0.000 S 
BRANCH  11  12
ATOM     12  C   UNL     1      44.816   3.921   8.461  0.00  0.00    +0.000 C 
BRANCH  12  13
ATOM     13  C   UNL     1      45.842   2.992   7.858  0.00  0.00    +0.000 A 
ATOM     14  C   UNL     1      46.762   3.447   6.906  0.00  0.00    +0.000 A 
ATOM     15  C   UNL     1      47.711   2.563   6.417  0.00  0.00    +0.000 A 
ATOM     16  N   UNL     1      47.807   1.272   6.801  0.00  0.00    +0.000 NA
ATOM     17  C   UNL     1      46.903   0.845   7.705  0.00  0.00    +0.000 A 
ATOM     18  C   UNL     1      45.915   1.651   8.253  0.00  0.00    +0.000 A 
ENDBRANCH  12  13
ENDBRANCH  11  12
ENDBRANCH   4  11
TORSDOF 5
ENDMDL
MODEL 3
REMARK VINA RESULT:    -5.965      1.991      6.139
REMARK INTER + INTRA:          -8.068
REMARK INTER:                  -7.610
REMARK INTRA:                  -0.458
REMARK UNBOUND:                -0.535
REMARK  Name = 
REMARK  5 active torsions:
REMARK  status: ('A' for Active; 'I' for Inactive)
REMARK    1  A    between atoms: N_1  and  C_2
REMARK    2  A    between atoms: C_2  and  C_3
REMARK    3  A    between atoms: C_6  and  S_7
REMARK    4  A    between atoms: S_7  and  C_8
REMARK    5  A    between atoms: C_8  and  C_9
REMARK                            x       y       z     vdW  Elec       q    Type
REMARK                         _______ _______ _______ _____ _____    ______ ____
ROOT
ATOM      1  C   UNL     1      45.443   7.825  11.939  0.00  0.00    +0.000 A 
ATOM      2  C   UNL     1      44.271   7.293  11.388  0.00  0.00    +0.000 A 
ATOM      3  C   UNL     1      44.080   5.907  11.298  0.00  0.00    +0.000 A 
ATOM      4  C   UNL     1      45.063   5.019  11.744  0.00  0.00    +0.000 A 
ATOM      5  C   UNL     1      46.230   5.551  12.310  0.00  0.00    +0.000 A 
ATOM      6  C   UNL     1      46.421   6.937  12.403  0.00  0.00    +0.000 A 
ENDROOT
BRANCH   1   7
ATOM      7  C   UNL     1      45.649   9.318  12.014  0.00  0.00    +0.000 C 
BRANCH   7   8
ATOM      8  N   UNL     1      44.518   9.991  12.642  0.00  0.00    +0.000 NA
ATOM      9  H   UNL     1      43.759   9.323  12.765  0.00  0.00    +0.000 HD
ATOM     10  H   UNL     1      44.168  10.706  12.007  0.00  0.00    +0.000 HD
ENDBRANCH   7   8
ENDBRANCH   1   7
BRANCH   4  11
ATOM     11  S   UNL     1      44.886   3.235  11.697  0.00  0.00    +0.000 S 
BRANCH  11  12
ATOM     12  C   UNL     1      44.156   2.957  10.049  0.00  0.00    +0.000 C 
BRANCH  12  13
ATOM     13  C   UNL     1      45.197   2.868   8.958  0.00  0.00    +0.000 A 
ATOM     14  C   UNL     1      45.633   4.010   8.277  0.00  0.00    +0.000 A 
ATOM     15  C   UNL     1      46.622   3.878   7.316  0.00  0.00    +0.000 A 
ATOM     16  N   UNL     1      47.201   2.703   6.985  0.00  0.00    +0.000 NA
ATOM     17  C   UNL     1      46.757   1.611   7.639  0.00  0.00    +0.000 A 
ATOM     18  C   UNL     1      45.771   1.638   8.615  0.00  0.00    +0.000 A 
ENDBRANCH  12  13
ENDBRANCH  11  12
ENDBRANCH   4  11
TORSDOF 5
ENDMDL
MODEL 4
REMARK VINA RESULT:    -5.188      2.536      6.580
REMARK INTER + INTRA:          -7.088
REMARK INTER:                  -6.735
REMARK INTRA:                  -0.353
REMARK UNBOUND:                -0.535
REMARK  Name = 
REMARK  5 active torsions:
REMARK  status: ('A' for Active; 'I' for Inactive)
REMARK    1  A    between atoms: N_1  and  C_2
REMARK    2  A    between atoms: C_2  and  C_3
REMARK    3  A    between atoms: C_6  and  S_7
REMARK    4  A    between atoms: S_7  and  C_8
REMARK    5  A    between atoms: C_8  and  C_9
REMARK                            x       y       z     vdW  Elec       q    Type
REMARK                         _______ _______ _______ _____ _____    ______ ____
ROOT
ATOM      1  C   UNL     1      47.628   4.697  16.036  0.00  0.00    +0.000 A 
ATOM      2  C   UNL     1      48.322   5.877  15.747  0.00  0.00    +0.000 A 
ATOM      3  C   UNL     1      48.201   6.499  14.496  0.00  0.00    +0.000 A 
ATOM      4  C   UNL     1      47.393   5.947  13.498  0.00  0.00    +0.000 A 
ATOM      5  C   UNL     1      46.685   4.773  13.792  0.00  0.00    +0.000 A 
ATOM      6  C   UNL     1      46.804   4.152  15.044  0.00  0.00    +0.000 A 
ENDROOT
BRANCH   1   7
ATOM      7  C   UNL     1      47.779   4.023  17.378  0.00  0.00    +0.000 C 
BRANCH   7   8
ATOM      8  N   UNL     1      46.712   3.059  17.623  0.00  0.00    +0.000 NA
ATOM      9  H   UNL     1      47.086   2.117  17.529  0.00  0.00    +0.000 HD
ATOM     10  H   UNL     1      46.005   3.160  16.896  0.00  0.00    +0.000 HD
ENDBRANCH   7   8
ENDBRANCH   1   7
BRANCH   4  11
ATOM     11  S   UNL     1      47.157   6.693  11.885  0.00  0.00    +0.000 S 
BRANCH  11  12
ATOM     12  C   UNL     1      45.391   6.375  11.560  0.00  0.00    +0.000 C 
BRANCH  12  13
ATOM     13  C   UNL     1      45.172   5.208  10.625  0.00  0.00    +0.000 A 
ATOM     14  C   UNL     1      44.417   4.097  11.016  0.00  0.00    +0.000 A 
ATOM     15  C   UNL     1      44.210   3.074  10.104  0.00  0.00    +0.000 A 
ATOM     16  N   UNL     1      44.700   3.076   8.845  0.00  0.00    +0.000 NA
ATOM     17  C   UNL     1      45.439   4.146   8.490  0.00  0.00    +0.000 A 
ATOM     18  C   UNL     1      45.704   5.219   9.330  0.00  0.00    +0.000 A 
ENDBRANCH  12  13
ENDBRANCH  11  12
ENDBRANCH   4  11
TORSDOF 5
ENDMDL
MODEL 5
REMARK VINA RESULT:    -5.170      1.725      2.727
REMARK INTER + INTRA:          -7.065
REMARK INTER:                  -6.780
REMARK INTRA:                  -0.285
REMARK UNBOUND:                -0.535
REMARK  Name = 
REMARK  5 active torsions:
REMARK  status: ('A' for Active; 'I' for Inactive)
REMARK    1  A    between atoms: N_1  and  C_2
REMARK    2  A    between atoms: C_2  and  C_3
REMARK    3  A    between atoms: C_6  and  S_7
REMARK    4  A    between atoms: S_7  and  C_8
REMARK    5  A    between atoms: C_8  and  C_9
REMARK                            x       y       z     vdW  Elec       q    Type
REMARK                         _______ _______ _______ _____ _____    ______ ____
ROOT
ATOM      1  C   UNL     1      45.413   3.668   8.530  0.00  0.00    +0.000 A 
ATOM      2  C   UNL     1      44.811   2.782   9.431  0.00  0.00    +0.000 A 
ATOM      3  C   UNL     1      44.528   3.170  10.747  0.00  0.00    +0.000 A 
ATOM      4  C   UNL     1      44.854   4.452  11.200  0.00  0.00    +0.000 A 
ATOM      5  C   UNL     1      45.443   5.345  10.295  0.00  0.00    +0.000 A 
ATOM      6  C   UNL     1      45.724   4.958   8.977  0.00  0.00    +0.000 A 
ENDROOT
BRANCH   1   7
ATOM      7  C   UNL     1      45.733   3.235   7.120  0.00  0.00    +0.000 C 
BRANCH   7   8
ATOM      8  N   UNL     1      46.813   4.027   6.542  0.00  0.00    +0.000 NA
ATOM      9  H   UNL     1      46.878   4.914   7.038  0.00  0.00    +0.000 HD
ATOM     10  H   UNL     1      46.572   4.255   5.578  0.00  0.00    +0.000 HD
ENDBRANCH   7   8
ENDBRANCH   1   7
BRANCH   4  11
ATOM     11  S   UNL     1      44.498   5.041  12.856  0.00  0.00    +0.000 S 
BRANCH  11  12
ATOM     12  C   UNL     1      44.892   6.818  12.734  0.00  0.00    +0.000 C 
BRANCH  12  13
ATOM     13  C   UNL     1      46.374   7.094  12.836  0.00  0.00    +0.000 A 
ATOM     14  C   UNL     1      46.945   8.217  12.230  0.00  0.00    +0.000 A 
ATOM     15  C   UNL     1      48.303   8.447  12.392  0.00  0.00    +0.000 A 
ATOM     16  N   UNL     1      49.123   7.645  13.104  0.00  0.00    +0.000 NA
ATOM     17  C   UNL     1      48.559   6.558  13.668  0.00  0.00    +0.000 A 
ATOM     18  C   UNL     1      47.213   6.240  13.562  0.00  0.00    +0.000 A 
ENDBRANCH  12  13
ENDBRANCH  11  12
ENDBRANCH   4  11
TORSDOF 5
ENDMDL
MODEL 6
REMARK VINA RESULT:    -4.733      3.687      5.184
REMARK INTER + INTRA:          -6.513
REMARK INTER:                  -6.171
REMARK INTRA:                  -0.341
REMARK UNBOUND:                -0.535
REMARK  Name = 
REMARK  5 active torsions:
REMARK  status: ('A' for Active; 'I' for Inactive)
REMARK    1  A    between atoms: N_1  and  C_2
REMARK    2  A    between atoms: C_2  and  C_3
REMARK    3  A    between atoms: C_6  and  S_7
REMARK    4  A    between atoms: S_7  and  C_8
REMARK    5  A    between atoms: C_8  and  C_9
REMARK                            x       y       z     vdW  Elec       q    Type
REMARK                         _______ _______ _______ _____ _____    ______ ____
ROOT
ATOM      1  C   UNL     1      44.805   3.927  11.339  0.00  0.00    +0.000 A 
ATOM      2  C   UNL     1      45.151   5.128  10.709  0.00  0.00    +0.000 A 
ATOM      3  C   UNL     1      46.020   6.041  11.322  0.00  0.00    +0.000 A 
ATOM      4  C   UNL     1      46.554   5.781  12.587  0.00  0.00    +0.000 A 
ATOM      5  C   UNL     1      46.221   4.571  13.212  0.00  0.00    +0.000 A 
ATOM      6  C   UNL     1      45.353   3.656  12.599  0.00  0.00    +0.000 A 
ENDROOT
BRANCH   1   7
ATOM      7  C   UNL     1      43.853   2.959  10.681  0.00  0.00    +0.000 C 
BRANCH   7   8
ATOM      8  N   UNL     1      43.023   2.265  11.660  0.00  0.00    +0.000 NA
ATOM      9  H   UNL     1      43.566   1.516  12.086  0.00  0.00    +0.000 HD
ATOM     10  H   UNL     1      42.249   1.815  11.173  0.00  0.00    +0.000 HD
ENDBRANCH   7   8
ENDBRANCH   1   7
BRANCH   4  11
ATOM     11  S   UNL     1      47.697   6.877  13.428  0.00  0.00    +0.000 S 
BRANCH  11  12
ATOM     12  C   UNL     1      47.718   8.337  12.335  0.00  0.00    +0.000 C 
BRANCH  12  13
ATOM     13  C   UNL     1      49.099   8.648  11.806  0.00  0.00    +0.000 A 
ATOM     14  C   UNL     1      50.020   7.629  11.540  0.00  0.00    +0.000 A 
ATOM     15  C   UNL     1      51.258   7.966  11.015  0.00  0.00    +0.000 A 
ATOM     16  N   UNL     1      51.641   9.232  10.742  0.00  0.00    +0.000 NA
ATOM     17  C   UNL     1      50.749  10.203  11.020  0.00  0.00    +0.000 A 
ATOM     18  C   UNL     1      49.487   9.968  11.549  0.00  0.00    +0.000 A 
ENDBRANCH  12  13
ENDBRANCH  11  12
ENDBRANCH   4  11
TORSDOF 5
ENDMDL
MODEL 7
REMARK VINA RESULT:    -4.488      4.036      5.339
REMARK INTER + INTRA:          -6.203
REMARK INTER:                  -5.821
REMARK INTRA:                  -0.382
REMARK UNBOUND:                -0.535
REMARK  Name = 
REMARK  5 active torsions:
REMARK  status: ('A' for Active; 'I' for Inactive)
REMARK    1  A    between atoms: N_1  and  C_2
REMARK    2  A    between atoms: C_2  and  C_3
REMARK    3  A    between atoms: C_6  and  S_7
REMARK    4  A    between atoms: S_7  and  C_8
REMARK    5  A    between atoms: C_8  and  C_9
REMARK                            x       y       z     vdW  Elec       q    Type
REMARK                         _______ _______ _______ _____ _____    ______ ____
ROOT
ATOM      1  C   UNL     1      44.665   4.518  12.130  0.00  0.00    +0.000 A 
ATOM      2  C   UNL     1      44.991   5.516  11.204  0.00  0.00    +0.000 A 
ATOM      3  C   UNL     1      46.157   6.280  11.346  0.00  0.00    +0.000 A 
ATOM      4  C   UNL     1      47.019   6.075  12.427  0.00  0.00    +0.000 A 
ATOM      5  C   UNL     1      46.701   5.066  13.347  0.00  0.00    +0.000 A 
ATOM      6  C   UNL     1      45.536   4.299  13.204  0.00  0.00    +0.000 A 
ENDROOT
BRANCH   1   7
ATOM      7  C   UNL     1      43.397   3.713  11.980  0.00  0.00    +0.000 C 
BRANCH   7   8
ATOM      8  N   UNL     1      43.549   2.361  12.508  0.00  0.00    +0.000 NA
ATOM      9  H   UNL     1      44.453   2.283  12.968  0.00  0.00    +0.000 HD
ATOM     10  H   UNL     1      43.567   1.706  11.728  0.00  0.00    +0.000 HD
ENDBRANCH   7   8
ENDBRANCH   1   7
BRANCH   4  11
ATOM     11  S   UNL     1      48.546   6.984  12.668  0.00  0.00    +0.000 S 
BRANCH  11  12
ATOM     12  C   UNL     1      48.337   7.667  14.346  0.00  0.00    +0.000 C 
BRANCH  12  13
ATOM     13  C   UNL     1      49.229   6.994  15.363  0.00  0.00    +0.000 A 
ATOM     14  C   UNL     1      48.720   6.053  16.265  0.00  0.00    +0.000 A 
ATOM     15  C   UNL     1      49.590   5.433  17.148  0.00  0.00    +0.000 A 
ATOM     16  N   UNL     1      50.916   5.682  17.198  0.00  0.00    +0.000 NA
ATOM     17  C   UNL     1      51.388   6.603  16.334  0.00  0.00    +0.000 A 
ATOM     18  C   UNL     1      50.599   7.279  15.414  0.00  0.00    +0.000 A 
ENDBRANCH  12  13
ENDBRANCH  11  12
ENDBRANCH   4  11
TORSDOF 5
ENDMDL
MODEL 8
REMARK VINA RESULT:    -4.400      3.719      5.262
REMARK INTER + INTRA:          -6.092
REMARK INTER:                  -5.652
REMARK INTRA:                  -0.440
REMARK UNBOUND:                -0.535
REMARK  Name = 
REMARK  5 active torsions:
REMARK  status: ('A' for Active; 'I' for Inactive)
REMARK    1  A    between atoms: N_1  and  C_2
REMARK    2  A    between atoms: C_2  and  C_3
REMARK    3  A    between atoms: C_6  and  S_7
REMARK    4  A    between atoms: S_7  and  C_8
REMARK    5  A    between atoms: C_8  and  C_9
REMARK                            x       y       z     vdW  Elec       q    Type
REMARK                         _______ _______ _______ _____ _____    ______ ____
ROOT
ATOM      1  C   UNL     1      44.819   4.974  11.244  0.00  0.00    +0.000 A 
ATOM      2  C   UNL     1      45.047   4.749  12.607  0.00  0.00    +0.000 A 
ATOM      3  C   UNL     1      46.139   5.333  13.263  0.00  0.00    +0.000 A 
ATOM      4  C   UNL     1      47.039   6.146  12.568  0.00  0.00    +0.000 A 
ATOM      5  C   UNL     1      46.802   6.385  11.207  0.00  0.00    +0.000 A 
ATOM      6  C   UNL     1      45.709   5.803  10.551  0.00  0.00    +0.000 A 
ENDROOT
BRANCH   1   7
ATOM      7  C   UNL     1      43.652   4.325  10.541  0.00  0.00    +0.000 C 
BRANCH   7   8
ATOM      8  N   UNL     1      43.725   4.501   9.095  0.00  0.00    +0.000 NA
ATOM      9  H   UNL     1      44.314   5.305   8.886  0.00  0.00    +0.000 HD
ATOM     10  H   UNL     1      42.796   4.729   8.745  0.00  0.00    +0.000 HD
ENDBRANCH   7   8
ENDBRANCH   1   7
BRANCH   4  11
ATOM     11  S   UNL     1      48.442   6.958  13.336  0.00  0.00    +0.000 S 
BRANCH  11  12
ATOM     12  C   UNL     1      47.679   8.436  14.084  0.00  0.00    +0.000 C 
BRANCH  12  13
ATOM     13  C   UNL     1      46.935   9.281  13.076  0.00  0.00    +0.000 A 
ATOM     14  C   UNL     1      45.550   9.166  12.915  0.00  0.00    +0.000 A 
ATOM     15  C   UNL     1      44.911   9.995  12.008  0.00  0.00    +0.000 A 
ATOM     16  N   UNL     1      45.546  10.919  11.254  0.00  0.00    +0.000 NA
ATOM     17  C   UNL     1      46.882  11.005  11.408  0.00  0.00    +0.000 A 
ATOM     18  C   UNL     1      47.613  10.219  12.288  0.00  0.00    +0.000 A 
ENDBRANCH  12  13
ENDBRANCH  11  12
ENDBRANCH   4  11
TORSDOF 5
ENDMDL
MODEL 9
REMARK VINA RESULT:    -4.311      2.685      6.304
REMARK INTER + INTRA:          -5.979
REMARK INTER:                  -5.586
REMARK INTRA:                  -0.393
REMARK UNBOUND:                -0.535
REMARK  Name = 
REMARK  5 active torsions:
REMARK  status: ('A' for Active; 'I' for Inactive)
REMARK    1  A    between atoms: N_1  and  C_2
REMARK    2  A    between atoms: C_2  and  C_3
REMARK    3  A    between atoms: C_6  and  S_7
REMARK    4  A    between atoms: S_7  and  C_8
REMARK    5  A    between atoms: C_8  and  C_9
REMARK                            x       y       z     vdW  Elec       q    Type
REMARK                         _______ _______ _______ _____ _____    ______ ____
ROOT
ATOM      1  C   UNL     1      49.427   8.390  13.179  0.00  0.00    +0.000 A 
ATOM      2  C   UNL     1      49.214   7.515  12.107  0.00  0.00    +0.000 A 
ATOM      3  C   UNL     1      47.918   7.147  11.721  0.00  0.00    +0.000 A 
ATOM      4  C   UNL     1      46.802   7.633  12.408  0.00  0.00    +0.000 A 
ATOM      5  C   UNL     1      47.013   8.521  13.471  0.00  0.00    +0.000 A 
ATOM      6  C   UNL     1      48.309   8.893  13.857  0.00  0.00    +0.000 A 
ENDROOT
BRANCH   1   7
ATOM      7  C   UNL     1      50.826   8.766  13.600  0.00  0.00    +0.000 C 
BRANCH   7   8
ATOM      8  N   UNL     1      51.835   8.054  12.824  0.00  0.00    +0.000 NA
ATOM      9  H   UNL     1      52.497   7.614  13.461  0.00  0.00    +0.000 HD
ATOM     10  H   UNL     1      52.369   8.731  12.281  0.00  0.00    +0.000 HD
ENDBRANCH   7   8
ENDBRANCH   1   7
BRANCH   4  11
ATOM     11  S   UNL     1      45.111   7.239  11.961  0.00  0.00    +0.000 S 
BRANCH  11  12
ATOM     12  C   UNL     1      45.018   5.452  12.312  0.00  0.00    +0.000 C 
BRANCH  12  13
ATOM     13  C   UNL     1      44.952   4.615  11.055  0.00  0.00    +0.000 A 
ATOM     14  C   UNL     1      44.413   3.324  11.071  0.00  0.00    +0.000 A 
ATOM     15  C   UNL     1      44.335   2.616   9.882  0.00  0.00    +0.000 A 
ATOM     16  N   UNL     1      44.755   3.096   8.691  0.00  0.00    +0.000 NA
ATOM     17  C   UNL     1      45.287   4.335   8.696  0.00  0.00    +0.000 A 
ATOM     18  C   UNL     1      45.410   5.121   9.833  0.00  0.00    +0.000 A 
ENDBRANCH  12  13
ENDBRANCH  11  12
ENDBRANCH   4  11
TORSDOF 5
ENDMDL
