MODEL 1
REMARK VINA RESULT:    -8.171      0.000      0.000
REMARK INTER + INTRA:         -12.310
REMARK INTER:                 -11.515
REMARK INTRA:                  -0.795
REMARK UNBOUND:                -0.795
REMARK  Name = 
REMARK  8 active torsions:
REMARK  status: ('A' for Active; 'I' for Inactive)
REMARK    1  A    between atoms: N_1  and  C_2
REMARK    2  A    between atoms: C_2  and  C_3
REMARK    3  A    between atoms: C_6  and  O_7
REMARK    4  A    between atoms: O_7  and  C_8
REMARK    5  A    between atoms: C_8  and  C_9
REMARK    6  A    between atoms: C_9  and  O_10
REMARK    7  A    between atoms: C_9  and  C_11
REMARK    8  A    between atoms: C_14  and  C_15
REMARK                            x       y       z     vdW  Elec       q    Type
REMARK                         _______ _______ _______ _____ _____    ______ ____
ROOT
ATOM      1  C   UNL     1      43.412   5.240  12.247  0.00  0.00    +0.000 C 
ENDROOT
BRANCH   1   2
ATOM      2  C   UNL     1      44.832   5.652  12.572  0.00  0.00    +0.000 A 
ATOM      3  C   UNL     1      45.644   4.920  13.448  0.00  0.00    +0.000 A 
ATOM      4  C   UNL     1      46.966   5.313  13.693  0.00  0.00    +0.000 A 
ATOM      5  C   UNL     1      47.501   6.452  13.078  0.00  0.00    +0.000 A 
ATOM      6  C   UNL     1      46.687   7.211  12.240  0.00  0.00    +0.000 A 
ATOM      7  C   UNL     1      45.371   6.814  12.005  0.00  0.00    +0.000 A 
ATOM      8  F   UNL     1      44.612   7.583  11.212  0.00  0.00    +0.000 F 
BRANCH   5   9
ATOM      9  C   UNL     1      48.928   6.786  13.353  0.00  0.00    +0.000 C 
ATOM     10  N   UNL     1      49.737   7.126  12.306  0.00  0.00    +0.000 N 
ATOM     11  O   UNL     1      49.382   6.749  14.490  0.00  0.00    +0.000 OA
ATOM     12  H   UNL     1      49.464   7.168  11.339  0.00  0.00    +0.000 HD
ATOM     13  H   UNL     1      50.704   7.326  12.533  0.00  0.00    +0.000 HD
ENDBRANCH   5   9
ENDBRANCH   1   2
BRANCH   1  14
ATOM     14  O   UNL     1      42.674   4.961  13.444  0.00  0.00    +0.000 OA
ATOM     15  H   UNL     1      43.261   4.406  13.992  0.00  0.00    +0.000 HD
ENDBRANCH   1  14
BRANCH   1  16
ATOM     16  C   UNL     1      43.307   4.021  11.305  0.00  0.00    +0.000 C 
BRANCH  16  17
ATOM     17  O   UNL     1      43.560   4.426   9.949  0.00  0.00    +0.000 OA
BRANCH  17  21
ATOM     18  C   UNL     1      46.477   2.347   7.772  0.00  0.00    +0.000 A 
ATOM     19  C   UNL     1      45.649   1.641   8.653  0.00  0.00    +0.000 A 
ATOM     20  C   UNL     1      44.660   2.296   9.390  0.00  0.00    +0.000 A 
ATOM     21  C   UNL     1      44.480   3.675   9.263  0.00  0.00    +0.000 A 
ATOM     22  C   UNL     1      45.294   4.384   8.377  0.00  0.00    +0.000 A 
ATOM     23  C   UNL     1      46.286   3.729   7.637  0.00  0.00    +0.000 A 
BRANCH  18  24
ATOM     24  C   UNL     1      47.570   1.632   7.020  0.00  0.00    +0.000 C 
BRANCH  24  25
ATOM     25  N   UNL     1      48.529   2.567   6.440  0.00  0.00    +0.000 NA
ATOM     26  H   UNL     1      48.054   3.141   5.745  0.00  0.00    +0.000 HD
ATOM     27  H   UNL     1      49.241   2.037   5.940  0.00  0.00    +0.000 HD
ENDBRANCH  24  25
ENDBRANCH  18  24
ENDBRANCH  17  21
ENDBRANCH  16  17
ENDBRANCH   1  16
TORSDOF 8
ENDMDL
MODEL 2
REMARK VINA RESULT:    -7.796      2.127      6.117
REMARK INTER + INTRA:         -11.782
REMARK INTER:                 -10.932
REMARK INTRA:                  -0.850
REMARK UNBOUND:                -0.795
REMARK  Name = 
REMARK  8 active torsions:
REMARK  status: ('A' for Active; 'I' for Inactive)
REMARK    1  A    between atoms: N_1  and  C_2
REMARK    2  A    between atoms: C_2  and  C_3
REMARK    3  A    between atoms: C_6  and  O_7
REMARK    4  A    between atoms: O_7  and  C_8
REMARK    5  A    between atoms: C_8  and  C_9
REMARK    6  A    between atoms: C_9  and  O_10
REMARK    7  A    between atoms: C_9  and  C_11
REMARK    8  A    between atoms: C_14  and  C_15
REMARK                            x       y       z     vdW  Elec       q    Type
REMARK                         _______ _______ _______ _____ _____    ______ ____
ROOT
ATOM      1  C   UNL     1      43.587   4.108  10.517  0.00  0.00    +0.000 C 
ENDROOT
BRANCH   1   2
ATOM      2  C   UNL     1      44.609   3.657   9.494  0.00  0.00    +0.000 A 
ATOM      3  C   UNL     1      45.390   4.563   8.766  0.00  0.00    +0.000 A 
ATOM      4  C   UNL     1      46.352   4.105   7.856  0.00  0.00    +0.000 A 
ATOM      5  C   UNL     1      46.544   2.734   7.645  0.00  0.00    +0.000 A 
ATOM      6  C   UNL     1      45.741   1.826   8.333  0.00  0.00    +0.000 A 
ATOM      7  C   UNL     1      44.783   2.292   9.234  0.00  0.00    +0.000 A 
ATOM      8  F   UNL     1      44.013   1.390   9.857  0.00  0.00    +0.000 F 
BRANCH   5   9
ATOM      9  C   UNL     1      47.615   2.319   6.693  0.00  0.00    +0.000 C 
ATOM     10  N   UNL     1      47.757   3.009   5.523  0.00  0.00    +0.000 N 
ATOM     11  O   UNL     1      48.353   1.374   6.939  0.00  0.00    +0.000 OA
ATOM     12  H   UNL     1      47.192   3.786   5.223  0.00  0.00    +0.000 HD
ATOM     13  H   UNL     1      48.482   2.684   4.895  0.00  0.00    +0.000 HD
ENDBRANCH   5   9
ENDBRANCH   1   2
BRANCH   1  14
ATOM     14  O   UNL     1      43.148   5.445  10.245  0.00  0.00    +0.000 OA
ATOM     15  H   UNL     1      43.920   5.903   9.863  0.00  0.00    +0.000 HD
ENDBRANCH   1  14
BRANCH   1  16
ATOM     16  C   UNL     1      44.081   4.034  11.977  0.00  0.00    +0.000 C 
BRANCH  16  17
ATOM     17  O   UNL     1      44.256   5.361  12.503  0.00  0.00    +0.000 OA
BRANCH  17  21
ATOM     18  C   UNL     1      48.168   6.832  12.829  0.00  0.00    +0.000 A 
ATOM     19  C   UNL     1      47.772   5.759  13.636  0.00  0.00    +0.000 A 
ATOM     20  C   UNL     1      46.479   5.235  13.551  0.00  0.00    +0.000 A 
ATOM     21  C   UNL     1      45.554   5.776  12.656  0.00  0.00    +0.000 A 
ATOM     22  C   UNL     1      45.945   6.839  11.840  0.00  0.00    +0.000 A 
ATOM     23  C   UNL     1      47.240   7.366  11.924  0.00  0.00    +0.000 A 
BRANCH  18  24
ATOM     24  C   UNL     1      49.550   7.416  12.966  0.00  0.00    +0.000 C 
BRANCH  24  25
ATOM     25  N   UNL     1      50.136   7.120  14.269  0.00  0.00    +0.000 NA
ATOM     26  H   UNL     1      51.113   7.408  14.268  0.00  0.00    +0.000 HD
ATOM     27  H   UNL     1      50.132   6.110  14.407  0.00  0.00    +0.000 HD
ENDBRANCH  24  25
ENDBRANCH  18  24
ENDBRANCH  17  21
ENDBRANCH  16  17
ENDBRANCH   1  16
TORSDOF 8
ENDMDL
MODEL 3
REMARK VINA RESULT:    -7.326      1.590      2.111
REMARK INTER + INTRA:         -11.119
REMARK INTER:                 -10.525
REMARK INTRA:                  -0.594
REMARK UNBOUND:                -0.795
REMARK  Name = 
REMARK  8 active torsions:
REMARK  status: ('A' for Active; 'I' for Inactive)
REMARK    1  A    between atoms: N_1  and  C_2
REMARK    2  A    between atoms: C_2  and  C_3
REMARK    3  A    between atoms: C_6  and  O_7
REMARK    4  A    between atoms: O_7  and  C_8
REMARK    5  A    between atoms: C_8  and  C_9
REMARK    6  A    between atoms: C_9  and  O_10
REMARK    7  A    between atoms: C_9  and  C_11
REMARK    8  A    between atoms: C_14  and  C_15
REMARK                            x       y       z     vdW  Elec       q    Type
REMARK                         _______ _______ _______ _____ _____    ______ ____
ROOT
ATOM      1  C   UNL     1      44.150   4.536  12.457  0.00  0.00    +0.000 C 
ENDROOT
BRANCH   1   2
ATOM      2  C   UNL     1      45.483   5.254  12.490  0.00  0.00    +0.000 A 
ATOM      3  C   UNL     1      45.919   6.073  11.440  0.00  0.00    +0.000 A 
ATOM      4  C   UNL     1      47.141   6.751  11.526  0.00  0.00    +0.000 A 
ATOM      5  C   UNL     1      47.959   6.616  12.654  0.00  0.00    +0.000 A 
ATOM      6  C   UNL     1      47.554   5.770  13.684  0.00  0.00    +0.000 A 
ATOM      7  C   UNL     1      46.336   5.095  13.588  0.00  0.00    +0.000 A 
ATOM      8  F   UNL     1      45.993   4.271  14.587  0.00  0.00    +0.000 F 
BRANCH   5   9
ATOM      9  C   UNL     1      49.227   7.401  12.693  0.00  0.00    +0.000 C 
ATOM     10  N   UNL     1      50.020   7.314  13.802  0.00  0.00    +0.000 N 
ATOM     11  O   UNL     1      49.557   8.124  11.761  0.00  0.00    +0.000 OA
ATOM     12  H   UNL     1      49.829   6.765  14.623  0.00  0.00    +0.000 HD
ATOM     13  H   UNL     1      50.861   7.878  13.798  0.00  0.00    +0.000 HD
ENDBRANCH   5   9
ENDBRANCH   1   2
BRANCH   1  14
ATOM     14  O   UNL     1      44.303   3.158  12.823  0.00  0.00    +0.000 OA
ATOM     15  H   UNL     1      43.398   2.815  12.942  0.00  0.00    +0.000 HD
ENDBRANCH   1  14
BRANCH   1  16
ATOM     16  C   UNL     1      43.425   4.610  11.096  0.00  0.00    +0.000 C 
BRANCH  16  17
ATOM     17  O   UNL     1      43.484   3.332  10.439  0.00  0.00    +0.000 OA
BRANCH  17  21
ATOM     18  C   UNL     1      46.458   2.653   7.563  0.00  0.00    +0.000 A 
ATOM     19  C   UNL     1      45.973   3.953   7.751  0.00  0.00    +0.000 A 
ATOM     20  C   UNL     1      44.989   4.221   8.705  0.00  0.00    +0.000 A 
ATOM     21  C   UNL     1      44.466   3.192   9.491  0.00  0.00    +0.000 A 
ATOM     22  C   UNL     1      44.953   1.895   9.318  0.00  0.00    +0.000 A 
ATOM     23  C   UNL     1      45.939   1.624   8.361  0.00  0.00    +0.000 A 
BRANCH  18  24
ATOM     24  C   UNL     1      47.486   2.372   6.497  0.00  0.00    +0.000 C 
BRANCH  24  25
ATOM     25  N   UNL     1      47.231   3.142   5.284  0.00  0.00    +0.000 NA
ATOM     26  H   UNL     1      46.792   4.026   5.538  0.00  0.00    +0.000 HD
ATOM     27  H   UNL     1      46.556   2.638   4.712  0.00  0.00    +0.000 HD
ENDBRANCH  24  25
ENDBRANCH  18  24
ENDBRANCH  17  21
ENDBRANCH  16  17
ENDBRANCH   1  16
TORSDOF 8
ENDMDL
MODEL 4
REMARK VINA RESULT:    -7.100      2.000      6.293
REMARK INTER + INTRA:         -10.800
REMARK INTER:                 -10.113
REMARK INTRA:                  -0.686
REMARK UNBOUND:                -0.795
REMARK  Name = 
REMARK  8 active torsions:
REMARK  status: ('A' for Active; 'I' for Inactive)
REMARK    1  A    between atoms: N_1  and  C_2
REMARK    2  A    between atoms: C_2  and  C_3
REMARK    3  A    between atoms: C_6  and  O_7
REMARK    4  A    between atoms: O_7  and  C_8
REMARK    5  A    between atoms: C_8  and  C_9
REMARK    6  A    between atoms: C_9  and  O_10
REMARK    7  A    between atoms: C_9  and  C_11
REMARK    8  A    between atoms: C_14  and  C_15
REMARK                            x       y       z     vdW  Elec       q    Type
REMARK                         _______ _______ _______ _____ _____    ______ ____
ROOT
ATOM      1  C   UNL     1      43.855   4.250  10.741  0.00  0.00    +0.000 C 
ENDROOT
BRANCH   1   2
ATOM      2  C   UNL     1      44.762   3.639   9.694  0.00  0.00    +0.000 A 
ATOM      3  C   UNL     1      44.841   2.256   9.485  0.00  0.00    +0.000 A 
ATOM      4  C   UNL     1      45.665   1.732   8.481  0.00  0.00    +0.000 A 
ATOM      5  C   UNL     1      46.436   2.576   7.673  0.00  0.00    +0.000 A 
ATOM      6  C   UNL     1      46.397   3.950   7.902  0.00  0.00    +0.000 A 
ATOM      7  C   UNL     1      45.577   4.462   8.908  0.00  0.00    +0.000 A 
ATOM      8  F   UNL     1      45.586   5.786   9.115  0.00  0.00    +0.000 F 
BRANCH   5   9
ATOM      9  C   UNL     1      47.256   1.951   6.596  0.00  0.00    +0.000 C 
ATOM     10  N   UNL     1      47.959   2.761   5.750  0.00  0.00    +0.000 N 
ATOM     11  O   UNL     1      47.299   0.735   6.454  0.00  0.00    +0.000 OA
ATOM     12  H   UNL     1      47.975   3.767   5.774  0.00  0.00    +0.000 HD
ATOM     13  H   UNL     1      48.488   2.298   5.021  0.00  0.00    +0.000 HD
ENDBRANCH   5   9
ENDBRANCH   1   2
BRANCH   1  14
ATOM     14  O   UNL     1      43.165   5.391  10.215  0.00  0.00    +0.000 OA
ATOM     15  H   UNL     1      43.855   5.963   9.830  0.00  0.00    +0.000 HD
ENDBRANCH   1  14
BRANCH   1  16
ATOM     16  C   UNL     1      44.577   4.663  12.041  0.00  0.00    +0.000 C 
BRANCH  16  17
ATOM     17  O   UNL     1      44.327   6.050  12.322  0.00  0.00    +0.000 OA
BRANCH  17  21
ATOM     18  C   UNL     1      47.805   8.379  12.093  0.00  0.00    +0.000 A 
ATOM     19  C   UNL     1      46.565   9.014  12.235  0.00  0.00    +0.000 A 
ATOM     20  C   UNL     1      45.385   8.273  12.323  0.00  0.00    +0.000 A 
ATOM     21  C   UNL     1      45.419   6.878  12.269  0.00  0.00    +0.000 A 
ATOM     22  C   UNL     1      46.653   6.237  12.139  0.00  0.00    +0.000 A 
ATOM     23  C   UNL     1      47.838   6.978  12.050  0.00  0.00    +0.000 A 
BRANCH  18  24
ATOM     24  C   UNL     1      49.065   9.194  11.951  0.00  0.00    +0.000 C 
BRANCH  24  25
ATOM     25  N   UNL     1      49.110  10.290  12.913  0.00  0.00    +0.000 NA
ATOM     26  H   UNL     1      49.829  10.953  12.628  0.00  0.00    +0.000 HD
ATOM     27  H   UNL     1      49.400   9.920  13.817  0.00  0.00    +0.000 HD
ENDBRANCH  24  25
ENDBRANCH  18  24
ENDBRANCH  17  21
ENDBRANCH  16  17
ENDBRANCH   1  16
TORSDOF 8
ENDMDL
MODEL 5
REMARK VINA RESULT:    -6.899      2.632      6.817
REMARK INTER + INTRA:         -10.516
REMARK INTER:                 -10.133
REMARK INTRA:                  -0.383
REMARK UNBOUND:                -0.795
REMARK  Name = 
REMARK  8 active torsions:
REMARK  status: ('A' for Active; 'I' for Inactive)
REMARK    1  A    between atoms: N_1  and  C_2
REMARK    2  A    between atoms: C_2  and  C_3
REMARK    3  A    between atoms: C_6  and  O_7
REMARK    4  A    between atoms: O_7  and  C_8
REMARK    5  A    between atoms: C_8  and  C_9
REMARK    6  A    between atoms: C_9  and  O_10
REMARK    7  A    between atoms: C_9  and  C_11
REMARK    8  A    between atoms: C_14  and  C_15
REMARK                            x       y       z     vdW  Elec       q    Type
REMARK                         _______ _______ _______ _____ _____    ______ ____
ROOT
ATOM      1  C   UNL     1      44.230   4.976  10.786  0.00  0.00    +0.000 C 
ENDROOT
BRANCH   1   2
ATOM      2  C   UNL     1      44.944   4.224   9.682  0.00  0.00    +0.000 A 
ATOM      3  C   UNL     1      45.719   4.874   8.712  0.00  0.00    +0.000 A 
ATOM      4  C   UNL     1      46.396   4.139   7.730  0.00  0.00    +0.000 A 
ATOM      5  C   UNL     1      46.302   2.743   7.687  0.00  0.00    +0.000 A 
ATOM      6  C   UNL     1      45.499   2.092   8.621  0.00  0.00    +0.000 A 
ATOM      7  C   UNL     1      44.826   2.832   9.593  0.00  0.00    +0.000 A 
ATOM      8  F   UNL     1      44.043   2.172  10.458  0.00  0.00    +0.000 F 
BRANCH   5   9
ATOM      9  C   UNL     1      47.084   2.025   6.640  0.00  0.00    +0.000 C 
ATOM     10  N   UNL     1      47.580   2.738   5.585  0.00  0.00    +0.000 N 
ATOM     11  O   UNL     1      47.275   0.817   6.704  0.00  0.00    +0.000 OA
ATOM     12  H   UNL     1      47.463   3.725   5.434  0.00  0.00    +0.000 HD
ATOM     13  H   UNL     1      48.087   2.210   4.885  0.00  0.00    +0.000 HD
ENDBRANCH   5   9
ENDBRANCH   1   2
BRANCH   1  14
ATOM     14  O   UNL     1      43.026   5.579  10.296  0.00  0.00    +0.000 OA
ATOM     15  H   UNL     1      43.297   6.133   9.540  0.00  0.00    +0.000 HD
ENDBRANCH   1  14
BRANCH   1  16
ATOM     16  C   UNL     1      45.089   6.063  11.467  0.00  0.00    +0.000 C 
BRANCH  16  17
ATOM     17  O   UNL     1      46.439   5.595  11.625  0.00  0.00    +0.000 OA
BRANCH  17  21
ATOM     18  C   UNL     1      47.771   5.173  15.577  0.00  0.00    +0.000 A 
ATOM     19  C   UNL     1      48.181   6.286  14.833  0.00  0.00    +0.000 A 
ATOM     20  C   UNL     1      47.752   6.466  13.516  0.00  0.00    +0.000 A 
ATOM     21  C   UNL     1      46.904   5.534  12.914  0.00  0.00    +0.000 A 
ATOM     22  C   UNL     1      46.482   4.428  13.654  0.00  0.00    +0.000 A 
ATOM     23  C   UNL     1      46.911   4.245  14.975  0.00  0.00    +0.000 A 
BRANCH  18  24
ATOM     24  C   UNL     1      48.281   4.969  16.981  0.00  0.00    +0.000 C 
BRANCH  24  25
ATOM     25  N   UNL     1      47.508   5.732  17.954  0.00  0.00    +0.000 NA
ATOM     26  H   UNL     1      47.851   5.523  18.890  0.00  0.00    +0.000 HD
ATOM     27  H   UNL     1      46.540   5.416  17.923  0.00  0.00    +0.000 HD
ENDBRANCH  24  25
ENDBRANCH  18  24
ENDBRANCH  17  21
ENDBRANCH  16  17
ENDBRANCH   1  16
TORSDOF 8
ENDMDL
MODEL 6
REMARK VINA RESULT:    -6.859      1.728      2.127
REMARK INTER + INTRA:         -10.461
REMARK INTER:                 -10.564
REMARK INTRA:                   0.103
REMARK UNBOUND:                -0.795
REMARK  Name = 
REMARK  8 active torsions:
REMARK  status: ('A' for Active; 'I' for Inactive)
REMARK    1  A    between atoms: N_1  and  C_2
REMARK    2  A    between atoms: C_2  and  C_3
REMARK    3  A    between atoms: C_6  and  O_7
REMARK    4  A    between atoms: O_7  and  C_8
REMARK    5  A    between atoms: C_8  and  C_9
REMARK    6  A    between atoms: C_9  and  O_10
REMARK    7  A    between atoms: C_9  and  C_11
REMARK    8  A    between atoms: C_14  and  C_15
REMARK                            x       y       z     vdW  Elec       q    Type
REMARK                         _______ _______ _______ _____ _____    ______ ____
ROOT
ATOM      1  C   UNL     1      45.182   6.154  11.047  0.00  0.00    +0.000 C 
ENDROOT
BRANCH   1   2
ATOM      2  C   UNL     1      46.167   6.283  12.190  0.00  0.00    +0.000 A 
ATOM      3  C   UNL     1      46.766   7.502  12.530  0.00  0.00    +0.000 A 
ATOM      4  C   UNL     1      47.643   7.588  13.619  0.00  0.00    +0.000 A 
ATOM      5  C   UNL     1      47.949   6.455  14.383  0.00  0.00    +0.000 A 
ATOM      6  C   UNL     1      47.392   5.229  14.025  0.00  0.00    +0.000 A 
ATOM      7  C   UNL     1      46.523   5.153  12.937  0.00  0.00    +0.000 A 
ATOM      8  F   UNL     1      46.028   3.952  12.609  0.00  0.00    +0.000 F 
BRANCH   5   9
ATOM      9  C   UNL     1      48.857   6.629  15.553  0.00  0.00    +0.000 C 
ATOM     10  N   UNL     1      48.334   7.089  16.728  0.00  0.00    +0.000 N 
ATOM     11  O   UNL     1      50.054   6.380  15.473  0.00  0.00    +0.000 OA
ATOM     12  H   UNL     1      47.373   7.338  16.889  0.00  0.00    +0.000 HD
ATOM     13  H   UNL     1      48.987   7.213  17.492  0.00  0.00    +0.000 HD
ENDBRANCH   5   9
ENDBRANCH   1   2
BRANCH   1  14
ATOM     14  O   UNL     1      44.483   7.388  10.834  0.00  0.00    +0.000 OA
ATOM     15  H   UNL     1      43.866   7.474  11.584  0.00  0.00    +0.000 HD
ENDBRANCH   1  14
BRANCH   1  16
ATOM     16  C   UNL     1      44.148   5.023  11.228  0.00  0.00    +0.000 C 
BRANCH  16  17
ATOM     17  O   UNL     1      43.689   4.568   9.944  0.00  0.00    +0.000 OA
BRANCH  17  21
ATOM     18  C   UNL     1      46.448   2.329   7.719  0.00  0.00    +0.000 A 
ATOM     19  C   UNL     1      45.666   1.685   8.686  0.00  0.00    +0.000 A 
ATOM     20  C   UNL     1      44.729   2.395   9.442  0.00  0.00    +0.000 A 
ATOM     21  C   UNL     1      44.557   3.767   9.248  0.00  0.00    +0.000 A 
ATOM     22  C   UNL     1      45.325   4.413   8.277  0.00  0.00    +0.000 A 
ATOM     23  C   UNL     1      46.264   3.703   7.518  0.00  0.00    +0.000 A 
BRANCH  18  24
ATOM     24  C   UNL     1      47.486   1.558   6.946  0.00  0.00    +0.000 C 
BRANCH  24  25
ATOM     25  N   UNL     1      48.559   2.423   6.469  0.00  0.00    +0.000 NA
ATOM     26  H   UNL     1      48.796   3.093   7.200  0.00  0.00    +0.000 HD
ATOM     27  H   UNL     1      48.215   2.967   5.680  0.00  0.00    +0.000 HD
ENDBRANCH  24  25
ENDBRANCH  18  24
ENDBRANCH  17  21
ENDBRANCH  16  17
ENDBRANCH   1  16
TORSDOF 8
ENDMDL
MODEL 7
REMARK VINA RESULT:    -6.553      2.227      2.586
REMARK INTER + INTRA:         -10.029
REMARK INTER:                  -9.429
REMARK INTRA:                  -0.600
REMARK UNBOUND:                -0.795
REMARK  Name = 
REMARK  8 active torsions:
REMARK  status: ('A' for Active; 'I' for Inactive)
REMARK    1  A    between atoms: N_1  and  C_2
REMARK    2  A    between atoms: C_2  and  C_3
REMARK    3  A    between atoms: C_6  and  O_7
REMARK    4  A    between atoms: O_7  and  C_8
REMARK    5  A    between atoms: C_8  and  C_9
REMARK    6  A    between atoms: C_9  and  O_10
REMARK    7  A    between atoms: C_9  and  C_11
REMARK    8  A    between atoms: C_14  and  C_15
REMARK                            x       y       z     vdW  Elec       q    Type
REMARK                         _______ _______ _______ _____ _____    ______ ____
ROOT
ATOM      1  C   UNL     1      45.298   4.715  13.326  0.00  0.00    +0.000 C 
ENDROOT
BRANCH   1   2
ATOM      2  C   UNL     1      45.823   6.078  12.926  0.00  0.00    +0.000 A 
ATOM      3  C   UNL     1      44.975   7.166  12.682  0.00  0.00    +0.000 A 
ATOM      4  C   UNL     1      45.501   8.421  12.351  0.00  0.00    +0.000 A 
ATOM      5  C   UNL     1      46.884   8.613  12.245  0.00  0.00    +0.000 A 
ATOM      6  C   UNL     1      47.733   7.526  12.442  0.00  0.00    +0.000 A 
ATOM      7  C   UNL     1      47.199   6.279  12.768  0.00  0.00    +0.000 A 
ATOM      8  F   UNL     1      48.046   5.253  12.925  0.00  0.00    +0.000 F 
BRANCH   5   9
ATOM      9  C   UNL     1      47.374   9.986  11.931  0.00  0.00    +0.000 C 
ATOM     10  N   UNL     1      46.577  11.054  12.232  0.00  0.00    +0.000 N 
ATOM     11  O   UNL     1      48.465  10.168  11.404  0.00  0.00    +0.000 OA
ATOM     12  H   UNL     1      45.662  11.008  12.648  0.00  0.00    +0.000 HD
ATOM     13  H   UNL     1      46.937  11.967  11.985  0.00  0.00    +0.000 HD
ENDBRANCH   5   9
ENDBRANCH   1   2
BRANCH   1  14
ATOM     14  O   UNL     1      45.951   4.244  14.512  0.00  0.00    +0.000 OA
ATOM     15  H   UNL     1      46.371   5.029  14.911  0.00  0.00    +0.000 HD
ENDBRANCH   1  14
BRANCH   1  16
ATOM     16  C   UNL     1      45.429   3.640  12.226  0.00  0.00    +0.000 C 
BRANCH  16  17
ATOM     17  O   UNL     1      44.641   4.010  11.082  0.00  0.00    +0.000 OA
BRANCH  17  21
ATOM     18  C   UNL     1      46.319   3.184   7.330  0.00  0.00    +0.000 A 
ATOM     19  C   UNL     1      45.811   2.130   8.099  0.00  0.00    +0.000 A 
ATOM     20  C   UNL     1      45.236   2.365   9.350  0.00  0.00    +0.000 A 
ATOM     21  C   UNL     1      45.160   3.663   9.861  0.00  0.00    +0.000 A 
ATOM     22  C   UNL     1      45.653   4.720   9.095  0.00  0.00    +0.000 A 
ATOM     23  C   UNL     1      46.230   4.487   7.840  0.00  0.00    +0.000 A 
BRANCH  18  24
ATOM     24  C   UNL     1      46.978   2.908   6.003  0.00  0.00    +0.000 C 
BRANCH  24  25
ATOM     25  N   UNL     1      48.356   2.459   6.167  0.00  0.00    +0.000 NA
ATOM     26  H   UNL     1      48.986   3.216   5.905  0.00  0.00    +0.000 HD
ATOM     27  H   UNL     1      48.532   1.698   5.513  0.00  0.00    +0.000 HD
ENDBRANCH  24  25
ENDBRANCH  18  24
ENDBRANCH  17  21
ENDBRANCH  16  17
ENDBRANCH   1  16
TORSDOF 8
ENDMDL
MODEL 8
REMARK VINA RESULT:    -5.955      2.866      6.812
REMARK INTER + INTRA:          -9.186
REMARK INTER:                  -8.687
REMARK INTRA:                  -0.500
REMARK UNBOUND:                -0.795
REMARK  Name = 
REMARK  8 active torsions:
REMARK  status: ('A' for Active; 'I' for Inactive)
REMARK    1  A    between atoms: N_1  and  C_2
REMARK    2  A    between atoms: C_2  and  C_3
REMARK    3  A    between atoms: C_6  and  O_7
REMARK    4  A    between atoms: O_7  and  C_8
REMARK    5  A    between atoms: C_8  and  C_9
REMARK    6  A    between atoms: C_9  and  O_10
REMARK    7  A    between atoms: C_9  and  C_11
REMARK    8  A    between atoms: C_14  and  C_15
REMARK                            x       y       z     vdW  Elec       q    Type
REMARK                         _______ _______ _______ _____ _____    ______ ____
ROOT
ATOM      1  C   UNL     1      44.478   5.556  12.424  0.00  0.00    +0.000 C 
ENDROOT
BRANCH   1   2
ATOM      2  C   UNL     1      44.862   4.822  11.157  0.00  0.00    +0.000 A 
ATOM      3  C   UNL     1      45.414   5.477  10.049  0.00  0.00    +0.000 A 
ATOM      4  C   UNL     1      45.792   4.756   8.909  0.00  0.00    +0.000 A 
ATOM      5  C   UNL     1      45.614   3.369   8.846  0.00  0.00    +0.000 A 
ATOM      6  C   UNL     1      45.025   2.715   9.926  0.00  0.00    +0.000 A 
ATOM      7  C   UNL     1      44.649   3.442  11.056  0.00  0.00    +0.000 A 
ATOM      8  F   UNL     1      44.063   2.781  12.064  0.00  0.00    +0.000 F 
BRANCH   5   9
ATOM      9  C   UNL     1      46.078   2.662   7.618  0.00  0.00    +0.000 C 
ATOM     10  N   UNL     1      46.598   1.405   7.739  0.00  0.00    +0.000 N 
ATOM     11  O   UNL     1      46.011   3.192   6.515  0.00  0.00    +0.000 OA
ATOM     12  H   UNL     1      46.710   0.893   8.598  0.00  0.00    +0.000 HD
ATOM     13  H   UNL     1      46.920   0.967   6.884  0.00  0.00    +0.000 HD
ENDBRANCH   5   9
ENDBRANCH   1   2
BRANCH   1  14
ATOM     14  O   UNL     1      43.233   6.247  12.258  0.00  0.00    +0.000 OA
ATOM     15  H   UNL     1      42.995   6.138  11.318  0.00  0.00    +0.000 HD
ENDBRANCH   1  14
BRANCH   1  16
ATOM     16  C   UNL     1      45.540   6.561  12.919  0.00  0.00    +0.000 C 
BRANCH  16  17
ATOM     17  O   UNL     1      46.836   5.938  12.933  0.00  0.00    +0.000 OA
BRANCH  17  21
ATOM     18  C   UNL     1      48.325   4.912  16.716  0.00  0.00    +0.000 A 
ATOM     19  C   UNL     1      47.403   4.063  16.090  0.00  0.00    +0.000 A 
ATOM     20  C   UNL     1      46.891   4.366  14.826  0.00  0.00    +0.000 A 
ATOM     21  C   UNL     1      47.288   5.528  14.161  0.00  0.00    +0.000 A 
ATOM     22  C   UNL     1      48.215   6.373  14.774  0.00  0.00    +0.000 A 
ATOM     23  C   UNL     1      48.730   6.071  16.041  0.00  0.00    +0.000 A 
BRANCH  18  24
ATOM     24  C   UNL     1      48.832   4.595  18.099  0.00  0.00    +0.000 C 
BRANCH  24  25
ATOM     25  N   UNL     1      49.388   3.248  18.176  0.00  0.00    +0.000 NA
ATOM     26  H   UNL     1      50.095   3.222  18.908  0.00  0.00    +0.000 HD
ATOM     27  H   UNL     1      49.869   3.043  17.302  0.00  0.00    +0.000 HD
ENDBRANCH  24  25
ENDBRANCH  18  24
ENDBRANCH  17  21
ENDBRANCH  16  17
ENDBRANCH   1  16
TORSDOF 8
ENDMDL
MODEL 9
REMARK VINA RESULT:    -5.836      3.145      3.624
REMARK INTER + INTRA:          -9.019
REMARK INTER:                  -8.560
REMARK INTRA:                  -0.458
REMARK UNBOUND:                -0.795
REMARK  Name = 
REMARK  8 active torsions:
REMARK  status: ('A' for Active; 'I' for Inactive)
REMARK    1  A    between atoms: N_1  and  C_2
REMARK    2  A    between atoms: C_2  and  C_3
REMARK    3  A    between atoms: C_6  and  O_7
REMARK    4  A    between atoms: O_7  and  C_8
REMARK    5  A    between atoms: C_8  and  C_9
REMARK    6  A    between atoms: C_9  and  O_10
REMARK    7  A    between atoms: C_9  and  C_11
REMARK    8  A    between atoms: C_14  and  C_15
REMARK                            x       y       z     vdW  Elec       q    Type
REMARK                         _______ _______ _______ _____ _____    ______ ____
ROOT
ATOM      1  C   UNL     1      46.500   5.263  13.354  0.00  0.00    +0.000 C 
ENDROOT
BRANCH   1   2
ATOM      2  C   UNL     1      47.124   5.037  14.715  0.00  0.00    +0.000 A 
ATOM      3  C   UNL     1      46.745   3.977  15.548  0.00  0.00    +0.000 A 
ATOM      4  C   UNL     1      47.373   3.779  16.784  0.00  0.00    +0.000 A 
ATOM      5  C   UNL     1      48.385   4.644  17.220  0.00  0.00    +0.000 A 
ATOM      6  C   UNL     1      48.739   5.727  16.418  0.00  0.00    +0.000 A 
ATOM      7  C   UNL     1      48.104   5.918  15.191  0.00  0.00    +0.000 A 
ATOM      8  F   UNL     1      48.454   6.985  14.460  0.00  0.00    +0.000 F 
BRANCH   5   9
ATOM      9  C   UNL     1      49.038   4.347  18.527  0.00  0.00    +0.000 C 
ATOM     10  N   UNL     1      48.588   3.287  19.262  0.00  0.00    +0.000 N 
ATOM     11  O   UNL     1      49.956   5.039  18.951  0.00  0.00    +0.000 OA
ATOM     12  H   UNL     1      47.833   2.673  19.009  0.00  0.00    +0.000 HD
ATOM     13  H   UNL     1      49.044   3.132  20.152  0.00  0.00    +0.000 HD
ENDBRANCH   5   9
ENDBRANCH   1   2
BRANCH   1  14
ATOM     14  O   UNL     1      45.750   6.484  13.333  0.00  0.00    +0.000 OA
ATOM     15  H   UNL     1      44.824   6.222  13.174  0.00  0.00    +0.000 HD
ENDBRANCH   1  14
BRANCH   1  16
ATOM     16  C   UNL     1      45.588   4.112  12.878  0.00  0.00    +0.000 C 
BRANCH  16  17
ATOM     17  O   UNL     1      44.720   4.575  11.831  0.00  0.00    +0.000 OA
BRANCH  17  21
ATOM     18  C   UNL     1      45.815   3.518   7.925  0.00  0.00    +0.000 A 
ATOM     19  C   UNL     1      45.226   2.555   8.754  0.00  0.00    +0.000 A 
ATOM     20  C   UNL     1      44.840   2.871  10.059  0.00  0.00    +0.000 A 
ATOM     21  C   UNL     1      45.037   4.158  10.563  0.00  0.00    +0.000 A 
ATOM     22  C   UNL     1      45.613   5.126   9.738  0.00  0.00    +0.000 A 
ATOM     23  C   UNL     1      46.001   4.812   8.430  0.00  0.00    +0.000 A 
BRANCH  18  24
ATOM     24  C   UNL     1      46.270   3.148   6.536  0.00  0.00    +0.000 C 
BRANCH  24  25
ATOM     25  N   UNL     1      47.724   3.082   6.442  0.00  0.00    +0.000 NA
ATOM     26  H   UNL     1      47.980   2.623   5.570  0.00  0.00    +0.000 HD
ATOM     27  H   UNL     1      48.074   2.491   7.194  0.00  0.00    +0.000 HD
ENDBRANCH  24  25
ENDBRANCH  18  24
ENDBRANCH  17  21
ENDBRANCH  16  17
ENDBRANCH   1  16
TORSDOF 8
ENDMDL
