MODEL 1
REMARK VINA RESULT:    -8.694      0.000      0.000
REMARK INTER + INTRA:         -12.972
REMARK INTER:                 -11.743
REMARK INTRA:                  -1.229
REMARK UNBOUND:                -1.229
REMARK  Name = 
REMARK  6 active torsions:
REMARK  status: ('A' for Active; 'I' for Inactive)
REMARK    1  A    between atoms: C_2  and  C_19
REMARK    2  A    between atoms: N_3  and  C_4
REMARK    3  A    between atoms: C_4  and  C_5
REMARK    4  A    between atoms: C_9  and  C_10
REMARK    5  A    between atoms: C_10  and  O_11
REMARK    6  A    between atoms: O_11  and  C_12
REMARK                            x       y       z     vdW  Elec       q    Type
REMARK                         _______ _______ _______ _____ _____    ______ ____
ROOT
ATOM      1  O   UNL     1      48.844   6.261  12.941  0.00  0.00    +0.000 OA
ATOM      2  C   UNL     1      48.078   6.586  13.841  0.00  0.00    +0.000 C 
ATOM      3  N   UNL     1      46.788   7.011  13.649  0.00  0.00    +0.000 N 
ATOM      4  H   UNL     1      46.167   7.028  14.448  0.00  0.00    +0.000 HD
ENDROOT
BRANCH   2   5
ATOM      5  C   UNL     1      48.357   6.378  15.254  0.00  0.00    +0.000 A 
ATOM      6  C   UNL     1      49.018   7.309  16.032  0.00  0.00    +0.000 A 
ATOM      7  S   UNL     1      49.664   6.600  17.455  0.00  0.00    +0.000 S 
ATOM      8  C   UNL     1      48.953   5.091  17.098  0.00  0.00    +0.000 A 
ATOM      9  N   UNL     1      49.204   3.972  17.828  0.00  0.00    +0.000 NA
ATOM     10  C   UNL     1      48.541   2.929  17.441  0.00  0.00    +0.000 A 
ATOM     11  N   UNL     1      47.619   2.916  16.422  0.00  0.00    +0.000 N 
ATOM     12  C   UNL     1      47.314   4.022  15.677  0.00  0.00    +0.000 A 
ATOM     13  O   UNL     1      46.418   4.020  14.840  0.00  0.00    +0.000 OA
ATOM     14  C   UNL     1      48.131   5.176  15.994  0.00  0.00    +0.000 A 
ATOM     15  H   UNL     1      47.067   2.088  16.235  0.00  0.00    +0.000 HD
ENDBRANCH   2   5
BRANCH   3  16
ATOM     16  C   UNL     1      46.126   6.953  12.365  0.00  0.00    +0.000 C 
BRANCH  16  17
ATOM     17  C   UNL     1      45.149   5.796  12.312  0.00  0.00    +0.000 A 
ATOM     18  N   UNL     1      44.096   5.834  13.157  0.00  0.00    +0.000 NA
ATOM     19  C   UNL     1      43.209   4.826  13.056  0.00  0.00    +0.000 A 
ATOM     20  C   UNL     1      43.308   3.818  12.126  0.00  0.00    +0.000 A 
ATOM     21  C   UNL     1      44.381   3.892  11.261  0.00  0.00    +0.000 A 
ATOM     22  N   UNL     1      45.307   4.876  11.342  0.00  0.00    +0.000 NA
BRANCH  21  23
ATOM     23  C   UNL     1      44.565   2.848  10.185  0.00  0.00    +0.000 C 
BRANCH  23  24
ATOM     24  O   UNL     1      44.561   3.495   8.916  0.00  0.00    +0.000 OA
BRANCH  24  25
ATOM     25  C   UNL     1      45.526   2.957   8.095  0.00  0.00    +0.000 A 
ATOM     26  N   UNL     1      45.935   1.725   8.426  0.00  0.00    +0.000 NA
ATOM     27  C   UNL     1      46.862   1.177   7.619  0.00  0.00    +0.000 A 
ATOM     28  C   UNL     1      47.363   1.804   6.502  0.00  0.00    +0.000 A 
ATOM     29  C   UNL     1      46.854   3.055   6.244  0.00  0.00    +0.000 A 
ATOM     30  N   UNL     1      45.935   3.657   7.022  0.00  0.00    +0.000 NA
ENDBRANCH  24  25
ENDBRANCH  23  24
ENDBRANCH  21  23
ENDBRANCH  16  17
ENDBRANCH   3  16
TORSDOF 6
ENDMDL
MODEL 2
REMARK VINA RESULT:    -7.778      1.741      2.404
REMARK INTER + INTRA:         -11.735
REMARK INTER:                 -10.659
REMARK INTRA:                  -1.076
REMARK UNBOUND:                -1.229
REMARK  Name = 
REMARK  6 active torsions:
REMARK  status: ('A' for Active; 'I' for Inactive)
REMARK    1  A    between atoms: C_2  and  C_19
REMARK    2  A    between atoms: N_3  and  C_4
REMARK    3  A    between atoms: C_4  and  C_5
REMARK    4  A    between atoms: C_9  and  C_10
REMARK    5  A    between atoms: C_10  and  O_11
REMARK    6  A    between atoms: O_11  and  C_12
REMARK                            x       y       z     vdW  Elec       q    Type
REMARK                         _______ _______ _______ _____ _____    ______ ____
ROOT
ATOM      1  O   UNL     1      48.658   5.962  12.908  0.00  0.00    +0.000 OA
ATOM      2  C   UNL     1      47.960   6.311  13.853  0.00  0.00    +0.000 C 
ATOM      3  N   UNL     1      46.810   5.677  14.248  0.00  0.00    +0.000 N 
ATOM      4  H   UNL     1      46.438   5.888  15.165  0.00  0.00    +0.000 HD
ENDROOT
BRANCH   2   5
ATOM      5  C   UNL     1      48.356   7.327  14.817  0.00  0.00    +0.000 A 
ATOM      6  C   UNL     1      48.132   8.676  14.619  0.00  0.00    +0.000 A 
ATOM      7  S   UNL     1      49.145   9.639  15.614  0.00  0.00    +0.000 S 
ATOM      8  C   UNL     1      49.784   8.264  16.397  0.00  0.00    +0.000 A 
ATOM      9  N   UNL     1      50.814   8.337  17.281  0.00  0.00    +0.000 NA
ATOM     10  C   UNL     1      51.135   7.201  17.813  0.00  0.00    +0.000 A 
ATOM     11  N   UNL     1      50.492   6.010  17.573  0.00  0.00    +0.000 N 
ATOM     12  C   UNL     1      49.435   5.892  16.713  0.00  0.00    +0.000 A 
ATOM     13  O   UNL     1      48.808   4.846  16.587  0.00  0.00    +0.000 OA
ATOM     14  C   UNL     1      49.131   7.116  16.000  0.00  0.00    +0.000 A 
ATOM     15  H   UNL     1      50.736   5.178  18.096  0.00  0.00    +0.000 HD
ENDBRANCH   2   5
BRANCH   3  16
ATOM     16  C   UNL     1      46.385   4.410  13.696  0.00  0.00    +0.000 C 
BRANCH  16  17
ATOM     17  C   UNL     1      45.150   4.582  12.835  0.00  0.00    +0.000 A 
ATOM     18  N   UNL     1      44.130   5.303  13.350  0.00  0.00    +0.000 NA
ATOM     19  C   UNL     1      43.065   5.493  12.547  0.00  0.00    +0.000 A 
ATOM     20  C   UNL     1      42.998   5.034  11.254  0.00  0.00    +0.000 A 
ATOM     21  C   UNL     1      44.110   4.361  10.788  0.00  0.00    +0.000 A 
ATOM     22  N   UNL     1      45.192   4.131  11.567  0.00  0.00    +0.000 NA
BRANCH  21  23
ATOM     23  C   UNL     1      44.147   3.840   9.371  0.00  0.00    +0.000 C 
BRANCH  23  24
ATOM     24  O   UNL     1      44.655   2.510   9.386  0.00  0.00    +0.000 OA
BRANCH  24  25
ATOM     25  C   UNL     1      45.612   2.345   8.411  0.00  0.00    +0.000 A 
ATOM     26  N   UNL     1      45.895   3.442   7.698  0.00  0.00    +0.000 NA
ATOM     27  C   UNL     1      46.845   3.302   6.756  0.00  0.00    +0.000 A 
ATOM     28  C   UNL     1      47.522   2.126   6.529  0.00  0.00    +0.000 A 
ATOM     29  C   UNL     1      47.167   1.071   7.336  0.00  0.00    +0.000 A 
ATOM     30  N   UNL     1      46.216   1.150   8.286  0.00  0.00    +0.000 NA
ENDBRANCH  24  25
ENDBRANCH  23  24
ENDBRANCH  21  23
ENDBRANCH  16  17
ENDBRANCH   3  16
TORSDOF 6
ENDMDL
MODEL 3
REMARK VINA RESULT:    -7.646      1.542      2.213
REMARK INTER + INTRA:         -11.556
REMARK INTER:                 -10.668
REMARK INTRA:                  -0.888
REMARK UNBOUND:                -1.229
REMARK  Name = 
REMARK  6 active torsions:
REMARK  status: ('A' for Active; 'I' for Inactive)
REMARK    1  A    between atoms: C_2  and  C_19
REMARK    2  A    between atoms: N_3  and  C_4
REMARK    3  A    between atoms: C_4  and  C_5
REMARK    4  A    between atoms: C_9  and  C_10
REMARK    5  A    between atoms: C_10  and  O_11
REMARK    6  A    between atoms: O_11  and  C_12
REMARK                            x       y       z     vdW  Elec       q    Type
REMARK                         _______ _______ _______ _____ _____    ______ ____
ROOT
ATOM      1  O   UNL     1      48.706   5.974  13.167  0.00  0.00    +0.000 OA
ATOM      2  C   UNL     1      47.886   6.075  14.072  0.00  0.00    +0.000 C 
ATOM      3  N   UNL     1      46.630   6.607  13.929  0.00  0.00    +0.000 N 
ATOM      4  H   UNL     1      45.951   6.434  14.659  0.00  0.00    +0.000 HD
ENDROOT
BRANCH   2   5
ATOM      5  C   UNL     1      48.050   5.462  15.382  0.00  0.00    +0.000 A 
ATOM      6  C   UNL     1      47.428   4.282  15.739  0.00  0.00    +0.000 A 
ATOM      7  S   UNL     1      47.365   4.090  17.444  0.00  0.00    +0.000 S 
ATOM      8  C   UNL     1      48.279   5.508  17.696  0.00  0.00    +0.000 A 
ATOM      9  N   UNL     1      48.494   6.030  18.933  0.00  0.00    +0.000 NA
ATOM     10  C   UNL     1      49.248   7.082  18.939  0.00  0.00    +0.000 A 
ATOM     11  N   UNL     1      49.842   7.631  17.826  0.00  0.00    +0.000 N 
ATOM     12  C   UNL     1      49.676   7.126  16.566  0.00  0.00    +0.000 A 
ATOM     13  O   UNL     1      50.291   7.564  15.601  0.00  0.00    +0.000 OA
ATOM     14  C   UNL     1      48.733   6.028  16.503  0.00  0.00    +0.000 A 
ATOM     15  H   UNL     1      50.497   8.398  17.917  0.00  0.00    +0.000 HD
ENDBRANCH   2   5
BRANCH   3  16
ATOM     16  C   UNL     1      46.066   6.950  12.643  0.00  0.00    +0.000 C 
BRANCH  16  17
ATOM     17  C   UNL     1      45.005   5.948  12.233  0.00  0.00    +0.000 A 
ATOM     18  N   UNL     1      44.025   5.683  13.124  0.00  0.00    +0.000 NA
ATOM     19  C   UNL     1      43.061   4.834  12.721  0.00  0.00    +0.000 A 
ATOM     20  C   UNL     1      43.015   4.280  11.464  0.00  0.00    +0.000 A 
ATOM     21  C   UNL     1      44.023   4.653  10.597  0.00  0.00    +0.000 A 
ATOM     22  N   UNL     1      45.021   5.488  10.968  0.00  0.00    +0.000 NA
BRANCH  21  23
ATOM     23  C   UNL     1      44.048   4.121   9.184  0.00  0.00    +0.000 C 
BRANCH  23  24
ATOM     24  O   UNL     1      45.215   4.611   8.532  0.00  0.00    +0.000 OA
BRANCH  24  25
ATOM     25  C   UNL     1      45.948   3.572   8.004  0.00  0.00    +0.000 A 
ATOM     26  N   UNL     1      45.750   2.382   8.585  0.00  0.00    +0.000 NA
ATOM     27  C   UNL     1      46.442   1.352   8.064  0.00  0.00    +0.000 A 
ATOM     28  C   UNL     1      47.291   1.473   6.989  0.00  0.00    +0.000 A 
ATOM     29  C   UNL     1      47.398   2.737   6.457  0.00  0.00    +0.000 A 
ATOM     30  N   UNL     1      46.740   3.805   6.942  0.00  0.00    +0.000 NA
ENDBRANCH  24  25
ENDBRANCH  23  24
ENDBRANCH  21  23
ENDBRANCH  16  17
ENDBRANCH   3  16
TORSDOF 6
ENDMDL
MODEL 4
REMARK VINA RESULT:    -7.601      1.223      1.670
REMARK INTER + INTRA:         -11.496
REMARK INTER:                 -10.396
REMARK INTRA:                  -1.100
REMARK UNBOUND:                -1.229
REMARK  Name = 
REMARK  6 active torsions:
REMARK  status: ('A' for Active; 'I' for Inactive)
REMARK    1  A    between atoms: C_2  and  C_19
REMARK    2  A    between atoms: N_3  and  C_4
REMARK    3  A    between atoms: C_4  and  C_5
REMARK    4  A    between atoms: C_9  and  C_10
REMARK    5  A    between atoms: C_10  and  O_11
REMARK    6  A    between atoms: O_11  and  C_12
REMARK                            x       y       z     vdW  Elec       q    Type
REMARK                         _______ _______ _______ _____ _____    ______ ____
ROOT
ATOM      1  O   UNL     1      49.975   6.851  14.643  0.00  0.00    +0.000 OA
ATOM      2  C   UNL     1      48.838   6.783  15.095  0.00  0.00    +0.000 C 
ATOM      3  N   UNL     1      47.696   6.794  14.336  0.00  0.00    +0.000 N 
ATOM      4  H   UNL     1      46.831   6.499  14.770  0.00  0.00    +0.000 HD
ENDROOT
BRANCH   2   5
ATOM      5  C   UNL     1      48.540   6.478  16.487  0.00  0.00    +0.000 A 
ATOM      6  C   UNL     1      48.660   7.409  17.500  0.00  0.00    +0.000 A 
ATOM      7  S   UNL     1      48.767   6.659  19.040  0.00  0.00    +0.000 S 
ATOM      8  C   UNL     1      48.524   5.110  18.368  0.00  0.00    +0.000 A 
ATOM      9  N   UNL     1      48.631   3.969  19.100  0.00  0.00    +0.000 NA
ATOM     10  C   UNL     1      48.366   2.889  18.437  0.00  0.00    +0.000 A 
ATOM     11  N   UNL     1      47.962   2.851  17.124  0.00  0.00    +0.000 N 
ATOM     12  C   UNL     1      47.815   3.973  16.355  0.00  0.00    +0.000 A 
ATOM     13  O   UNL     1      47.358   3.931  15.219  0.00  0.00    +0.000 OA
ATOM     14  C   UNL     1      48.229   5.190  17.024  0.00  0.00    +0.000 A 
ATOM     15  H   UNL     1      47.680   1.978  16.696  0.00  0.00    +0.000 HD
ENDBRANCH   2   5
BRANCH   3  16
ATOM     16  C   UNL     1      47.713   6.709  12.893  0.00  0.00    +0.000 C 
BRANCH  16  17
ATOM     17  C   UNL     1      46.329   6.416  12.352  0.00  0.00    +0.000 A 
ATOM     18  N   UNL     1      45.493   7.464  12.182  0.00  0.00    +0.000 NA
ATOM     19  C   UNL     1      44.289   7.190  11.647  0.00  0.00    +0.000 A 
ATOM     20  C   UNL     1      43.906   5.934  11.240  0.00  0.00    +0.000 A 
ATOM     21  C   UNL     1      44.845   4.933  11.393  0.00  0.00    +0.000 A 
ATOM     22  N   UNL     1      46.059   5.161  11.945  0.00  0.00    +0.000 NA
BRANCH  21  23
ATOM     23  C   UNL     1      44.533   3.522  10.952  0.00  0.00    +0.000 C 
BRANCH  23  24
ATOM     24  O   UNL     1      44.075   3.557   9.604  0.00  0.00    +0.000 OA
BRANCH  24  25
ATOM     25  C   UNL     1      45.060   3.123   8.746  0.00  0.00    +0.000 A 
ATOM     26  N   UNL     1      45.574   4.065   7.945  0.00  0.00    +0.000 NA
ATOM     27  C   UNL     1      46.554   3.661   7.117  0.00  0.00    +0.000 A 
ATOM     28  C   UNL     1      47.039   2.374   7.085  0.00  0.00    +0.000 A 
ATOM     29  C   UNL     1      46.454   1.496   7.967  0.00  0.00    +0.000 A 
ATOM     30  N   UNL     1      45.463   1.841   8.810  0.00  0.00    +0.000 NA
ENDBRANCH  24  25
ENDBRANCH  23  24
ENDBRANCH  21  23
ENDBRANCH  16  17
ENDBRANCH   3  16
TORSDOF 6
ENDMDL
MODEL 5
REMARK VINA RESULT:    -7.577      2.569      4.140
REMARK INTER + INTRA:         -11.463
REMARK INTER:                 -10.343
REMARK INTRA:                  -1.120
REMARK UNBOUND:                -1.229
REMARK  Name = 
REMARK  6 active torsions:
REMARK  status: ('A' for Active; 'I' for Inactive)
REMARK    1  A    between atoms: C_2  and  C_19
REMARK    2  A    between atoms: N_3  and  C_4
REMARK    3  A    between atoms: C_4  and  C_5
REMARK    4  A    between atoms: C_9  and  C_10
REMARK    5  A    between atoms: C_10  and  O_11
REMARK    6  A    between atoms: O_11  and  C_12
REMARK                            x       y       z     vdW  Elec       q    Type
REMARK                         _______ _______ _______ _____ _____    ______ ____
ROOT
ATOM      1  O   UNL     1      48.903   6.248  14.597  0.00  0.00    +0.000 OA
ATOM      2  C   UNL     1      48.428   6.472  13.490  0.00  0.00    +0.000 C 
ATOM      3  N   UNL     1      47.261   5.927  13.018  0.00  0.00    +0.000 N 
ATOM      4  H   UNL     1      46.832   6.347  12.203  0.00  0.00    +0.000 HD
ENDROOT
BRANCH   2   5
ATOM      5  C   UNL     1      48.924   7.505  12.593  0.00  0.00    +0.000 A 
ATOM      6  C   UNL     1      50.092   7.368  11.867  0.00  0.00    +0.000 A 
ATOM      7  S   UNL     1      50.691   8.887  11.340  0.00  0.00    +0.000 S 
ATOM      8  C   UNL     1      49.333   9.707  11.965  0.00  0.00    +0.000 A 
ATOM      9  N   UNL     1      49.243  11.064  11.989  0.00  0.00    +0.000 NA
ATOM     10  C   UNL     1      48.121  11.511  12.455  0.00  0.00    +0.000 A 
ATOM     11  N   UNL     1      47.066  10.725  12.857  0.00  0.00    +0.000 N 
ATOM     12  C   UNL     1      47.100   9.358  12.826  0.00  0.00    +0.000 A 
ATOM     13  O   UNL     1      46.119   8.674  13.092  0.00  0.00    +0.000 OA
ATOM     14  C   UNL     1      48.388   8.820  12.434  0.00  0.00    +0.000 A 
ATOM     15  H   UNL     1      46.183  11.144  13.121  0.00  0.00    +0.000 HD
ENDBRANCH   2   5
BRANCH   3  16
ATOM     16  C   UNL     1      46.364   5.156  13.849  0.00  0.00    +0.000 C 
BRANCH  16  17
ATOM     17  C   UNL     1      45.156   4.696  13.059  0.00  0.00    +0.000 A 
ATOM     18  N   UNL     1      43.985   5.328  13.289  0.00  0.00    +0.000 NA
ATOM     19  C   UNL     1      42.937   4.943  12.536  0.00  0.00    +0.000 A 
ATOM     20  C   UNL     1      43.021   3.994  11.546  0.00  0.00    +0.000 A 
ATOM     21  C   UNL     1      44.270   3.444  11.336  0.00  0.00    +0.000 A 
ATOM     22  N   UNL     1      45.345   3.787  12.083  0.00  0.00    +0.000 NA
BRANCH  21  23
ATOM     23  C   UNL     1      44.475   2.412  10.252  0.00  0.00    +0.000 C 
BRANCH  23  24
ATOM     24  O   UNL     1      44.388   3.056   8.985  0.00  0.00    +0.000 OA
BRANCH  24  25
ATOM     25  C   UNL     1      45.515   2.805   8.235  0.00  0.00    +0.000 A 
ATOM     26  N   UNL     1      45.969   1.547   8.292  0.00  0.00    +0.000 NA
ATOM     27  C   UNL     1      47.056   1.280   7.546  0.00  0.00    +0.000 A 
ATOM     28  C   UNL     1      47.674   2.212   6.745  0.00  0.00    +0.000 A 
ATOM     29  C   UNL     1      47.109   3.465   6.745  0.00  0.00    +0.000 A 
ATOM     30  N   UNL     1      46.029   3.792   7.480  0.00  0.00    +0.000 NA
ENDBRANCH  24  25
ENDBRANCH  23  24
ENDBRANCH  21  23
ENDBRANCH  16  17
ENDBRANCH   3  16
TORSDOF 6
ENDMDL
MODEL 6
REMARK VINA RESULT:    -7.359      1.961      2.726
REMARK INTER + INTRA:         -11.170
REMARK INTER:                 -10.609
REMARK INTRA:                  -0.561
REMARK UNBOUND:                -1.229
REMARK  Name = 
REMARK  6 active torsions:
REMARK  status: ('A' for Active; 'I' for Inactive)
REMARK    1  A    between atoms: C_2  and  C_19
REMARK    2  A    between atoms: N_3  and  C_4
REMARK    3  A    between atoms: C_4  and  C_5
REMARK    4  A    between atoms: C_9  and  C_10
REMARK    5  A    between atoms: C_10  and  O_11
REMARK    6  A    between atoms: O_11  and  C_12
REMARK                            x       y       z     vdW  Elec       q    Type
REMARK                         _______ _______ _______ _____ _____    ______ ____
ROOT
ATOM      1  O   UNL     1      48.709   5.625  15.260  0.00  0.00    +0.000 OA
ATOM      2  C   UNL     1      47.931   4.979  15.953  0.00  0.00    +0.000 C 
ATOM      3  N   UNL     1      47.048   4.049  15.471  0.00  0.00    +0.000 N 
ATOM      4  H   UNL     1      46.623   3.407  16.128  0.00  0.00    +0.000 HD
ENDROOT
BRANCH   2   5
ATOM      5  C   UNL     1      47.973   4.959  17.408  0.00  0.00    +0.000 A 
ATOM      6  C   UNL     1      46.951   5.455  18.193  0.00  0.00    +0.000 A 
ATOM      7  S   UNL     1      47.483   5.785  19.791  0.00  0.00    +0.000 S 
ATOM      8  C   UNL     1      49.032   5.147  19.470  0.00  0.00    +0.000 A 
ATOM      9  N   UNL     1      50.057   5.231  20.360  0.00  0.00    +0.000 NA
ATOM     10  C   UNL     1      51.145   4.650  19.968  0.00  0.00    +0.000 A 
ATOM     11  N   UNL     1      51.288   3.959  18.788  0.00  0.00    +0.000 N 
ATOM     12  C   UNL     1      50.278   3.825  17.875  0.00  0.00    +0.000 A 
ATOM     13  O   UNL     1      50.388   3.122  16.877  0.00  0.00    +0.000 OA
ATOM     14  C   UNL     1      49.085   4.572  18.219  0.00  0.00    +0.000 A 
ATOM     15  H   UNL     1      52.140   3.449  18.589  0.00  0.00    +0.000 HD
ENDBRANCH   2   5
BRANCH   3  16
ATOM     16  C   UNL     1      47.058   3.595  14.098  0.00  0.00    +0.000 C 
BRANCH  16  17
ATOM     17  C   UNL     1      46.003   4.314  13.283  0.00  0.00    +0.000 A 
ATOM     18  N   UNL     1      45.764   5.610  13.581  0.00  0.00    +0.000 NA
ATOM     19  C   UNL     1      44.864   6.248  12.808  0.00  0.00    +0.000 A 
ATOM     20  C   UNL     1      44.232   5.662  11.738  0.00  0.00    +0.000 A 
ATOM     21  C   UNL     1      44.581   4.353  11.467  0.00  0.00    +0.000 A 
ATOM     22  N   UNL     1      45.466   3.670  12.230  0.00  0.00    +0.000 NA
BRANCH  21  23
ATOM     23  C   UNL     1      43.964   3.628  10.295  0.00  0.00    +0.000 C 
BRANCH  23  24
ATOM     24  O   UNL     1      44.667   2.405  10.093  0.00  0.00    +0.000 OA
BRANCH  24  25
ATOM     25  C   UNL     1      45.403   2.456   8.931  0.00  0.00    +0.000 A 
ATOM     26  N   UNL     1      45.444   3.653   8.333  0.00  0.00    +0.000 NA
ATOM     27  C   UNL     1      46.179   3.723   7.208  0.00  0.00    +0.000 A 
ATOM     28  C   UNL     1      46.878   2.658   6.690  0.00  0.00    +0.000 A 
ATOM     29  C   UNL     1      46.783   1.484   7.400  0.00  0.00    +0.000 A 
ATOM     30  N   UNL     1      46.055   1.352   8.524  0.00  0.00    +0.000 NA
ENDBRANCH  24  25
ENDBRANCH  23  24
ENDBRANCH  21  23
ENDBRANCH  16  17
ENDBRANCH   3  16
TORSDOF 6
ENDMDL
MODEL 7
REMARK VINA RESULT:    -7.314      1.816      3.140
REMARK INTER + INTRA:         -11.108
REMARK INTER:                 -10.228
REMARK INTRA:                  -0.880
REMARK UNBOUND:                -1.229
REMARK  Name = 
REMARK  6 active torsions:
REMARK  status: ('A' for Active; 'I' for Inactive)
REMARK    1  A    between atoms: C_2  and  C_19
REMARK    2  A    between atoms: N_3  and  C_4
REMARK    3  A    between atoms: C_4  and  C_5
REMARK    4  A    between atoms: C_9  and  C_10
REMARK    5  A    between atoms: C_10  and  O_11
REMARK    6  A    between atoms: O_11  and  C_12
REMARK                            x       y       z     vdW  Elec       q    Type
REMARK                         _______ _______ _______ _____ _____    ______ ____
ROOT
ATOM      1  O   UNL     1      48.297   3.078  16.343  0.00  0.00    +0.000 OA
ATOM      2  C   UNL     1      47.963   4.252  16.233  0.00  0.00    +0.000 C 
ATOM      3  N   UNL     1      47.141   4.738  15.249  0.00  0.00    +0.000 N 
ATOM      4  H   UNL     1      46.736   5.657  15.375  0.00  0.00    +0.000 HD
ENDROOT
BRANCH   2   5
ATOM      5  C   UNL     1      48.226   5.264  17.245  0.00  0.00    +0.000 A 
ATOM      6  C   UNL     1      48.022   5.045  18.594  0.00  0.00    +0.000 A 
ATOM      7  S   UNL     1      47.897   6.519  19.463  0.00  0.00    +0.000 S 
ATOM      8  C   UNL     1      48.243   7.439  18.069  0.00  0.00    +0.000 A 
ATOM      9  N   UNL     1      48.167   8.797  18.050  0.00  0.00    +0.000 NA
ATOM     10  C   UNL     1      48.510   9.329  16.921  0.00  0.00    +0.000 A 
ATOM     11  N   UNL     1      48.963   8.631  15.827  0.00  0.00    +0.000 N 
ATOM     12  C   UNL     1      49.081   7.269  15.807  0.00  0.00    +0.000 A 
ATOM     13  O   UNL     1      49.581   6.669  14.862  0.00  0.00    +0.000 OA
ATOM     14  C   UNL     1      48.582   6.628  17.007  0.00  0.00    +0.000 A 
ATOM     15  H   UNL     1      49.304   9.120  15.008  0.00  0.00    +0.000 HD
ENDBRANCH   2   5
BRANCH   3  16
ATOM     16  C   UNL     1      46.430   3.880  14.327  0.00  0.00    +0.000 C 
BRANCH  16  17
ATOM     17  C   UNL     1      45.883   4.677  13.160  0.00  0.00    +0.000 A 
ATOM     18  N   UNL     1      46.185   5.993  13.111  0.00  0.00    +0.000 NA
ATOM     19  C   UNL     1      45.738   6.671  12.036  0.00  0.00    +0.000 A 
ATOM     20  C   UNL     1      45.047   6.086  11.003  0.00  0.00    +0.000 A 
ATOM     21  C   UNL     1      44.836   4.725  11.105  0.00  0.00    +0.000 A 
ATOM     22  N   UNL     1      45.250   4.010  12.177  0.00  0.00    +0.000 NA
BRANCH  21  23
ATOM     23  C   UNL     1      44.110   3.982  10.009  0.00  0.00    +0.000 C 
BRANCH  23  24
ATOM     24  O   UNL     1      44.616   4.417   8.751  0.00  0.00    +0.000 OA
BRANCH  24  25
ATOM     25  C   UNL     1      45.472   3.479   8.221  0.00  0.00    +0.000 A 
ATOM     26  N   UNL     1      46.370   3.953   7.349  0.00  0.00    +0.000 NA
ATOM     27  C   UNL     1      47.229   3.051   6.840  0.00  0.00    +0.000 A 
ATOM     28  C   UNL     1      47.229   1.721   7.190  0.00  0.00    +0.000 A 
ATOM     29  C   UNL     1      46.279   1.349   8.112  0.00  0.00    +0.000 A 
ATOM     30  N   UNL     1      45.387   2.205   8.645  0.00  0.00    +0.000 NA
ENDBRANCH  24  25
ENDBRANCH  23  24
ENDBRANCH  21  23
ENDBRANCH  16  17
ENDBRANCH   3  16
TORSDOF 6
ENDMDL
MODEL 8
REMARK VINA RESULT:    -7.026      1.835      3.525
REMARK INTER + INTRA:         -10.719
REMARK INTER:                  -9.907
REMARK INTRA:                  -0.812
REMARK UNBOUND:                -1.229
REMARK  Name = 
REMARK  6 active torsions:
REMARK  status: ('A' for Active; 'I' for Inactive)
REMARK    1  A    between atoms: C_2  and  C_19
REMARK    2  A    between atoms: N_3  and  C_4
REMARK    3  A    between atoms: C_4  and  C_5
REMARK    4  A    between atoms: C_9  and  C_10
REMARK    5  A    between atoms: C_10  and  O_11
REMARK    6  A    between atoms: O_11  and  C_12
REMARK                            x       y       z     vdW  Elec       q    Type
REMARK                         _______ _______ _______ _____ _____    ______ ____
ROOT
ATOM      1  O   UNL     1      48.365   5.065  16.187  0.00  0.00    +0.000 OA
ATOM      2  C   UNL     1      48.119   5.865  15.291  0.00  0.00    +0.000 C 
ATOM      3  N   UNL     1      47.227   5.642  14.273  0.00  0.00    +0.000 N 
ATOM      4  H   UNL     1      46.918   6.436  13.726  0.00  0.00    +0.000 HD
ENDROOT
BRANCH   2   5
ATOM      5  C   UNL     1      48.585   7.243  15.289  0.00  0.00    +0.000 A 
ATOM      6  C   UNL     1      48.686   8.001  16.439  0.00  0.00    +0.000 A 
ATOM      7  S   UNL     1      48.737   9.680  16.089  0.00  0.00    +0.000 S 
ATOM      8  C   UNL     1      48.755   9.390  14.409  0.00  0.00    +0.000 A 
ATOM      9  N   UNL     1      48.659  10.389  13.492  0.00  0.00    +0.000 NA
ATOM     10  C   UNL     1      48.738   9.989  12.263  0.00  0.00    +0.000 A 
ATOM     11  N   UNL     1      48.947   8.687  11.872  0.00  0.00    +0.000 N 
ATOM     12  C   UNL     1      49.076   7.653  12.757  0.00  0.00    +0.000 A 
ATOM     13  O   UNL     1      49.363   6.517  12.398  0.00  0.00    +0.000 OA
ATOM     14  C   UNL     1      48.862   8.043  14.137  0.00  0.00    +0.000 A 
ATOM     15  H   UNL     1      49.094   8.459  10.896  0.00  0.00    +0.000 HD
ENDBRANCH   2   5
BRANCH   3  16
ATOM     16  C   UNL     1      46.341   4.500  14.242  0.00  0.00    +0.000 C 
BRANCH  16  17
ATOM     17  C   UNL     1      45.250   4.690  13.208  0.00  0.00    +0.000 A 
ATOM     18  N   UNL     1      44.464   5.782  13.328  0.00  0.00    +0.000 NA
ATOM     19  C   UNL     1      43.538   5.963  12.367  0.00  0.00    +0.000 A 
ATOM     20  C   UNL     1      43.396   5.131  11.283  0.00  0.00    +0.000 A 
ATOM     21  C   UNL     1      44.282   4.074  11.207  0.00  0.00    +0.000 A 
ATOM     22  N   UNL     1      45.214   3.845  12.161  0.00  0.00    +0.000 NA
BRANCH  21  23
ATOM     23  C   UNL     1      44.228   3.117  10.040  0.00  0.00    +0.000 C 
BRANCH  23  24
ATOM     24  O   UNL     1      44.619   3.812   8.860  0.00  0.00    +0.000 OA
BRANCH  24  25
ATOM     25  C   UNL     1      45.509   3.061   8.127  0.00  0.00    +0.000 A 
ATOM     26  N   UNL     1      46.057   3.687   7.079  0.00  0.00    +0.000 NA
ATOM     27  C   UNL     1      46.947   2.972   6.366  0.00  0.00    +0.000 A 
ATOM     28  C   UNL     1      47.311   1.684   6.679  0.00  0.00    +0.000 A 
ATOM     29  C   UNL     1      46.703   1.148   7.790  0.00  0.00    +0.000 A 
ATOM     30  N   UNL     1      45.798   1.812   8.534  0.00  0.00    +0.000 NA
ENDBRANCH  24  25
ENDBRANCH  23  24
ENDBRANCH  21  23
ENDBRANCH  16  17
ENDBRANCH   3  16
TORSDOF 6
ENDMDL
MODEL 9
REMARK VINA RESULT:    -6.988      1.966      3.043
REMARK INTER + INTRA:         -10.668
REMARK INTER:                  -9.817
REMARK INTRA:                  -0.851
REMARK UNBOUND:                -1.229
REMARK  Name = 
REMARK  6 active torsions:
REMARK  status: ('A' for Active; 'I' for Inactive)
REMARK    1  A    between atoms: C_2  and  C_19
REMARK    2  A    between atoms: N_3  and  C_4
REMARK    3  A    between atoms: C_4  and  C_5
REMARK    4  A    between atoms: C_9  and  C_10
REMARK    5  A    between atoms: C_10  and  O_11
REMARK    6  A    between atoms: O_11  and  C_12
REMARK                            x       y       z     vdW  Elec       q    Type
REMARK                         _______ _______ _______ _____ _____    ______ ____
ROOT
ATOM      1  O   UNL     1      49.225   6.634  12.860  0.00  0.00    +0.000 OA
ATOM      2  C   UNL     1      48.483   7.199  13.656  0.00  0.00    +0.000 C 
ATOM      3  N   UNL     1      47.247   7.703  13.344  0.00  0.00    +0.000 N 
ATOM      4  H   UNL     1      46.619   7.934  14.103  0.00  0.00    +0.000 HD
ENDROOT
BRANCH   2   5
ATOM      5  C   UNL     1      48.719   7.238  15.091  0.00  0.00    +0.000 A 
ATOM      6  C   UNL     1      48.885   6.098  15.854  0.00  0.00    +0.000 A 
ATOM      7  S   UNL     1      48.612   6.406  17.520  0.00  0.00    +0.000 S 
ATOM      8  C   UNL     1      48.404   8.075  17.238  0.00  0.00    +0.000 A 
ATOM      9  N   UNL     1      48.005   8.938  18.210  0.00  0.00    +0.000 NA
ATOM     10  C   UNL     1      47.946  10.174  17.829  0.00  0.00    +0.000 A 
ATOM     11  N   UNL     1      48.292  10.629  16.578  0.00  0.00    +0.000 N 
ATOM     12  C   UNL     1      48.724   9.803  15.577  0.00  0.00    +0.000 A 
ATOM     13  O   UNL     1      49.124  10.234  14.501  0.00  0.00    +0.000 OA
ATOM     14  C   UNL     1      48.677   8.398  15.926  0.00  0.00    +0.000 A 
ATOM     15  H   UNL     1      48.313  11.621  16.378  0.00  0.00    +0.000 HD
ENDBRANCH   2   5
BRANCH   3  16
ATOM     16  C   UNL     1      46.601   7.466  12.072  0.00  0.00    +0.000 C 
BRANCH  16  17
ATOM     17  C   UNL     1      45.880   6.134  12.072  0.00  0.00    +0.000 A 
ATOM     18  N   UNL     1      45.571   5.595  13.272  0.00  0.00    +0.000 NA
ATOM     19  C   UNL     1      44.879   4.440  13.250  0.00  0.00    +0.000 A 
ATOM     20  C   UNL     1      44.454   3.830  12.094  0.00  0.00    +0.000 A 
ATOM     21  C   UNL     1      44.761   4.481  10.915  0.00  0.00    +0.000 A 
ATOM     22  N   UNL     1      45.470   5.633  10.891  0.00  0.00    +0.000 NA
BRANCH  21  23
ATOM     23  C   UNL     1      44.315   3.909   9.591  0.00  0.00    +0.000 C 
BRANCH  23  24
ATOM     24  O   UNL     1      44.774   2.564   9.497  0.00  0.00    +0.000 OA
BRANCH  24  25
ATOM     25  C   UNL     1      45.650   2.423   8.445  0.00  0.00    +0.000 A 
ATOM     26  N   UNL     1      46.247   1.228   8.356  0.00  0.00    +0.000 NA
ATOM     27  C   UNL     1      47.089   1.068   7.319  0.00  0.00    +0.000 A 
ATOM     28  C   UNL     1      47.327   2.041   6.376  0.00  0.00    +0.000 A 
ATOM     29  C   UNL     1      46.642   3.219   6.553  0.00  0.00    +0.000 A 
ATOM     30  N   UNL     1      45.796   3.440   7.577  0.00  0.00    +0.000 NA
ENDBRANCH  24  25
ENDBRANCH  23  24
ENDBRANCH  21  23
ENDBRANCH  16  17
ENDBRANCH   3  16
TORSDOF 6
ENDMDL
