MODEL 1
REMARK VINA RESULT:    -8.333      0.000      0.000
REMARK INTER + INTRA:          -8.985
REMARK INTER:                  -9.794
REMARK INTRA:                   0.809
REMARK UNBOUND:                 0.809
REMARK  Name = 
REMARK  6 active torsions:
REMARK  status: ('A' for Active; 'I' for Inactive)
REMARK    1  A    between atoms: C_1  and  N_2
REMARK    2  A    between atoms: C_3  and  C_5
REMARK    3  A    between atoms: N_9  and  C_10
REMARK    4  A    between atoms: C_10  and  C_11
REMARK    5  A    between atoms: C_10  and  C_12
REMARK    6  A    between atoms: C_16  and  C_17
REMARK                            x       y       z     vdW  Elec       q    Type
REMARK                         _______ _______ _______ _____ _____    ______ ____
ROOT
ATOM      1  C   UNL     1      46.993   5.578  13.589  0.00  0.00    +0.000 A 
ATOM      2  C   UNL     1      47.165   4.211  13.794  0.00  0.00    +0.000 A 
ATOM      3  C   UNL     1      46.254   3.317  13.217  0.00  0.00    +0.000 A 
ATOM      4  C   UNL     1      45.246   3.795  12.382  0.00  0.00    +0.000 A 
ATOM      5  N   UNL     1      44.480   2.873  11.667  0.00  0.00    +0.000 N 
ATOM      6  N   UNL     1      45.036   5.117  12.234  0.00  0.00    +0.000 NA
ATOM      7  C   UNL     1      45.884   5.977  12.859  0.00  0.00    +0.000 A 
ATOM      8  H   UNL     1      43.827   2.369  12.256  0.00  0.00    +0.000 HD
ENDROOT
BRANCH   1  11
ATOM      9  C   UNL     1      48.253   8.957  14.727  0.00  0.00    +0.000 C 
ATOM     10  N   UNL     1      47.428   7.883  14.222  0.00  0.00    +0.000 N 
ATOM     11  C   UNL     1      47.925   6.605  14.111  0.00  0.00    +0.000 C 
ATOM     12  O   UNL     1      49.061   6.285  14.451  0.00  0.00    +0.000 OA
ATOM     13  H   UNL     1      46.443   8.068  14.080  0.00  0.00    +0.000 HD
ENDBRANCH   1  11
BRANCH   5  14
ATOM     14  C   UNL     1      43.949   3.295  10.363  0.00  0.00    +0.000 C 
ATOM     15  C   UNL     1      43.418   4.723  10.562  0.00  0.00    +0.000 C 
BRANCH  14  16
ATOM     16  C   UNL     1      44.997   3.163   9.259  0.00  0.00    +0.000 A 
ATOM     17  C   UNL     1      45.520   4.256   8.546  0.00  0.00    +0.000 A 
ATOM     18  C   UNL     1      46.447   4.070   7.515  0.00  0.00    +0.000 A 
ATOM     19  C   UNL     1      46.893   2.791   7.192  0.00  0.00    +0.000 A 
ATOM     20  C   UNL     1      46.386   1.685   7.878  0.00  0.00    +0.000 A 
ATOM     21  C   UNL     1      46.879   0.297   7.594  0.00  0.00    +0.000 C 
ATOM     22  C   UNL     1      45.422   1.877   8.881  0.00  0.00    +0.000 A 
ENDBRANCH  14  16
ENDBRANCH   5  14
TORSDOF 3
ENDMDL
MODEL 2
REMARK VINA RESULT:    -7.897      1.921      2.928
REMARK INTER + INTRA:          -8.474
REMARK INTER:                  -7.985
REMARK INTRA:                  -0.489
REMARK UNBOUND:                 0.809
REMARK  Name = 
REMARK  6 active torsions:
REMARK  status: ('A' for Active; 'I' for Inactive)
REMARK    1  A    between atoms: C_1  and  N_2
REMARK    2  A    between atoms: C_3  and  C_5
REMARK    3  A    between atoms: N_9  and  C_10
REMARK    4  A    between atoms: C_10  and  C_11
REMARK    5  A    between atoms: C_10  and  C_12
REMARK    6  A    between atoms: C_16  and  C_17
REMARK                            x       y       z     vdW  Elec       q    Type
REMARK                         _______ _______ _______ _____ _____    ______ ____
ROOT
ATOM      1  C   UNL     1      47.195   8.369  13.398  0.00  0.00    +0.000 A 
ATOM      2  C   UNL     1      46.260   9.109  12.680  0.00  0.00    +0.000 A 
ATOM      3  C   UNL     1      45.436   8.453  11.756  0.00  0.00    +0.000 A 
ATOM      4  C   UNL     1      45.502   7.066  11.630  0.00  0.00    +0.000 A 
ATOM      5  N   UNL     1      44.539   6.422  10.853  0.00  0.00    +0.000 N 
ATOM      6  N   UNL     1      46.449   6.355  12.272  0.00  0.00    +0.000 NA
ATOM      7  C   UNL     1      47.291   7.016  13.111  0.00  0.00    +0.000 A 
ATOM      8  H   UNL     1      44.675   6.573   9.860  0.00  0.00    +0.000 HD
ENDROOT
BRANCH   1  11
ATOM      9  C   UNL     1      48.326   9.643  16.774  0.00  0.00    +0.000 C 
ATOM     10  N   UNL     1      47.544   9.089  15.692  0.00  0.00    +0.000 N 
ATOM     11  C   UNL     1      48.080   8.955  14.432  0.00  0.00    +0.000 C 
ATOM     12  O   UNL     1      49.237   9.257  14.149  0.00  0.00    +0.000 OA
ATOM     13  H   UNL     1      46.645   8.683  15.916  0.00  0.00    +0.000 HD
ENDBRANCH   1  11
BRANCH   5  14
ATOM     14  C   UNL     1      44.163   5.052  11.231  0.00  0.00    +0.000 C 
ATOM     15  C   UNL     1      42.652   5.086  11.507  0.00  0.00    +0.000 C 
BRANCH  14  16
ATOM     16  C   UNL     1      44.586   4.039  10.169  0.00  0.00    +0.000 A 
ATOM     17  C   UNL     1      44.204   2.685  10.187  0.00  0.00    +0.000 A 
ATOM     18  C   UNL     1      44.657   1.792   9.210  0.00  0.00    +0.000 A 
ATOM     19  C   UNL     1      45.477   2.239   8.177  0.00  0.00    +0.000 A 
ATOM     20  C   UNL     1      45.879   3.576   8.136  0.00  0.00    +0.000 A 
ATOM     21  C   UNL     1      46.720   4.104   7.012  0.00  0.00    +0.000 C 
ATOM     22  C   UNL     1      45.456   4.454   9.147  0.00  0.00    +0.000 A 
ENDBRANCH  14  16
ENDBRANCH   5  14
TORSDOF 3
ENDMDL
MODEL 3
REMARK VINA RESULT:    -7.544      2.131      3.099
REMARK INTER + INTRA:          -8.059
REMARK INTER:                  -7.580
REMARK INTRA:                  -0.478
REMARK UNBOUND:                 0.809
REMARK  Name = 
REMARK  6 active torsions:
REMARK  status: ('A' for Active; 'I' for Inactive)
REMARK    1  A    between atoms: C_1  and  N_2
REMARK    2  A    between atoms: C_3  and  C_5
REMARK    3  A    between atoms: N_9  and  C_10
REMARK    4  A    between atoms: C_10  and  C_11
REMARK    5  A    between atoms: C_10  and  C_12
REMARK    6  A    between atoms: C_16  and  C_17
REMARK                            x       y       z     vdW  Elec       q    Type
REMARK                         _______ _______ _______ _____ _____    ______ ____
ROOT
ATOM      1  C   UNL     1      47.894   5.342  15.417  0.00  0.00    +0.000 A 
ATOM      2  C   UNL     1      48.168   6.530  14.746  0.00  0.00    +0.000 A 
ATOM      3  C   UNL     1      47.635   6.728  13.466  0.00  0.00    +0.000 A 
ATOM      4  C   UNL     1      46.773   5.778  12.919  0.00  0.00    +0.000 A 
ATOM      5  N   UNL     1      46.104   6.090  11.735  0.00  0.00    +0.000 N 
ATOM      6  N   UNL     1      46.559   4.599  13.535  0.00  0.00    +0.000 NA
ATOM      7  C   UNL     1      47.142   4.390  14.745  0.00  0.00    +0.000 A 
ATOM      8  H   UNL     1      46.716   6.079  10.927  0.00  0.00    +0.000 HD
ENDROOT
BRANCH   1  11
ATOM      9  C   UNL     1      48.120   5.516  19.188  0.00  0.00    +0.000 C 
ATOM     10  N   UNL     1      47.738   5.731  17.811  0.00  0.00    +0.000 N 
ATOM     11  C   UNL     1      48.366   5.053  16.792  0.00  0.00    +0.000 C 
ATOM     12  O   UNL     1      49.249   4.218  16.974  0.00  0.00    +0.000 OA
ATOM     13  H   UNL     1      46.914   6.289  17.628  0.00  0.00    +0.000 HD
ENDBRANCH   1  11
BRANCH   5  14
ATOM     14  C   UNL     1      44.779   5.489  11.524  0.00  0.00    +0.000 C 
ATOM     15  C   UNL     1      43.832   6.654  11.196  0.00  0.00    +0.000 C 
BRANCH  14  16
ATOM     16  C   UNL     1      44.820   4.395  10.459  0.00  0.00    +0.000 A 
ATOM     17  C   UNL     1      44.193   3.144  10.601  0.00  0.00    +0.000 A 
ATOM     18  C   UNL     1      44.301   2.164   9.609  0.00  0.00    +0.000 A 
ATOM     19  C   UNL     1      45.014   2.422   8.441  0.00  0.00    +0.000 A 
ATOM     20  C   UNL     1      45.653   3.652   8.273  0.00  0.00    +0.000 A 
ATOM     21  C   UNL     1      46.386   3.985   7.008  0.00  0.00    +0.000 C 
ATOM     22  C   UNL     1      45.577   4.613   9.294  0.00  0.00    +0.000 A 
ENDBRANCH  14  16
ENDBRANCH   5  14
TORSDOF 3
ENDMDL
MODEL 4
REMARK VINA RESULT:    -7.410      2.675      6.354
REMARK INTER + INTRA:          -7.901
REMARK INTER:                  -8.231
REMARK INTRA:                   0.331
REMARK UNBOUND:                 0.809
REMARK  Name = 
REMARK  6 active torsions:
REMARK  status: ('A' for Active; 'I' for Inactive)
REMARK    1  A    between atoms: C_1  and  N_2
REMARK    2  A    between atoms: C_3  and  C_5
REMARK    3  A    between atoms: N_9  and  C_10
REMARK    4  A    between atoms: C_10  and  C_11
REMARK    5  A    between atoms: C_10  and  C_12
REMARK    6  A    between atoms: C_16  and  C_17
REMARK                            x       y       z     vdW  Elec       q    Type
REMARK                         _______ _______ _______ _____ _____    ______ ____
ROOT
ATOM      1  C   UNL     1      45.304   2.835   8.889  0.00  0.00    +0.000 A 
ATOM      2  C   UNL     1      44.801   4.034   8.389  0.00  0.00    +0.000 A 
ATOM      3  C   UNL     1      44.010   4.838   9.219  0.00  0.00    +0.000 A 
ATOM      4  C   UNL     1      43.808   4.476  10.550  0.00  0.00    +0.000 A 
ATOM      5  N   UNL     1      43.185   5.389  11.402  0.00  0.00    +0.000 N 
ATOM      6  N   UNL     1      44.235   3.287  11.018  0.00  0.00    +0.000 NA
ATOM      7  C   UNL     1      44.941   2.482  10.179  0.00  0.00    +0.000 A 
ATOM      8  H   UNL     1      42.192   5.478  11.219  0.00  0.00    +0.000 HD
ENDROOT
BRANCH   1  11
ATOM      9  C   UNL     1      47.981   1.752   6.448  0.00  0.00    +0.000 C 
ATOM     10  N   UNL     1      47.069   2.540   7.245  0.00  0.00    +0.000 N 
ATOM     11  C   UNL     1      46.190   1.935   8.114  0.00  0.00    +0.000 C 
ATOM     12  O   UNL     1      46.138   0.721   8.292  0.00  0.00    +0.000 OA
ATOM     13  H   UNL     1      47.186   3.545   7.246  0.00  0.00    +0.000 HD
ENDBRANCH   1  11
BRANCH   5  14
ATOM     14  C   UNL     1      43.559   5.358  12.823  0.00  0.00    +0.000 C 
ATOM     15  C   UNL     1      43.112   3.986  13.350  0.00  0.00    +0.000 C 
BRANCH  14  16
ATOM     16  C   UNL     1      45.045   5.653  13.021  0.00  0.00    +0.000 A 
ATOM     17  C   UNL     1      45.931   4.786  13.686  0.00  0.00    +0.000 A 
ATOM     18  C   UNL     1      47.274   5.128  13.875  0.00  0.00    +0.000 A 
ATOM     19  C   UNL     1      47.768   6.331  13.378  0.00  0.00    +0.000 A 
ATOM     20  C   UNL     1      46.912   7.216  12.719  0.00  0.00    +0.000 A 
ATOM     21  C   UNL     1      47.419   8.497  12.125  0.00  0.00    +0.000 C 
ATOM     22  C   UNL     1      45.556   6.884  12.574  0.00  0.00    +0.000 A 
ENDBRANCH  14  16
ENDBRANCH   5  14
TORSDOF 3
ENDMDL
MODEL 5
REMARK VINA RESULT:    -6.943      2.946      7.762
REMARK INTER + INTRA:          -7.352
REMARK INTER:                  -6.852
REMARK INTRA:                  -0.500
REMARK UNBOUND:                 0.809
REMARK  Name = 
REMARK  6 active torsions:
REMARK  status: ('A' for Active; 'I' for Inactive)
REMARK    1  A    between atoms: C_1  and  N_2
REMARK    2  A    between atoms: C_3  and  C_5
REMARK    3  A    between atoms: N_9  and  C_10
REMARK    4  A    between atoms: C_10  and  C_11
REMARK    5  A    between atoms: C_10  and  C_12
REMARK    6  A    between atoms: C_16  and  C_17
REMARK                            x       y       z     vdW  Elec       q    Type
REMARK                         _______ _______ _______ _____ _____    ______ ____
ROOT
ATOM      1  C   UNL     1      44.998   4.446  11.741  0.00  0.00    +0.000 A 
ATOM      2  C   UNL     1      44.874   5.814  11.512  0.00  0.00    +0.000 A 
ATOM      3  C   UNL     1      45.571   6.707  12.336  0.00  0.00    +0.000 A 
ATOM      4  C   UNL     1      46.441   6.219  13.310  0.00  0.00    +0.000 A 
ATOM      5  N   UNL     1      47.267   7.123  13.978  0.00  0.00    +0.000 N 
ATOM      6  N   UNL     1      46.512   4.901  13.578  0.00  0.00    +0.000 NA
ATOM      7  C   UNL     1      45.773   4.048  12.818  0.00  0.00    +0.000 A 
ATOM      8  H   UNL     1      46.760   7.698  14.642  0.00  0.00    +0.000 HD
ENDROOT
BRANCH   1  11
ATOM      9  C   UNL     1      44.607   1.744   9.124  0.00  0.00    +0.000 C 
ATOM     10  N   UNL     1      45.146   2.770   9.987  0.00  0.00    +0.000 N 
ATOM     11  C   UNL     1      44.344   3.416  10.900  0.00  0.00    +0.000 C 
ATOM     12  O   UNL     1      43.155   3.155  11.064  0.00  0.00    +0.000 OA
ATOM     13  H   UNL     1      46.149   2.905   9.996  0.00  0.00    +0.000 HD
ENDBRANCH   1  11
BRANCH   5  14
ATOM     14  C   UNL     1      48.573   6.635  14.444  0.00  0.00    +0.000 C 
ATOM     15  C   UNL     1      49.624   7.550  13.797  0.00  0.00    +0.000 C 
BRANCH  14  16
ATOM     16  C   UNL     1      48.643   6.579  15.969  0.00  0.00    +0.000 A 
ATOM     17  C   UNL     1      48.816   7.712  16.784  0.00  0.00    +0.000 A 
ATOM     18  C   UNL     1      48.915   7.595  18.174  0.00  0.00    +0.000 A 
ATOM     19  C   UNL     1      48.815   6.347  18.783  0.00  0.00    +0.000 A 
ATOM     20  C   UNL     1      48.649   5.202  18.000  0.00  0.00    +0.000 A 
ATOM     21  C   UNL     1      48.486   3.847  18.622  0.00  0.00    +0.000 C 
ATOM     22  C   UNL     1      48.596   5.325  16.602  0.00  0.00    +0.000 A 
ENDBRANCH  14  16
ENDBRANCH   5  14
TORSDOF 3
ENDMDL
MODEL 6
REMARK VINA RESULT:    -6.919      4.172      7.487
REMARK INTER + INTRA:          -7.324
REMARK INTER:                  -6.829
REMARK INTRA:                  -0.495
REMARK UNBOUND:                 0.809
REMARK  Name = 
REMARK  6 active torsions:
REMARK  status: ('A' for Active; 'I' for Inactive)
REMARK    1  A    between atoms: C_1  and  N_2
REMARK    2  A    between atoms: C_3  and  C_5
REMARK    3  A    between atoms: N_9  and  C_10
REMARK    4  A    between atoms: C_10  and  C_11
REMARK    5  A    between atoms: C_10  and  C_12
REMARK    6  A    between atoms: C_16  and  C_17
REMARK                            x       y       z     vdW  Elec       q    Type
REMARK                         _______ _______ _______ _____ _____    ______ ____
ROOT
ATOM      1  C   UNL     1      46.065   5.776  12.960  0.00  0.00    +0.000 A 
ATOM      2  C   UNL     1      45.762   4.427  12.794  0.00  0.00    +0.000 A 
ATOM      3  C   UNL     1      46.442   3.477  13.566  0.00  0.00    +0.000 A 
ATOM      4  C   UNL     1      47.344   3.893  14.543  0.00  0.00    +0.000 A 
ATOM      5  N   UNL     1      47.855   2.941  15.427  0.00  0.00    +0.000 N 
ATOM      6  N   UNL     1      47.689   5.190  14.662  0.00  0.00    +0.000 NA
ATOM      7  C   UNL     1      47.074   6.095  13.855  0.00  0.00    +0.000 A 
ATOM      8  H   UNL     1      48.531   2.326  14.988  0.00  0.00    +0.000 HD
ENDROOT
BRANCH   1  11
ATOM      9  C   UNL     1      45.056   9.282  11.966  0.00  0.00    +0.000 C 
ATOM     10  N   UNL     1      45.672   8.150  12.618  0.00  0.00    +0.000 N 
ATOM     11  C   UNL     1      45.372   6.864  12.231  0.00  0.00    +0.000 C 
ATOM     12  O   UNL     1      44.605   6.593  11.311  0.00  0.00    +0.000 OA
ATOM     13  H   UNL     1      46.425   8.329  13.271  0.00  0.00    +0.000 HD
ENDBRANCH   1  11
BRANCH   5  14
ATOM     14  C   UNL     1      48.204   3.389  16.783  0.00  0.00    +0.000 C 
ATOM     15  C   UNL     1      47.159   2.763  17.719  0.00  0.00    +0.000 C 
BRANCH  14  16
ATOM     16  C   UNL     1      49.650   3.044  17.135  0.00  0.00    +0.000 A 
ATOM     17  C   UNL     1      50.194   1.753  17.019  0.00  0.00    +0.000 A 
ATOM     18  C   UNL     1      51.515   1.487  17.397  0.00  0.00    +0.000 A 
ATOM     19  C   UNL     1      52.328   2.512  17.873  0.00  0.00    +0.000 A 
ATOM     20  C   UNL     1      51.814   3.803  18.007  0.00  0.00    +0.000 A 
ATOM     21  C   UNL     1      52.674   4.943  18.467  0.00  0.00    +0.000 C 
ATOM     22  C   UNL     1      50.475   4.051  17.667  0.00  0.00    +0.000 A 
ENDBRANCH  14  16
ENDBRANCH   5  14
TORSDOF 3
ENDMDL
MODEL 7
REMARK VINA RESULT:    -6.750      3.903      5.977
REMARK INTER + INTRA:          -7.125
REMARK INTER:                  -6.709
REMARK INTRA:                  -0.416
REMARK UNBOUND:                 0.809
REMARK  Name = 
REMARK  6 active torsions:
REMARK  status: ('A' for Active; 'I' for Inactive)
REMARK    1  A    between atoms: C_1  and  N_2
REMARK    2  A    between atoms: C_3  and  C_5
REMARK    3  A    between atoms: N_9  and  C_10
REMARK    4  A    between atoms: C_10  and  C_11
REMARK    5  A    between atoms: C_10  and  C_12
REMARK    6  A    between atoms: C_16  and  C_17
REMARK                            x       y       z     vdW  Elec       q    Type
REMARK                         _______ _______ _______ _____ _____    ______ ____
ROOT
ATOM      1  C   UNL     1      49.376   4.410  17.987  0.00  0.00    +0.000 A 
ATOM      2  C   UNL     1      48.203   3.700  18.228  0.00  0.00    +0.000 A 
ATOM      3  C   UNL     1      47.170   3.753  17.283  0.00  0.00    +0.000 A 
ATOM      4  C   UNL     1      47.360   4.439  16.084  0.00  0.00    +0.000 A 
ATOM      5  N   UNL     1      46.397   4.310  15.083  0.00  0.00    +0.000 N 
ATOM      6  N   UNL     1      48.466   5.180  15.877  0.00  0.00    +0.000 NA
ATOM      7  C   UNL     1      49.430   5.179  16.836  0.00  0.00    +0.000 A 
ATOM      8  H   UNL     1      45.543   4.812  15.297  0.00  0.00    +0.000 HD
ENDROOT
BRANCH   1  11
ATOM      9  C   UNL     1      52.824   3.559  19.289  0.00  0.00    +0.000 C 
ATOM     10  N   UNL     1      51.630   3.645  18.479  0.00  0.00    +0.000 N 
ATOM     11  C   UNL     1      50.547   4.383  18.896  0.00  0.00    +0.000 C 
ATOM     12  O   UNL     1      50.527   5.030  19.941  0.00  0.00    +0.000 OA
ATOM     13  H   UNL     1      51.662   3.259  17.544  0.00  0.00    +0.000 HD
ENDBRANCH   1  11
BRANCH   5  14
ATOM     14  C   UNL     1      46.848   4.410  13.688  0.00  0.00    +0.000 C 
ATOM     15  C   UNL     1      46.132   3.282  12.928  0.00  0.00    +0.000 C 
BRANCH  14  16
ATOM     16  C   UNL     1      46.605   5.805  13.116  0.00  0.00    +0.000 A 
ATOM     17  C   UNL     1      45.327   6.368  12.949  0.00  0.00    +0.000 A 
ATOM     18  C   UNL     1      45.162   7.635  12.379  0.00  0.00    +0.000 A 
ATOM     19  C   UNL     1      46.273   8.380  11.991  0.00  0.00    +0.000 A 
ATOM     20  C   UNL     1      47.555   7.845  12.138  0.00  0.00    +0.000 A 
ATOM     21  C   UNL     1      48.777   8.637  11.779  0.00  0.00    +0.000 C 
ATOM     22  C   UNL     1      47.707   6.554  12.668  0.00  0.00    +0.000 A 
ENDBRANCH  14  16
ENDBRANCH   5  14
TORSDOF 3
ENDMDL
MODEL 8
REMARK VINA RESULT:    -6.300      2.927      5.033
REMARK INTER + INTRA:          -6.597
REMARK INTER:                  -6.111
REMARK INTRA:                  -0.486
REMARK UNBOUND:                 0.809
REMARK  Name = 
REMARK  6 active torsions:
REMARK  status: ('A' for Active; 'I' for Inactive)
REMARK    1  A    between atoms: C_1  and  N_2
REMARK    2  A    between atoms: C_3  and  C_5
REMARK    3  A    between atoms: N_9  and  C_10
REMARK    4  A    between atoms: C_10  and  C_11
REMARK    5  A    between atoms: C_10  and  C_12
REMARK    6  A    between atoms: C_16  and  C_17
REMARK                            x       y       z     vdW  Elec       q    Type
REMARK                         _______ _______ _______ _____ _____    ______ ____
ROOT
ATOM      1  C   UNL     1      50.431   8.450  12.608  0.00  0.00    +0.000 A 
ATOM      2  C   UNL     1      49.862   8.814  13.825  0.00  0.00    +0.000 A 
ATOM      3  C   UNL     1      48.621   8.272  14.185  0.00  0.00    +0.000 A 
ATOM      4  C   UNL     1      48.016   7.319  13.367  0.00  0.00    +0.000 A 
ATOM      5  N   UNL     1      46.886   6.654  13.844  0.00  0.00    +0.000 N 
ATOM      6  N   UNL     1      48.529   7.015  12.160  0.00  0.00    +0.000 NA
ATOM      7  C   UNL     1      49.699   7.603  11.790  0.00  0.00    +0.000 A 
ATOM      8  H   UNL     1      46.062   7.245  13.855  0.00  0.00    +0.000 HD
ENDROOT
BRANCH   1  11
ATOM      9  C   UNL     1      54.138   8.402  11.863  0.00  0.00    +0.000 C 
ATOM     10  N   UNL     1      52.804   8.039  12.282  0.00  0.00    +0.000 N 
ATOM     11  C   UNL     1      51.759   8.925  12.153  0.00  0.00    +0.000 C 
ATOM     12  O   UNL     1      51.874  10.044  11.659  0.00  0.00    +0.000 OA
ATOM     13  H   UNL     1      52.634   7.077  12.547  0.00  0.00    +0.000 HD
ENDBRANCH   1  11
BRANCH   5  14
ATOM     14  C   UNL     1      46.661   5.277  13.381  0.00  0.00    +0.000 C 
ATOM     15  C   UNL     1      46.738   4.390  14.634  0.00  0.00    +0.000 C 
BRANCH  14  16
ATOM     16  C   UNL     1      45.352   5.151  12.602  0.00  0.00    +0.000 A 
ATOM     17  C   UNL     1      44.089   5.444  13.147  0.00  0.00    +0.000 A 
ATOM     18  C   UNL     1      42.920   5.269  12.399  0.00  0.00    +0.000 A 
ATOM     19  C   UNL     1      42.990   4.825  11.080  0.00  0.00    +0.000 A 
ATOM     20  C   UNL     1      44.230   4.520  10.514  0.00  0.00    +0.000 A 
ATOM     21  C   UNL     1      44.349   4.089   9.082  0.00  0.00    +0.000 C 
ATOM     22  C   UNL     1      45.394   4.656  11.287  0.00  0.00    +0.000 A 
ENDBRANCH  14  16
ENDBRANCH   5  14
TORSDOF 3
ENDMDL
MODEL 9
REMARK VINA RESULT:    -6.246      4.020      6.656
REMARK INTER + INTRA:          -6.533
REMARK INTER:                  -5.993
REMARK INTRA:                  -0.540
REMARK UNBOUND:                 0.809
REMARK  Name = 
REMARK  6 active torsions:
REMARK  status: ('A' for Active; 'I' for Inactive)
REMARK    1  A    between atoms: C_1  and  N_2
REMARK    2  A    between atoms: C_3  and  C_5
REMARK    3  A    between atoms: N_9  and  C_10
REMARK    4  A    between atoms: C_10  and  C_11
REMARK    5  A    between atoms: C_10  and  C_12
REMARK    6  A    between atoms: C_16  and  C_17
REMARK                            x       y       z     vdW  Elec       q    Type
REMARK                         _______ _______ _______ _____ _____    ______ ____
ROOT
ATOM      1  C   UNL     1      45.988   5.607  12.795  0.00  0.00    +0.000 A 
ATOM      2  C   UNL     1      46.856   5.285  13.834  0.00  0.00    +0.000 A 
ATOM      3  C   UNL     1      48.154   5.813  13.825  0.00  0.00    +0.000 A 
ATOM      4  C   UNL     1      48.529   6.715  12.831  0.00  0.00    +0.000 A 
ATOM      5  N   UNL     1      49.752   7.374  12.958  0.00  0.00    +0.000 N 
ATOM      6  N   UNL     1      47.716   6.978  11.790  0.00  0.00    +0.000 NA
ATOM      7  C   UNL     1      46.485   6.400  11.773  0.00  0.00    +0.000 A 
ATOM      8  H   UNL     1      50.543   6.766  12.779  0.00  0.00    +0.000 HD
ENDROOT
BRANCH   1  11
ATOM      9  C   UNL     1      42.338   5.505  11.808  0.00  0.00    +0.000 C 
ATOM     10  N   UNL     1      43.728   5.877  11.942  0.00  0.00    +0.000 N 
ATOM     11  C   UNL     1      44.581   5.143  12.733  0.00  0.00    +0.000 C 
ATOM     12  O   UNL     1      44.243   4.131  13.341  0.00  0.00    +0.000 OA
ATOM     13  H   UNL     1      44.084   6.607  11.338  0.00  0.00    +0.000 HD
ENDBRANCH   1  11
BRANCH   5  14
ATOM     14  C   UNL     1      49.860   8.724  12.386  0.00  0.00    +0.000 C 
ATOM     15  C   UNL     1      50.093   9.671  13.574  0.00  0.00    +0.000 C 
BRANCH  14  16
ATOM     16  C   UNL     1      50.939   8.794  11.307  0.00  0.00    +0.000 A 
ATOM     17  C   UNL     1      51.365   9.992  10.706  0.00  0.00    +0.000 A 
ATOM     18  C   UNL     1      52.328   9.990   9.691  0.00  0.00    +0.000 A 
ATOM     19  C   UNL     1      52.907   8.795   9.274  0.00  0.00    +0.000 A 
ATOM     20  C   UNL     1      52.499   7.588   9.847  0.00  0.00    +0.000 A 
ATOM     21  C   UNL     1      53.135   6.286   9.460  0.00  0.00    +0.000 C 
ATOM     22  C   UNL     1      51.500   7.595  10.833  0.00  0.00    +0.000 A 
ENDBRANCH  14  16
ENDBRANCH   5  14
TORSDOF 3
ENDMDL
