MODEL 1
REMARK VINA RESULT:    -8.177      0.000      0.000
REMARK INTER + INTRA:         -12.991
REMARK INTER:                 -12.002
REMARK INTRA:                  -0.990
REMARK UNBOUND:                -0.990
REMARK  Name = 
REMARK  11 active torsions:
REMARK  status: ('A' for Active; 'I' for Inactive)
REMARK    1  A    between atoms: C_1  and  O_2
REMARK    2  A    between atoms: O_2  and  C_3
REMARK    3  A    between atoms: C_5  and  C_6
REMARK    4  A    between atoms: C_11  and  N_12
REMARK    5  A    between atoms: N_12  and  C_13
REMARK    6  A    between atoms: C_13  and  C_14
REMARK    7  A    between atoms: C_18  and  C_19
REMARK    8  A    between atoms: C_23  and  N_24
REMARK    9  A    between atoms: N_24  and  C_25
REMARK   10  A    between atoms: C_25  and  C_26
REMARK   11  A    between atoms: C_25  and  C_27
REMARK                            x       y       z     vdW  Elec       q    Type
REMARK                         _______ _______ _______ _____ _____    ______ ____
ROOT
ATOM      1  C   UNL     1      45.329   6.089  12.094  0.00  0.00    +0.000 A 
ATOM      2  C   UNL     1      46.171   6.962  11.396  0.00  0.00    +0.000 A 
ATOM      3  C   UNL     1      47.499   7.113  11.777  0.00  0.00    +0.000 A 
ATOM      4  C   UNL     1      47.969   6.438  12.899  0.00  0.00    +0.000 A 
ATOM      5  C   UNL     1      47.131   5.610  13.675  0.00  0.00    +0.000 A 
ATOM      6  C   UNL     1      45.825   5.396  13.216  0.00  0.00    +0.000 A 
ENDROOT
BRANCH   5   7
ATOM      7  C   UNL     1      47.588   5.096  14.981  0.00  0.00    +0.000 A 
ATOM      8  C   UNL     1      47.078   3.892  15.468  0.00  0.00    +0.000 A 
ATOM      9  C   UNL     1      47.510   3.419  16.693  0.00  0.00    +0.000 A 
ATOM     10  C   UNL     1      48.456   4.153  17.388  0.00  0.00    +0.000 A 
ATOM     11  C   UNL     1      48.996   5.312  16.824  0.00  0.00    +0.000 A 
ATOM     12  N   UNL     1      48.568   5.782  15.633  0.00  0.00    +0.000 NA
BRANCH  11  13
ATOM     13  N   UNL     1      50.069   5.897  17.488  0.00  0.00    +0.000 N 
ATOM     14  H   UNL     1      49.859   6.778  17.939  0.00  0.00    +0.000 HD
BRANCH  13  15
ATOM     15  C   UNL     1      51.439   5.671  17.046  0.00  0.00    +0.000 C 
ATOM     16  C   UNL     1      52.034   6.844  16.274  0.00  0.00    +0.000 C 
ATOM     17  C   UNL     1      52.284   5.417  18.300  0.00  0.00    +0.000 C 
ENDBRANCH  13  15
ENDBRANCH  11  13
ENDBRANCH   5   7
BRANCH   1  18
ATOM     18  C   UNL     1      43.901   5.908  11.644  0.00  0.00    +0.000 C 
BRANCH  18  19
ATOM     19  N   UNL     1      43.810   5.536  10.254  0.00  0.00    +0.000 N 
ATOM     20  H   UNL     1      43.405   6.171   9.583  0.00  0.00    +0.000 HD
BRANCH  19  26
ATOM     21  C   UNL     1      44.212   3.103  10.035  0.00  0.00    +0.000 A 
ATOM     22  C   UNL     1      44.945   2.106   9.382  0.00  0.00    +0.000 A 
ATOM     23  C   UNL     1      45.874   2.438   8.402  0.00  0.00    +0.000 A 
ATOM     24  C   UNL     1      46.047   3.782   8.129  0.00  0.00    +0.000 A 
ATOM     25  N   UNL     1      45.380   4.782   8.766  0.00  0.00    +0.000 NA
ATOM     26  C   UNL     1      44.457   4.455   9.701  0.00  0.00    +0.000 A 
BRANCH  23  27
ATOM     27  C   UNL     1      46.587   1.333   7.720  0.00  0.00    +0.000 C 
ATOM     28  N   UNL     1      47.479   1.623   6.732  0.00  0.00    +0.000 N 
ATOM     29  O   UNL     1      46.391   0.167   8.025  0.00  0.00    +0.000 OA
ATOM     30  H   UNL     1      47.700   2.544   6.378  0.00  0.00    +0.000 HD
ATOM     31  H   UNL     1      47.926   0.833   6.282  0.00  0.00    +0.000 HD
ENDBRANCH  23  27
BRANCH  21  33
ATOM     32  C   UNL     1      43.697   2.520  12.280  0.00  0.00    +0.000 C 
ATOM     33  O   UNL     1      43.249   2.808  10.963  0.00  0.00    +0.000 OA
ENDBRANCH  21  33
ENDBRANCH  19  26
ENDBRANCH  18  19
ENDBRANCH   1  18
TORSDOF 8
ENDMDL
MODEL 2
REMARK VINA RESULT:    -7.662      1.197      2.385
REMARK INTER + INTRA:         -12.234
REMARK INTER:                 -11.361
REMARK INTRA:                  -0.873
REMARK UNBOUND:                -0.990
REMARK  Name = 
REMARK  11 active torsions:
REMARK  status: ('A' for Active; 'I' for Inactive)
REMARK    1  A    between atoms: C_1  and  O_2
REMARK    2  A    between atoms: O_2  and  C_3
REMARK    3  A    between atoms: C_5  and  C_6
REMARK    4  A    between atoms: C_11  and  N_12
REMARK    5  A    between atoms: N_12  and  C_13
REMARK    6  A    between atoms: C_13  and  C_14
REMARK    7  A    between atoms: C_18  and  C_19
REMARK    8  A    between atoms: C_23  and  N_24
REMARK    9  A    between atoms: N_24  and  C_25
REMARK   10  A    between atoms: C_25  and  C_26
REMARK   11  A    between atoms: C_25  and  C_27
REMARK                            x       y       z     vdW  Elec       q    Type
REMARK                         _______ _______ _______ _____ _____    ______ ____
ROOT
ATOM      1  C   UNL     1      45.042   6.808  12.027  0.00  0.00    +0.000 A 
ATOM      2  C   UNL     1      44.953   8.122  11.557  0.00  0.00    +0.000 A 
ATOM      3  C   UNL     1      45.971   9.033  11.817  0.00  0.00    +0.000 A 
ATOM      4  C   UNL     1      47.050   8.644  12.605  0.00  0.00    +0.000 A 
ATOM      5  C   UNL     1      47.138   7.352  13.164  0.00  0.00    +0.000 A 
ATOM      6  C   UNL     1      46.151   6.423  12.807  0.00  0.00    +0.000 A 
ENDROOT
BRANCH   5   7
ATOM      7  C   UNL     1      48.165   7.042  14.177  0.00  0.00    +0.000 A 
ATOM      8  C   UNL     1      49.299   7.849  14.281  0.00  0.00    +0.000 A 
ATOM      9  C   UNL     1      50.258   7.551  15.231  0.00  0.00    +0.000 A 
ATOM     10  C   UNL     1      50.046   6.466  16.066  0.00  0.00    +0.000 A 
ATOM     11  C   UNL     1      48.858   5.735  15.976  0.00  0.00    +0.000 A 
ATOM     12  N   UNL     1      47.925   6.018  15.042  0.00  0.00    +0.000 NA
BRANCH  11  13
ATOM     13  N   UNL     1      48.628   4.779  16.960  0.00  0.00    +0.000 N 
ATOM     14  H   UNL     1      49.161   4.909  17.810  0.00  0.00    +0.000 HD
BRANCH  13  15
ATOM     15  C   UNL     1      48.230   3.422  16.609  0.00  0.00    +0.000 C 
ATOM     16  C   UNL     1      49.345   2.395  16.778  0.00  0.00    +0.000 C 
ATOM     17  C   UNL     1      47.057   3.043  17.521  0.00  0.00    +0.000 C 
ENDBRANCH  13  15
ENDBRANCH  11  13
ENDBRANCH   5   7
BRANCH   1  18
ATOM     18  C   UNL     1      43.947   5.822  11.704  0.00  0.00    +0.000 C 
BRANCH  18  19
ATOM     19  N   UNL     1      43.892   5.511  10.297  0.00  0.00    +0.000 N 
ATOM     20  H   UNL     1      43.514   6.180   9.643  0.00  0.00    +0.000 HD
BRANCH  19  26
ATOM     21  C   UNL     1      44.290   3.086  10.003  0.00  0.00    +0.000 A 
ATOM     22  C   UNL     1      45.027   2.108   9.327  0.00  0.00    +0.000 A 
ATOM     23  C   UNL     1      45.967   2.468   8.369  0.00  0.00    +0.000 A 
ATOM     24  C   UNL     1      46.148   3.820   8.141  0.00  0.00    +0.000 A 
ATOM     25  N   UNL     1      45.476   4.801   8.802  0.00  0.00    +0.000 NA
ATOM     26  C   UNL     1      44.543   4.447   9.717  0.00  0.00    +0.000 A 
BRANCH  23  27
ATOM     27  C   UNL     1      46.685   1.383   7.659  0.00  0.00    +0.000 C 
ATOM     28  N   UNL     1      47.556   1.700   6.660  0.00  0.00    +0.000 N 
ATOM     29  O   UNL     1      46.511   0.210   7.950  0.00  0.00    +0.000 OA
ATOM     30  H   UNL     1      47.757   2.629   6.315  0.00  0.00    +0.000 HD
ATOM     31  H   UNL     1      48.006   0.923   6.191  0.00  0.00    +0.000 HD
ENDBRANCH  23  27
BRANCH  21  33
ATOM     32  C   UNL     1      43.738   2.526  12.246  0.00  0.00    +0.000 C 
ATOM     33  O   UNL     1      43.316   2.763  10.911  0.00  0.00    +0.000 OA
ENDBRANCH  21  33
ENDBRANCH  19  26
ENDBRANCH  18  19
ENDBRANCH   1  18
TORSDOF 8
ENDMDL
MODEL 3
REMARK VINA RESULT:    -7.462      3.071      8.023
REMARK INTER + INTRA:         -11.942
REMARK INTER:                 -11.085
REMARK INTRA:                  -0.857
REMARK UNBOUND:                -0.990
REMARK  Name = 
REMARK  11 active torsions:
REMARK  status: ('A' for Active; 'I' for Inactive)
REMARK    1  A    between atoms: C_1  and  O_2
REMARK    2  A    between atoms: O_2  and  C_3
REMARK    3  A    between atoms: C_5  and  C_6
REMARK    4  A    between atoms: C_11  and  N_12
REMARK    5  A    between atoms: N_12  and  C_13
REMARK    6  A    between atoms: C_13  and  C_14
REMARK    7  A    between atoms: C_18  and  C_19
REMARK    8  A    between atoms: C_23  and  N_24
REMARK    9  A    between atoms: N_24  and  C_25
REMARK   10  A    between atoms: C_25  and  C_26
REMARK   11  A    between atoms: C_25  and  C_27
REMARK                            x       y       z     vdW  Elec       q    Type
REMARK                         _______ _______ _______ _____ _____    ______ ____
ROOT
ATOM      1  C   UNL     1      48.321   7.150  14.084  0.00  0.00    +0.000 A 
ATOM      2  C   UNL     1      49.207   7.607  13.103  0.00  0.00    +0.000 A 
ATOM      3  C   UNL     1      48.848   7.574  11.761  0.00  0.00    +0.000 A 
ATOM      4  C   UNL     1      47.624   7.023  11.394  0.00  0.00    +0.000 A 
ATOM      5  C   UNL     1      46.737   6.479  12.347  0.00  0.00    +0.000 A 
ATOM      6  C   UNL     1      47.076   6.612  13.699  0.00  0.00    +0.000 A 
ENDROOT
BRANCH   5   7
ATOM      7  C   UNL     1      45.562   5.696  11.915  0.00  0.00    +0.000 A 
ATOM      8  C   UNL     1      44.569   5.372  12.840  0.00  0.00    +0.000 A 
ATOM      9  C   UNL     1      43.473   4.637  12.428  0.00  0.00    +0.000 A 
ATOM     10  C   UNL     1      43.391   4.264  11.097  0.00  0.00    +0.000 A 
ATOM     11  C   UNL     1      44.371   4.679  10.191  0.00  0.00    +0.000 A 
ATOM     12  N   UNL     1      45.448   5.388  10.593  0.00  0.00    +0.000 NA
BRANCH  11  13
ATOM     13  N   UNL     1      44.134   4.428   8.844  0.00  0.00    +0.000 N 
ATOM     14  H   UNL     1      43.196   4.639   8.532  0.00  0.00    +0.000 HD
BRANCH  13  15
ATOM     15  C   UNL     1      44.867   3.388   8.135  0.00  0.00    +0.000 C 
ATOM     16  C   UNL     1      46.225   3.843   7.612  0.00  0.00    +0.000 C 
ATOM     17  C   UNL     1      45.071   2.227   9.116  0.00  0.00    +0.000 C 
ENDBRANCH  13  15
ENDBRANCH  11  13
ENDBRANCH   5   7
BRANCH   1  18
ATOM     18  C   UNL     1      48.711   7.227  15.539  0.00  0.00    +0.000 C 
BRANCH  18  19
ATOM     19  N   UNL     1      48.220   6.103  16.297  0.00  0.00    +0.000 N 
ATOM     20  H   UNL     1      47.228   5.976  16.431  0.00  0.00    +0.000 HD
BRANCH  19  26
ATOM     21  C   UNL     1      48.577   3.675  16.617  0.00  0.00    +0.000 A 
ATOM     22  C   UNL     1      49.475   2.681  17.018  0.00  0.00    +0.000 A 
ATOM     23  C   UNL     1      50.762   3.014  17.426  0.00  0.00    +0.000 A 
ATOM     24  C   UNL     1      51.091   4.356  17.436  0.00  0.00    +0.000 A 
ATOM     25  N   UNL     1      50.235   5.355  17.088  0.00  0.00    +0.000 NA
ATOM     26  C   UNL     1      48.991   5.026  16.666  0.00  0.00    +0.000 A 
BRANCH  23  27
ATOM     27  C   UNL     1      51.678   1.911  17.799  0.00  0.00    +0.000 C 
ATOM     28  N   UNL     1      51.222   0.627  17.777  0.00  0.00    +0.000 N 
ATOM     29  O   UNL     1      52.834   2.129  18.126  0.00  0.00    +0.000 OA
ATOM     30  H   UNL     1      50.282   0.331  17.553  0.00  0.00    +0.000 HD
ATOM     31  H   UNL     1      51.880  -0.090  18.061  0.00  0.00    +0.000 HD
ENDBRANCH  23  27
BRANCH  21  33
ATOM     32  C   UNL     1      47.151   3.347  14.744  0.00  0.00    +0.000 C 
ATOM     33  O   UNL     1      47.322   3.377  16.154  0.00  0.00    +0.000 OA
ENDBRANCH  21  33
ENDBRANCH  19  26
ENDBRANCH  18  19
ENDBRANCH   1  18
TORSDOF 8
ENDMDL
MODEL 4
REMARK VINA RESULT:    -7.278      2.737      8.137
REMARK INTER + INTRA:         -11.671
REMARK INTER:                 -11.426
REMARK INTRA:                  -0.245
REMARK UNBOUND:                -0.990
REMARK  Name = 
REMARK  11 active torsions:
REMARK  status: ('A' for Active; 'I' for Inactive)
REMARK    1  A    between atoms: C_1  and  O_2
REMARK    2  A    between atoms: O_2  and  C_3
REMARK    3  A    between atoms: C_5  and  C_6
REMARK    4  A    between atoms: C_11  and  N_12
REMARK    5  A    between atoms: N_12  and  C_13
REMARK    6  A    between atoms: C_13  and  C_14
REMARK    7  A    between atoms: C_18  and  C_19
REMARK    8  A    between atoms: C_23  and  N_24
REMARK    9  A    between atoms: N_24  and  C_25
REMARK   10  A    between atoms: C_25  and  C_26
REMARK   11  A    between atoms: C_25  and  C_27
REMARK                            x       y       z     vdW  Elec       q    Type
REMARK                         _______ _______ _______ _____ _____    ______ ____
ROOT
ATOM      1  C   UNL     1      47.131   7.791  12.075  0.00  0.00    +0.000 A 
ATOM      2  C   UNL     1      46.179   8.815  12.094  0.00  0.00    +0.000 A 
ATOM      3  C   UNL     1      44.865   8.561  11.716  0.00  0.00    +0.000 A 
ATOM      4  C   UNL     1      44.519   7.293  11.259  0.00  0.00    +0.000 A 
ATOM      5  C   UNL     1      45.469   6.255  11.150  0.00  0.00    +0.000 A 
ATOM      6  C   UNL     1      46.762   6.507  11.628  0.00  0.00    +0.000 A 
ENDROOT
BRANCH   5   7
ATOM      7  C   UNL     1      45.131   5.002  10.448  0.00  0.00    +0.000 A 
ATOM      8  C   UNL     1      44.261   4.088  11.044  0.00  0.00    +0.000 A 
ATOM      9  C   UNL     1      43.952   2.915  10.381  0.00  0.00    +0.000 A 
ATOM     10  C   UNL     1      44.505   2.698   9.130  0.00  0.00    +0.000 A 
ATOM     11  C   UNL     1      45.308   3.678   8.540  0.00  0.00    +0.000 A 
ATOM     12  N   UNL     1      45.621   4.819   9.190  0.00  0.00    +0.000 NA
BRANCH  11  13
ATOM     13  N   UNL     1      45.679   3.477   7.214  0.00  0.00    +0.000 N 
ATOM     14  H   UNL     1      44.909   3.322   6.578  0.00  0.00    +0.000 HD
BRANCH  13  15
ATOM     15  C   UNL     1      46.968   2.889   6.877  0.00  0.00    +0.000 C 
ATOM     16  C   UNL     1      47.136   1.457   7.374  0.00  0.00    +0.000 C 
ATOM     17  C   UNL     1      47.088   2.905   5.348  0.00  0.00    +0.000 C 
ENDBRANCH  13  15
ENDBRANCH  11  13
ENDBRANCH   5   7
BRANCH   1  18
ATOM     18  C   UNL     1      48.543   8.075  12.523  0.00  0.00    +0.000 C 
BRANCH  18  19
ATOM     19  N   UNL     1      49.185   6.909  13.079  0.00  0.00    +0.000 N 
ATOM     20  H   UNL     1      50.099   6.629  12.755  0.00  0.00    +0.000 HD
BRANCH  19  26
ATOM     21  C   UNL     1      49.082   6.624  15.535  0.00  0.00    +0.000 A 
ATOM     22  C   UNL     1      48.561   5.869  16.591  0.00  0.00    +0.000 A 
ATOM     23  C   UNL     1      47.709   4.798  16.342  0.00  0.00    +0.000 A 
ATOM     24  C   UNL     1      47.429   4.511  15.019  0.00  0.00    +0.000 A 
ATOM     25  N   UNL     1      47.944   5.199  13.964  0.00  0.00    +0.000 NA
ATOM     26  C   UNL     1      48.753   6.257  14.210  0.00  0.00    +0.000 A 
BRANCH  23  27
ATOM     27  C   UNL     1      47.159   4.066  17.506  0.00  0.00    +0.000 C 
ATOM     28  N   UNL     1      47.429   4.510  18.765  0.00  0.00    +0.000 N 
ATOM     29  O   UNL     1      46.467   3.070  17.360  0.00  0.00    +0.000 OA
ATOM     30  H   UNL     1      48.011   5.302  19.007  0.00  0.00    +0.000 HD
ATOM     31  H   UNL     1      47.048   3.964  19.528  0.00  0.00    +0.000 HD
ENDBRANCH  23  27
BRANCH  21  33
ATOM     32  C   UNL     1      51.245   7.471  16.034  0.00  0.00    +0.000 C 
ATOM     33  O   UNL     1      49.876   7.719  15.747  0.00  0.00    +0.000 OA
ENDBRANCH  21  33
ENDBRANCH  19  26
ENDBRANCH  18  19
ENDBRANCH   1  18
TORSDOF 8
ENDMDL
MODEL 5
REMARK VINA RESULT:    -7.195      3.559      8.463
REMARK INTER + INTRA:         -11.550
REMARK INTER:                 -11.046
REMARK INTRA:                  -0.504
REMARK UNBOUND:                -0.990
REMARK  Name = 
REMARK  11 active torsions:
REMARK  status: ('A' for Active; 'I' for Inactive)
REMARK    1  A    between atoms: C_1  and  O_2
REMARK    2  A    between atoms: O_2  and  C_3
REMARK    3  A    between atoms: C_5  and  C_6
REMARK    4  A    between atoms: C_11  and  N_12
REMARK    5  A    between atoms: N_12  and  C_13
REMARK    6  A    between atoms: C_13  and  C_14
REMARK    7  A    between atoms: C_18  and  C_19
REMARK    8  A    between atoms: C_23  and  N_24
REMARK    9  A    between atoms: N_24  and  C_25
REMARK   10  A    between atoms: C_25  and  C_26
REMARK   11  A    between atoms: C_25  and  C_27
REMARK                            x       y       z     vdW  Elec       q    Type
REMARK                         _______ _______ _______ _____ _____    ______ ____
ROOT
ATOM      1  C   UNL     1      48.212   6.755  14.345  0.00  0.00    +0.000 A 
ATOM      2  C   UNL     1      49.109   7.283  13.411  0.00  0.00    +0.000 A 
ATOM      3  C   UNL     1      48.773   7.333  12.063  0.00  0.00    +0.000 A 
ATOM      4  C   UNL     1      47.561   6.795  11.641  0.00  0.00    +0.000 A 
ATOM      5  C   UNL     1      46.663   6.183  12.542  0.00  0.00    +0.000 A 
ATOM      6  C   UNL     1      46.980   6.233  13.906  0.00  0.00    +0.000 A 
ENDROOT
BRANCH   5   7
ATOM      7  C   UNL     1      45.504   5.420  12.041  0.00  0.00    +0.000 A 
ATOM      8  C   UNL     1      44.495   5.036  12.925  0.00  0.00    +0.000 A 
ATOM      9  C   UNL     1      43.413   4.319  12.448  0.00  0.00    +0.000 A 
ATOM     10  C   UNL     1      43.361   4.023  11.096  0.00  0.00    +0.000 A 
ATOM     11  C   UNL     1      44.356   4.497  10.237  0.00  0.00    +0.000 A 
ATOM     12  N   UNL     1      45.419   5.188  10.702  0.00  0.00    +0.000 NA
BRANCH  11  13
ATOM     13  N   UNL     1      44.149   4.323   8.872  0.00  0.00    +0.000 N 
ATOM     14  H   UNL     1      43.227   4.582   8.547  0.00  0.00    +0.000 HD
BRANCH  13  15
ATOM     15  C   UNL     1      44.866   3.296   8.129  0.00  0.00    +0.000 C 
ATOM     16  C   UNL     1      46.199   3.771   7.560  0.00  0.00    +0.000 C 
ATOM     17  C   UNL     1      45.120   2.131   9.094  0.00  0.00    +0.000 C 
ENDBRANCH  13  15
ENDBRANCH  11  13
ENDBRANCH   5   7
BRANCH   1  18
ATOM     18  C   UNL     1      48.578   6.743  15.809  0.00  0.00    +0.000 C 
BRANCH  18  19
ATOM     19  N   UNL     1      48.294   5.474  16.431  0.00  0.00    +0.000 N 
ATOM     20  H   UNL     1      47.347   5.128  16.470  0.00  0.00    +0.000 HD
BRANCH  19  26
ATOM     21  C   UNL     1      50.481   4.861  17.413  0.00  0.00    +0.000 A 
ATOM     22  C   UNL     1      51.362   3.817  17.717  0.00  0.00    +0.000 A 
ATOM     23  C   UNL     1      51.021   2.500  17.430  0.00  0.00    +0.000 A 
ATOM     24  C   UNL     1      49.800   2.284  16.820  0.00  0.00    +0.000 A 
ATOM     25  N   UNL     1      48.933   3.275  16.477  0.00  0.00    +0.000 NA
ATOM     26  C   UNL     1      49.255   4.554  16.781  0.00  0.00    +0.000 A 
BRANCH  23  27
ATOM     27  C   UNL     1      51.979   1.437  17.814  0.00  0.00    +0.000 C 
ATOM     28  N   UNL     1      51.511   0.197  18.130  0.00  0.00    +0.000 N 
ATOM     29  O   UNL     1      53.181   1.650  17.854  0.00  0.00    +0.000 OA
ATOM     30  H   UNL     1      50.540  -0.085  18.160  0.00  0.00    +0.000 HD
ATOM     31  H   UNL     1      52.203  -0.489  18.407  0.00  0.00    +0.000 HD
ENDBRANCH  23  27
BRANCH  21  33
ATOM     32  C   UNL     1      52.064   6.633  17.426  0.00  0.00    +0.000 C 
ATOM     33  O   UNL     1      50.760   6.163  17.735  0.00  0.00    +0.000 OA
ENDBRANCH  21  33
ENDBRANCH  19  26
ENDBRANCH  18  19
ENDBRANCH   1  18
TORSDOF 8
ENDMDL
MODEL 6
REMARK VINA RESULT:    -7.089      2.806      8.207
REMARK INTER + INTRA:         -11.395
REMARK INTER:                 -10.551
REMARK INTRA:                  -0.843
REMARK UNBOUND:                -0.990
REMARK  Name = 
REMARK  11 active torsions:
REMARK  status: ('A' for Active; 'I' for Inactive)
REMARK    1  A    between atoms: C_1  and  O_2
REMARK    2  A    between atoms: O_2  and  C_3
REMARK    3  A    between atoms: C_5  and  C_6
REMARK    4  A    between atoms: C_11  and  N_12
REMARK    5  A    between atoms: N_12  and  C_13
REMARK    6  A    between atoms: C_13  and  C_14
REMARK    7  A    between atoms: C_18  and  C_19
REMARK    8  A    between atoms: C_23  and  N_24
REMARK    9  A    between atoms: N_24  and  C_25
REMARK   10  A    between atoms: C_25  and  C_26
REMARK   11  A    between atoms: C_25  and  C_27
REMARK                            x       y       z     vdW  Elec       q    Type
REMARK                         _______ _______ _______ _____ _____    ______ ____
ROOT
ATOM      1  C   UNL     1      46.773   8.024  12.983  0.00  0.00    +0.000 A 
ATOM      2  C   UNL     1      46.142   9.180  12.513  0.00  0.00    +0.000 A 
ATOM      3  C   UNL     1      45.020   9.087  11.697  0.00  0.00    +0.000 A 
ATOM      4  C   UNL     1      44.567   7.833  11.299  0.00  0.00    +0.000 A 
ATOM      5  C   UNL     1      45.224   6.646  11.688  0.00  0.00    +0.000 A 
ATOM      6  C   UNL     1      46.290   6.760  12.589  0.00  0.00    +0.000 A 
ENDROOT
BRANCH   5   7
ATOM      7  C   UNL     1      44.866   5.355  11.068  0.00  0.00    +0.000 A 
ATOM      8  C   UNL     1      44.032   4.468  11.749  0.00  0.00    +0.000 A 
ATOM      9  C   UNL     1      43.703   3.260  11.162  0.00  0.00    +0.000 A 
ATOM     10  C   UNL     1      44.203   2.982   9.901  0.00  0.00    +0.000 A 
ATOM     11  C   UNL     1      44.971   3.934   9.225  0.00  0.00    +0.000 A 
ATOM     12  N   UNL     1      45.302   5.110   9.801  0.00  0.00    +0.000 NA
BRANCH  11  13
ATOM     13  N   UNL     1      45.285   3.667   7.897  0.00  0.00    +0.000 N 
ATOM     14  H   UNL     1      44.487   3.548   7.288  0.00  0.00    +0.000 HD
BRANCH  13  15
ATOM     15  C   UNL     1      46.517   2.975   7.542  0.00  0.00    +0.000 C 
ATOM     16  C   UNL     1      46.511   1.492   7.896  0.00  0.00    +0.000 C 
ATOM     17  C   UNL     1      46.703   3.128   6.027  0.00  0.00    +0.000 C 
ENDBRANCH  13  15
ENDBRANCH  11  13
ENDBRANCH   5   7
BRANCH   1  18
ATOM     18  C   UNL     1      47.966   8.143  13.898  0.00  0.00    +0.000 C 
BRANCH  18  19
ATOM     19  N   UNL     1      48.592   6.869  14.147  0.00  0.00    +0.000 N 
ATOM     20  H   UNL     1      49.240   6.482  13.477  0.00  0.00    +0.000 HD
BRANCH  19  26
ATOM     21  C   UNL     1      47.692   5.163  15.698  0.00  0.00    +0.000 A 
ATOM     22  C   UNL     1      47.787   4.593  16.973  0.00  0.00    +0.000 A 
ATOM     23  C   UNL     1      48.746   5.037  17.876  0.00  0.00    +0.000 A 
ATOM     24  C   UNL     1      49.569   6.069  17.464  0.00  0.00    +0.000 A 
ATOM     25  N   UNL     1      49.485   6.672  16.248  0.00  0.00    +0.000 NA
ATOM     26  C   UNL     1      48.567   6.221  15.360  0.00  0.00    +0.000 A 
BRANCH  23  27
ATOM     27  C   UNL     1      48.822   4.364  19.193  0.00  0.00    +0.000 C 
ATOM     28  N   UNL     1      48.229   3.148  19.357  0.00  0.00    +0.000 N 
ATOM     29  O   UNL     1      49.404   4.877  20.136  0.00  0.00    +0.000 OA
ATOM     30  H   UNL     1      47.698   2.643  18.660  0.00  0.00    +0.000 HD
ATOM     31  H   UNL     1      48.290   2.737  20.282  0.00  0.00    +0.000 HD
ENDBRANCH  23  27
BRANCH  21  33
ATOM     32  C   UNL     1      47.134   3.507  14.088  0.00  0.00    +0.000 C 
ATOM     33  O   UNL     1      46.798   4.711  14.764  0.00  0.00    +0.000 OA
ENDBRANCH  21  33
ENDBRANCH  19  26
ENDBRANCH  18  19
ENDBRANCH   1  18
TORSDOF 8
ENDMDL
MODEL 7
REMARK VINA RESULT:    -6.872      4.065      8.982
REMARK INTER + INTRA:         -11.076
REMARK INTER:                 -10.334
REMARK INTRA:                  -0.742
REMARK UNBOUND:                -0.990
REMARK  Name = 
REMARK  11 active torsions:
REMARK  status: ('A' for Active; 'I' for Inactive)
REMARK    1  A    between atoms: C_1  and  O_2
REMARK    2  A    between atoms: O_2  and  C_3
REMARK    3  A    between atoms: C_5  and  C_6
REMARK    4  A    between atoms: C_11  and  N_12
REMARK    5  A    between atoms: N_12  and  C_13
REMARK    6  A    between atoms: C_13  and  C_14
REMARK    7  A    between atoms: C_18  and  C_19
REMARK    8  A    between atoms: C_23  and  N_24
REMARK    9  A    between atoms: N_24  and  C_25
REMARK   10  A    between atoms: C_25  and  C_26
REMARK   11  A    between atoms: C_25  and  C_27
REMARK                            x       y       z     vdW  Elec       q    Type
REMARK                         _______ _______ _______ _____ _____    ______ ____
ROOT
ATOM      1  C   UNL     1      47.578   4.839  15.521  0.00  0.00    +0.000 A 
ATOM      2  C   UNL     1      48.389   5.911  15.137  0.00  0.00    +0.000 A 
ATOM      3  C   UNL     1      48.037   6.707  14.053  0.00  0.00    +0.000 A 
ATOM      4  C   UNL     1      46.901   6.391  13.314  0.00  0.00    +0.000 A 
ATOM      5  C   UNL     1      46.100   5.271  13.621  0.00  0.00    +0.000 A 
ATOM      6  C   UNL     1      46.420   4.542  14.774  0.00  0.00    +0.000 A 
ENDROOT
BRANCH   5   7
ATOM      7  C   UNL     1      45.046   4.826  12.689  0.00  0.00    +0.000 A 
ATOM      8  C   UNL     1      43.874   5.572  12.563  0.00  0.00    +0.000 A 
ATOM      9  C   UNL     1      42.890   5.148  11.690  0.00  0.00    +0.000 A 
ATOM     10  C   UNL     1      43.115   3.998  10.951  0.00  0.00    +0.000 A 
ATOM     11  C   UNL     1      44.337   3.328  11.053  0.00  0.00    +0.000 A 
ATOM     12  N   UNL     1      45.295   3.734  11.913  0.00  0.00    +0.000 NA
BRANCH  11  13
ATOM     13  N   UNL     1      44.567   2.292  10.153  0.00  0.00    +0.000 N 
ATOM     14  H   UNL     1      44.950   1.451  10.563  0.00  0.00    +0.000 HD
BRANCH  13  15
ATOM     15  C   UNL     1      44.877   2.567   8.756  0.00  0.00    +0.000 C 
ATOM     16  C   UNL     1      45.286   4.012   8.493  0.00  0.00    +0.000 C 
ATOM     17  C   UNL     1      46.030   1.638   8.356  0.00  0.00    +0.000 C 
ENDBRANCH  13  15
ENDBRANCH  11  13
ENDBRANCH   5   7
BRANCH   1  18
ATOM     18  C   UNL     1      47.955   4.008  16.722  0.00  0.00    +0.000 C 
BRANCH  18  19
ATOM     19  N   UNL     1      49.206   4.428  17.304  0.00  0.00    +0.000 N 
ATOM     20  H   UNL     1      49.271   5.315  17.782  0.00  0.00    +0.000 HD
BRANCH  19  26
ATOM     21  C   UNL     1      51.500   3.972  18.111  0.00  0.00    +0.000 A 
ATOM     22  C   UNL     1      52.520   3.020  18.223  0.00  0.00    +0.000 A 
ATOM     23  C   UNL     1      52.333   1.726  17.749  0.00  0.00    +0.000 A 
ATOM     24  C   UNL     1      51.119   1.443  17.152  0.00  0.00    +0.000 A 
ATOM     25  N   UNL     1      50.118   2.350  16.993  0.00  0.00    +0.000 NA
ATOM     26  C   UNL     1      50.291   3.602  17.478  0.00  0.00    +0.000 A 
BRANCH  23  27
ATOM     27  C   UNL     1      53.436   0.755  17.936  0.00  0.00    +0.000 C 
ATOM     28  N   UNL     1      53.707  -0.146  16.950  0.00  0.00    +0.000 N 
ATOM     29  O   UNL     1      54.107   0.744  18.956  0.00  0.00    +0.000 OA
ATOM     30  H   UNL     1      53.202  -0.249  16.080  0.00  0.00    +0.000 HD
ATOM     31  H   UNL     1      54.456  -0.804  17.133  0.00  0.00    +0.000 HD
ENDBRANCH  23  27
BRANCH  21  33
ATOM     32  C   UNL     1      52.098   5.346  19.955  0.00  0.00    +0.000 C 
ATOM     33  O   UNL     1      51.629   5.238  18.619  0.00  0.00    +0.000 OA
ENDBRANCH  21  33
ENDBRANCH  19  26
ENDBRANCH  18  19
ENDBRANCH   1  18
TORSDOF 8
ENDMDL
MODEL 8
REMARK VINA RESULT:    -6.597      3.511      4.966
REMARK INTER + INTRA:         -10.672
REMARK INTER:                  -9.250
REMARK INTRA:                  -1.422
REMARK UNBOUND:                -0.990
REMARK  Name = 
REMARK  11 active torsions:
REMARK  status: ('A' for Active; 'I' for Inactive)
REMARK    1  A    between atoms: C_1  and  O_2
REMARK    2  A    between atoms: O_2  and  C_3
REMARK    3  A    between atoms: C_5  and  C_6
REMARK    4  A    between atoms: C_11  and  N_12
REMARK    5  A    between atoms: N_12  and  C_13
REMARK    6  A    between atoms: C_13  and  C_14
REMARK    7  A    between atoms: C_18  and  C_19
REMARK    8  A    between atoms: C_23  and  N_24
REMARK    9  A    between atoms: N_24  and  C_25
REMARK   10  A    between atoms: C_25  and  C_26
REMARK   11  A    between atoms: C_25  and  C_27
REMARK                            x       y       z     vdW  Elec       q    Type
REMARK                         _______ _______ _______ _____ _____    ______ ____
ROOT
ATOM      1  C   UNL     1      48.949   8.421  14.429  0.00  0.00    +0.000 A 
ATOM      2  C   UNL     1      48.780   9.769  14.763  0.00  0.00    +0.000 A 
ATOM      3  C   UNL     1      48.732  10.162  16.096  0.00  0.00    +0.000 A 
ATOM      4  C   UNL     1      48.789   9.196  17.095  0.00  0.00    +0.000 A 
ATOM      5  C   UNL     1      48.880   7.820  16.797  0.00  0.00    +0.000 A 
ATOM      6  C   UNL     1      49.026   7.456  15.453  0.00  0.00    +0.000 A 
ENDROOT
BRANCH   5   7
ATOM      7  C   UNL     1      48.704   6.811  17.860  0.00  0.00    +0.000 A 
ATOM      8  C   UNL     1      47.817   7.058  18.909  0.00  0.00    +0.000 A 
ATOM      9  C   UNL     1      47.660   6.109  19.901  0.00  0.00    +0.000 A 
ATOM     10  C   UNL     1      48.380   4.929  19.807  0.00  0.00    +0.000 A 
ATOM     11  C   UNL     1      49.196   4.694  18.697  0.00  0.00    +0.000 A 
ATOM     12  N   UNL     1      49.360   5.624  17.732  0.00  0.00    +0.000 NA
BRANCH  11  13
ATOM     13  N   UNL     1      49.744   3.421  18.574  0.00  0.00    +0.000 N 
ATOM     14  H   UNL     1      49.735   2.872  19.423  0.00  0.00    +0.000 HD
BRANCH  13  15
ATOM     15  C   UNL     1      50.791   3.146  17.600  0.00  0.00    +0.000 C 
ATOM     16  C   UNL     1      52.202   3.280  18.163  0.00  0.00    +0.000 C 
ATOM     17  C   UNL     1      50.584   1.709  17.105  0.00  0.00    +0.000 C 
ENDBRANCH  13  15
ENDBRANCH  11  13
ENDBRANCH   5   7
BRANCH   1  18
ATOM     18  C   UNL     1      49.037   8.016  12.978  0.00  0.00    +0.000 C 
BRANCH  18  19
ATOM     19  N   UNL     1      48.581   6.665  12.761  0.00  0.00    +0.000 N 
ATOM     20  H   UNL     1      49.241   5.902  12.755  0.00  0.00    +0.000 HD
BRANCH  19  26
ATOM     21  C   UNL     1      46.752   5.184  13.525  0.00  0.00    +0.000 A 
ATOM     22  C   UNL     1      45.379   4.919  13.471  0.00  0.00    +0.000 A 
ATOM     23  C   UNL     1      44.529   5.738  12.738  0.00  0.00    +0.000 A 
ATOM     24  C   UNL     1      45.105   6.797  12.059  0.00  0.00    +0.000 A 
ATOM     25  N   UNL     1      46.438   7.067  12.059  0.00  0.00    +0.000 NA
ATOM     26  C   UNL     1      47.261   6.283  12.794  0.00  0.00    +0.000 A 
BRANCH  23  27
ATOM     27  C   UNL     1      43.081   5.427  12.754  0.00  0.00    +0.000 C 
ATOM     28  N   UNL     1      42.245   6.088  11.905  0.00  0.00    +0.000 N 
ATOM     29  O   UNL     1      42.620   4.590  13.515  0.00  0.00    +0.000 OA
ATOM     30  H   UNL     1      42.508   6.817  11.255  0.00  0.00    +0.000 HD
ATOM     31  H   UNL     1      41.261   5.855  11.969  0.00  0.00    +0.000 HD
ENDBRANCH  23  27
BRANCH  21  33
ATOM     32  C   UNL     1      47.152   4.048  15.573  0.00  0.00    +0.000 C 
ATOM     33  O   UNL     1      47.608   4.432  14.284  0.00  0.00    +0.000 OA
ENDBRANCH  21  33
ENDBRANCH  19  26
ENDBRANCH  18  19
ENDBRANCH   1  18
TORSDOF 8
ENDMDL
MODEL 9
REMARK VINA RESULT:    -6.121      5.001      8.305
REMARK INTER + INTRA:          -9.973
REMARK INTER:                  -9.138
REMARK INTRA:                  -0.835
REMARK UNBOUND:                -0.990
REMARK  Name = 
REMARK  11 active torsions:
REMARK  status: ('A' for Active; 'I' for Inactive)
REMARK    1  A    between atoms: C_1  and  O_2
REMARK    2  A    between atoms: O_2  and  C_3
REMARK    3  A    between atoms: C_5  and  C_6
REMARK    4  A    between atoms: C_11  and  N_12
REMARK    5  A    between atoms: N_12  and  C_13
REMARK    6  A    between atoms: C_13  and  C_14
REMARK    7  A    between atoms: C_18  and  C_19
REMARK    8  A    between atoms: C_23  and  N_24
REMARK    9  A    between atoms: N_24  and  C_25
REMARK   10  A    between atoms: C_25  and  C_26
REMARK   11  A    between atoms: C_25  and  C_27
REMARK                            x       y       z     vdW  Elec       q    Type
REMARK                         _______ _______ _______ _____ _____    ______ ____
ROOT
ATOM      1  C   UNL     1      48.427   7.868  12.372  0.00  0.00    +0.000 A 
ATOM      2  C   UNL     1      48.852   7.566  13.669  0.00  0.00    +0.000 A 
ATOM      3  C   UNL     1      48.296   6.495  14.360  0.00  0.00    +0.000 A 
ATOM      4  C   UNL     1      47.267   5.764  13.774  0.00  0.00    +0.000 A 
ATOM      5  C   UNL     1      46.756   6.088  12.499  0.00  0.00    +0.000 A 
ATOM      6  C   UNL     1      47.397   7.107  11.783  0.00  0.00    +0.000 A 
ENDROOT
BRANCH   5   7
ATOM      7  C   UNL     1      45.520   5.451  12.005  0.00  0.00    +0.000 A 
ATOM      8  C   UNL     1      44.461   5.221  12.884  0.00  0.00    +0.000 A 
ATOM      9  C   UNL     1      43.308   4.622  12.413  0.00  0.00    +0.000 A 
ATOM     10  C   UNL     1      43.237   4.288  11.071  0.00  0.00    +0.000 A 
ATOM     11  C   UNL     1      44.293   4.609  10.213  0.00  0.00    +0.000 A 
ATOM     12  N   UNL     1      45.425   5.184  10.672  0.00  0.00    +0.000 NA
BRANCH  11  13
ATOM     13  N   UNL     1      44.083   4.414   8.852  0.00  0.00    +0.000 N 
ATOM     14  H   UNL     1      43.178   4.716   8.515  0.00  0.00    +0.000 HD
BRANCH  13  15
ATOM     15  C   UNL     1      44.745   3.330   8.139  0.00  0.00    +0.000 C 
ATOM     16  C   UNL     1      46.109   3.713   7.574  0.00  0.00    +0.000 C 
ATOM     17  C   UNL     1      44.921   2.174   9.131  0.00  0.00    +0.000 C 
ENDBRANCH  13  15
ENDBRANCH  11  13
ENDBRANCH   5   7
BRANCH   1  18
ATOM     18  C   UNL     1      49.067   9.010  11.623  0.00  0.00    +0.000 C 
BRANCH  18  19
ATOM     19  N   UNL     1      50.489   9.084  11.852  0.00  0.00    +0.000 N 
ATOM     20  H   UNL     1      50.847   9.190  12.789  0.00  0.00    +0.000 HD
BRANCH  19  26
ATOM     21  C   UNL     1      52.307   9.714  10.296  0.00  0.00    +0.000 A 
ATOM     22  C   UNL     1      53.232   9.256   9.351  0.00  0.00    +0.000 A 
ATOM     23  C   UNL     1      53.317   7.904   9.043  0.00  0.00    +0.000 A 
ATOM     24  C   UNL     1      52.439   7.054   9.691  0.00  0.00    +0.000 A 
ATOM     25  N   UNL     1      51.502   7.465  10.588  0.00  0.00    +0.000 NA
ATOM     26  C   UNL     1      51.439   8.780  10.905  0.00  0.00    +0.000 A 
BRANCH  23  27
ATOM     27  C   UNL     1      54.346   7.478   8.066  0.00  0.00    +0.000 C 
ATOM     28  N   UNL     1      55.222   8.399   7.575  0.00  0.00    +0.000 N 
ATOM     29  O   UNL     1      54.424   6.319   7.691  0.00  0.00    +0.000 OA
ATOM     30  H   UNL     1      55.233   9.387   7.790  0.00  0.00    +0.000 HD
ATOM     31  H   UNL     1      55.893   8.064   6.893  0.00  0.00    +0.000 HD
ENDBRANCH  23  27
BRANCH  21  33
ATOM     32  C   UNL     1      53.254  11.507  11.534  0.00  0.00    +0.000 C 
ATOM     33  O   UNL     1      52.236  11.032  10.665  0.00  0.00    +0.000 OA
ENDBRANCH  21  33
ENDBRANCH  19  26
ENDBRANCH  18  19
ENDBRANCH   1  18
TORSDOF 8
ENDMDL
