MODEL 1
REMARK VINA RESULT:    -8.658      0.000      0.000
REMARK INTER + INTRA:         -12.947
REMARK INTER:                 -11.695
REMARK INTRA:                  -1.252
REMARK UNBOUND:                -1.252
REMARK  Name = 
REMARK  7 active torsions:
REMARK  status: ('A' for Active; 'I' for Inactive)
REMARK    1  A    between atoms: C_1  and  O_2
REMARK    2  A    between atoms: O_2  and  C_3
REMARK    3  A    between atoms: C_7  and  C_8
REMARK    4  A    between atoms: C_12  and  C_13
REMARK    5  A    between atoms: C_13  and  N_14
REMARK    6  A    between atoms: N_14  and  C_15
REMARK    7  A    between atoms: C_18  and  C_19
REMARK                            x       y       z     vdW  Elec       q    Type
REMARK                         _______ _______ _______ _____ _____    ______ ____
ROOT
ATOM      1  C   UNL     1      43.790   5.088  11.327  0.00  0.00    +0.000 C 
ATOM      2  C   UNL     1      43.014   6.344  10.994  0.00  0.00    +0.000 C 
ATOM      3  C   UNL     1      42.515   5.459  12.086  0.00  0.00    +0.000 C 
ENDROOT
BRANCH   1   8
ATOM      4  C   UNL     1      47.235   6.457  12.452  0.00  0.00    +0.000 A 
ATOM      5  C   UNL     1      47.589   5.488  13.404  0.00  0.00    +0.000 A 
ATOM      6  C   UNL     1      46.736   4.427  13.708  0.00  0.00    +0.000 A 
ATOM      7  C   UNL     1      45.514   4.300  13.049  0.00  0.00    +0.000 A 
ATOM      8  C   UNL     1      45.112   5.227  12.077  0.00  0.00    +0.000 A 
ATOM      9  C   UNL     1      45.986   6.304  11.816  0.00  0.00    +0.000 A 
BRANCH   4  14
ATOM     10  C   UNL     1      50.324   8.474  11.517  0.00  0.00    +0.000 A 
ATOM     11  C   UNL     1      49.750   9.738  11.519  0.00  0.00    +0.000 A 
ATOM     12  N   UNL     1      48.450   9.986  11.793  0.00  0.00    +0.000 NA
ATOM     13  C   UNL     1      47.681   8.908  12.081  0.00  0.00    +0.000 A 
ATOM     14  C   UNL     1      48.133   7.585  12.120  0.00  0.00    +0.000 A 
ATOM     15  C   UNL     1      49.497   7.394  11.826  0.00  0.00    +0.000 A 
BRANCH  10  17
ATOM     16  C   UNL     1      52.055   7.467  10.237  0.00  0.00    +0.000 C 
ATOM     17  O   UNL     1      51.654   8.421  11.215  0.00  0.00    +0.000 OA
ENDBRANCH  10  17
ENDBRANCH   4  14
ENDBRANCH   1   8
BRANCH   1  18
ATOM     18  N   UNL     1      43.661   3.842  10.558  0.00  0.00    +0.000 N 
ATOM     19  H   UNL     1      43.201   3.080  11.046  0.00  0.00    +0.000 HD
BRANCH  18  20
ATOM     20  C   UNL     1      44.508   3.389   9.531  0.00  0.00    +0.000 A 
ATOM     21  C   UNL     1      44.913   2.064   9.364  0.00  0.00    +0.000 A 
ATOM     22  C   UNL     1      45.865   1.722   8.388  0.00  0.00    +0.000 A 
ATOM     23  C   UNL     1      46.436   2.708   7.575  0.00  0.00    +0.000 A 
ATOM     24  C   UNL     1      46.049   4.037   7.741  0.00  0.00    +0.000 A 
ATOM     25  C   UNL     1      45.099   4.366   8.711  0.00  0.00    +0.000 A 
BRANCH  23  26
ATOM     26  C   UNL     1      47.498   2.323   6.607  0.00  0.00    +0.000 C 
ATOM     27  N   UNL     1      47.560   3.010   5.426  0.00  0.00    +0.000 N 
ATOM     28  O   UNL     1      48.281   1.417   6.845  0.00  0.00    +0.000 OA
ATOM     29  H   UNL     1      46.814   3.600   5.088  0.00  0.00    +0.000 HD
ATOM     30  H   UNL     1      48.252   2.697   4.756  0.00  0.00    +0.000 HD
ENDBRANCH  23  26
ENDBRANCH  18  20
ENDBRANCH   1  18
TORSDOF 6
ENDMDL
MODEL 2
REMARK VINA RESULT:    -8.599      2.709      4.001
REMARK INTER + INTRA:         -12.867
REMARK INTER:                 -12.425
REMARK INTRA:                  -0.442
REMARK UNBOUND:                -1.252
REMARK  Name = 
REMARK  7 active torsions:
REMARK  status: ('A' for Active; 'I' for Inactive)
REMARK    1  A    between atoms: C_1  and  O_2
REMARK    2  A    between atoms: O_2  and  C_3
REMARK    3  A    between atoms: C_7  and  C_8
REMARK    4  A    between atoms: C_12  and  C_13
REMARK    5  A    between atoms: C_13  and  N_14
REMARK    6  A    between atoms: N_14  and  C_15
REMARK    7  A    between atoms: C_18  and  C_19
REMARK                            x       y       z     vdW  Elec       q    Type
REMARK                         _______ _______ _______ _____ _____    ______ ____
ROOT
ATOM      1  C   UNL     1      43.871   5.118  11.413  0.00  0.00    +0.000 C 
ATOM      2  C   UNL     1      42.639   5.432  12.234  0.00  0.00    +0.000 C 
ATOM      3  C   UNL     1      43.145   4.029  12.205  0.00  0.00    +0.000 C 
ENDROOT
BRANCH   1   8
ATOM      4  C   UNL     1      46.977   5.482  13.699  0.00  0.00    +0.000 A 
ATOM      5  C   UNL     1      47.714   6.427  12.969  0.00  0.00    +0.000 A 
ATOM      6  C   UNL     1      47.248   6.924  11.752  0.00  0.00    +0.000 A 
ATOM      7  C   UNL     1      46.019   6.501  11.247  0.00  0.00    +0.000 A 
ATOM      8  C   UNL     1      45.230   5.572  11.938  0.00  0.00    +0.000 A 
ATOM      9  C   UNL     1      45.747   5.066  13.151  0.00  0.00    +0.000 A 
BRANCH   4  14
ATOM     10  C   UNL     1      48.722   5.180  17.068  0.00  0.00    +0.000 A 
ATOM     11  C   UNL     1      48.334   3.885  17.383  0.00  0.00    +0.000 A 
ATOM     12  N   UNL     1      47.552   3.110  16.599  0.00  0.00    +0.000 NA
ATOM     13  C   UNL     1      47.138   3.662  15.433  0.00  0.00    +0.000 A 
ATOM     14  C   UNL     1      47.461   4.948  14.992  0.00  0.00    +0.000 A 
ATOM     15  C   UNL     1      48.278   5.705  15.854  0.00  0.00    +0.000 A 
BRANCH  10  17
ATOM     16  C   UNL     1      49.230   7.178  18.250  0.00  0.00    +0.000 C 
ATOM     17  O   UNL     1      49.513   5.809  17.986  0.00  0.00    +0.000 OA
ENDBRANCH  10  17
ENDBRANCH   4  14
ENDBRANCH   1   8
BRANCH   1  18
ATOM     18  N   UNL     1      43.828   4.900   9.960  0.00  0.00    +0.000 N 
ATOM     19  H   UNL     1      42.943   5.127   9.517  0.00  0.00    +0.000 HD
BRANCH  18  20
ATOM     20  C   UNL     1      44.575   3.966   9.221  0.00  0.00    +0.000 A 
ATOM     21  C   UNL     1      44.560   2.588   9.439  0.00  0.00    +0.000 A 
ATOM     22  C   UNL     1      45.437   1.741   8.740  0.00  0.00    +0.000 A 
ATOM     23  C   UNL     1      46.353   2.268   7.821  0.00  0.00    +0.000 A 
ATOM     24  C   UNL     1      46.386   3.645   7.604  0.00  0.00    +0.000 A 
ATOM     25  C   UNL     1      45.508   4.477   8.301  0.00  0.00    +0.000 A 
BRANCH  23  26
ATOM     26  C   UNL     1      47.321   1.353   7.157  0.00  0.00    +0.000 C 
ATOM     27  N   UNL     1      48.341   1.918   6.443  0.00  0.00    +0.000 N 
ATOM     28  O   UNL     1      47.206   0.140   7.229  0.00  0.00    +0.000 OA
ATOM     29  H   UNL     1      48.352   2.889   6.166  0.00  0.00    +0.000 HD
ATOM     30  H   UNL     1      48.956   1.282   5.951  0.00  0.00    +0.000 HD
ENDBRANCH  23  26
ENDBRANCH  18  20
ENDBRANCH   1  18
TORSDOF 6
ENDMDL
MODEL 3
REMARK VINA RESULT:    -8.234      1.802      2.275
REMARK INTER + INTRA:         -12.374
REMARK INTER:                 -11.199
REMARK INTRA:                  -1.175
REMARK UNBOUND:                -1.252
REMARK  Name = 
REMARK  7 active torsions:
REMARK  status: ('A' for Active; 'I' for Inactive)
REMARK    1  A    between atoms: C_1  and  O_2
REMARK    2  A    between atoms: O_2  and  C_3
REMARK    3  A    between atoms: C_7  and  C_8
REMARK    4  A    between atoms: C_12  and  C_13
REMARK    5  A    between atoms: C_13  and  N_14
REMARK    6  A    between atoms: N_14  and  C_15
REMARK    7  A    between atoms: C_18  and  C_19
REMARK                            x       y       z     vdW  Elec       q    Type
REMARK                         _______ _______ _______ _____ _____    ______ ____
ROOT
ATOM      1  C   UNL     1      43.862   4.820  11.355  0.00  0.00    +0.000 C 
ATOM      2  C   UNL     1      43.021   6.054  11.108  0.00  0.00    +0.000 C 
ATOM      3  C   UNL     1      42.499   5.001  12.025  0.00  0.00    +0.000 C 
ENDROOT
BRANCH   1   8
ATOM      4  C   UNL     1      46.903   6.354  13.200  0.00  0.00    +0.000 A 
ATOM      5  C   UNL     1      47.412   5.211  13.836  0.00  0.00    +0.000 A 
ATOM      6  C   UNL     1      46.785   3.972  13.704  0.00  0.00    +0.000 A 
ATOM      7  C   UNL     1      45.642   3.844  12.915  0.00  0.00    +0.000 A 
ATOM      8  C   UNL     1      45.096   4.947  12.244  0.00  0.00    +0.000 A 
ATOM      9  C   UNL     1      45.739   6.191  12.423  0.00  0.00    +0.000 A 
BRANCH   4  14
ATOM     10  C   UNL     1      47.837  10.005  12.666  0.00  0.00    +0.000 A 
ATOM     11  C   UNL     1      48.836  10.102  13.624  0.00  0.00    +0.000 A 
ATOM     12  N   UNL     1      49.225   9.087  14.427  0.00  0.00    +0.000 NA
ATOM     13  C   UNL     1      48.577   7.909  14.261  0.00  0.00    +0.000 A 
ATOM     14  C   UNL     1      47.560   7.673  13.331  0.00  0.00    +0.000 A 
ATOM     15  C   UNL     1      47.202   8.770  12.524  0.00  0.00    +0.000 A 
BRANCH  10  17
ATOM     16  C   UNL     1      46.288  11.254  11.365  0.00  0.00    +0.000 C 
ATOM     17  O   UNL     1      47.581  11.139  11.950  0.00  0.00    +0.000 OA
ENDBRANCH  10  17
ENDBRANCH   4  14
ENDBRANCH   1   8
BRANCH   1  18
ATOM     18  N   UNL     1      43.902   3.682  10.426  0.00  0.00    +0.000 N 
ATOM     19  H   UNL     1      43.437   2.841  10.756  0.00  0.00    +0.000 HD
BRANCH  18  20
ATOM     20  C   UNL     1      44.888   3.408   9.463  0.00  0.00    +0.000 A 
ATOM     21  C   UNL     1      45.478   4.367   8.637  0.00  0.00    +0.000 A 
ATOM     22  C   UNL     1      46.361   3.986   7.613  0.00  0.00    +0.000 A 
ATOM     23  C   UNL     1      46.655   2.635   7.392  0.00  0.00    +0.000 A 
ATOM     24  C   UNL     1      46.063   1.667   8.203  0.00  0.00    +0.000 A 
ATOM     25  C   UNL     1      45.189   2.056   9.221  0.00  0.00    +0.000 A 
BRANCH  23  26
ATOM     26  C   UNL     1      47.531   2.260   6.250  0.00  0.00    +0.000 C 
ATOM     27  N   UNL     1      47.429   2.998   5.103  0.00  0.00    +0.000 N 
ATOM     28  O   UNL     1      48.306   1.319   6.320  0.00  0.00    +0.000 OA
ATOM     29  H   UNL     1      46.662   3.627   4.915  0.00  0.00    +0.000 HD
ATOM     30  H   UNL     1      47.991   2.694   4.317  0.00  0.00    +0.000 HD
ENDBRANCH  23  26
ENDBRANCH  18  20
ENDBRANCH   1  18
TORSDOF 6
ENDMDL
MODEL 4
REMARK VINA RESULT:    -7.724      1.944      2.968
REMARK INTER + INTRA:         -11.686
REMARK INTER:                 -11.302
REMARK INTRA:                  -0.384
REMARK UNBOUND:                -1.252
REMARK  Name = 
REMARK  7 active torsions:
REMARK  status: ('A' for Active; 'I' for Inactive)
REMARK    1  A    between atoms: C_1  and  O_2
REMARK    2  A    between atoms: O_2  and  C_3
REMARK    3  A    between atoms: C_7  and  C_8
REMARK    4  A    between atoms: C_12  and  C_13
REMARK    5  A    between atoms: C_13  and  N_14
REMARK    6  A    between atoms: N_14  and  C_15
REMARK    7  A    between atoms: C_18  and  C_19
REMARK                            x       y       z     vdW  Elec       q    Type
REMARK                         _______ _______ _______ _____ _____    ______ ____
ROOT
ATOM      1  C   UNL     1      43.910   5.220  11.557  0.00  0.00    +0.000 C 
ATOM      2  C   UNL     1      42.949   4.804  12.651  0.00  0.00    +0.000 C 
ATOM      3  C   UNL     1      44.257   4.096  12.536  0.00  0.00    +0.000 C 
ENDROOT
BRANCH   1   8
ATOM      4  C   UNL     1      46.663   7.770  12.520  0.00  0.00    +0.000 A 
ATOM      5  C   UNL     1      46.069   8.959  12.070  0.00  0.00    +0.000 A 
ATOM      6  C   UNL     1      44.822   8.953  11.445  0.00  0.00    +0.000 A 
ATOM      7  C   UNL     1      44.130   7.754  11.273  0.00  0.00    +0.000 A 
ATOM      8  C   UNL     1      44.665   6.537  11.714  0.00  0.00    +0.000 A 
ATOM      9  C   UNL     1      45.942   6.576  12.315  0.00  0.00    +0.000 A 
BRANCH   4  14
ATOM     10  C   UNL     1      49.528   6.920  14.876  0.00  0.00    +0.000 A 
ATOM     11  C   UNL     1      50.468   7.816  14.385  0.00  0.00    +0.000 A 
ATOM     12  N   UNL     1      50.250   8.663  13.355  0.00  0.00    +0.000 NA
ATOM     13  C   UNL     1      49.022   8.611  12.785  0.00  0.00    +0.000 A 
ATOM     14  C   UNL     1      47.984   7.764  13.186  0.00  0.00    +0.000 A 
ATOM     15  C   UNL     1      48.274   6.907  14.264  0.00  0.00    +0.000 A 
BRANCH  10  17
ATOM     16  C   UNL     1      48.918   5.671  16.804  0.00  0.00    +0.000 C 
ATOM     17  O   UNL     1      49.931   6.142  15.923  0.00  0.00    +0.000 OA
ENDBRANCH  10  17
ENDBRANCH   4  14
ENDBRANCH   1   8
BRANCH   1  18
ATOM     18  N   UNL     1      43.787   4.757  10.168  0.00  0.00    +0.000 N 
ATOM     19  H   UNL     1      42.841   4.535   9.871  0.00  0.00    +0.000 HD
BRANCH  18  20
ATOM     20  C   UNL     1      44.761   4.084   9.410  0.00  0.00    +0.000 A 
ATOM     21  C   UNL     1      45.656   4.704   8.538  0.00  0.00    +0.000 A 
ATOM     22  C   UNL     1      46.509   3.942   7.722  0.00  0.00    +0.000 A 
ATOM     23  C   UNL     1      46.466   2.543   7.759  0.00  0.00    +0.000 A 
ATOM     24  C   UNL     1      45.567   1.911   8.618  0.00  0.00    +0.000 A 
ATOM     25  C   UNL     1      44.727   2.678   9.427  0.00  0.00    +0.000 A 
BRANCH  23  26
ATOM     26  C   UNL     1      47.326   1.766   6.826  0.00  0.00    +0.000 C 
ATOM     27  N   UNL     1      48.366   2.421   6.227  0.00  0.00    +0.000 N 
ATOM     28  O   UNL     1      47.107   0.589   6.586  0.00  0.00    +0.000 OA
ATOM     29  H   UNL     1      48.453   3.426   6.212  0.00  0.00    +0.000 HD
ATOM     30  H   UNL     1      48.905   1.892   5.552  0.00  0.00    +0.000 HD
ENDBRANCH  23  26
ENDBRANCH  18  20
ENDBRANCH   1  18
TORSDOF 6
ENDMDL
MODEL 5
REMARK VINA RESULT:    -7.624      1.363      2.055
REMARK INTER + INTRA:         -11.551
REMARK INTER:                 -11.108
REMARK INTRA:                  -0.443
REMARK UNBOUND:                -1.252
REMARK  Name = 
REMARK  7 active torsions:
REMARK  status: ('A' for Active; 'I' for Inactive)
REMARK    1  A    between atoms: C_1  and  O_2
REMARK    2  A    between atoms: O_2  and  C_3
REMARK    3  A    between atoms: C_7  and  C_8
REMARK    4  A    between atoms: C_12  and  C_13
REMARK    5  A    between atoms: C_13  and  N_14
REMARK    6  A    between atoms: N_14  and  C_15
REMARK    7  A    between atoms: C_18  and  C_19
REMARK                            x       y       z     vdW  Elec       q    Type
REMARK                         _______ _______ _______ _____ _____    ______ ____
ROOT
ATOM      1  C   UNL     1      44.091   4.465  11.649  0.00  0.00    +0.000 C 
ATOM      2  C   UNL     1      43.442   3.925  12.905  0.00  0.00    +0.000 C 
ATOM      3  C   UNL     1      44.776   3.394  12.501  0.00  0.00    +0.000 C 
ENDROOT
BRANCH   1   8
ATOM      4  C   UNL     1      46.616   7.358  12.164  0.00  0.00    +0.000 A 
ATOM      5  C   UNL     1      45.812   8.455  11.816  0.00  0.00    +0.000 A 
ATOM      6  C   UNL     1      44.493   8.280  11.397  0.00  0.00    +0.000 A 
ATOM      7  C   UNL     1      43.941   7.001  11.336  0.00  0.00    +0.000 A 
ATOM      8  C   UNL     1      44.688   5.869  11.685  0.00  0.00    +0.000 A 
ATOM      9  C   UNL     1      46.029   6.080  12.075  0.00  0.00    +0.000 A 
BRANCH   4  14
ATOM     10  C   UNL     1      50.336   8.159  12.194  0.00  0.00    +0.000 A 
ATOM     11  C   UNL     1      50.607   7.820  13.513  0.00  0.00    +0.000 A 
ATOM     12  N   UNL     1      49.685   7.361  14.387  0.00  0.00    +0.000 NA
ATOM     13  C   UNL     1      48.422   7.233  13.915  0.00  0.00    +0.000 A 
ATOM     14  C   UNL     1      48.015   7.531  12.611  0.00  0.00    +0.000 A 
ATOM     15  C   UNL     1      49.023   8.005  11.749  0.00  0.00    +0.000 A 
BRANCH  10  17
ATOM     16  C   UNL     1      52.424   9.294  12.166  0.00  0.00    +0.000 C 
ATOM     17  O   UNL     1      51.396   8.608  11.461  0.00  0.00    +0.000 OA
ENDBRANCH  10  17
ENDBRANCH   4  14
ENDBRANCH   1   8
BRANCH   1  18
ATOM     18  N   UNL     1      43.740   3.993  10.302  0.00  0.00    +0.000 N 
ATOM     19  H   UNL     1      42.794   3.637  10.204  0.00  0.00    +0.000 HD
BRANCH  18  20
ATOM     20  C   UNL     1      44.614   3.473   9.332  0.00  0.00    +0.000 A 
ATOM     21  C   UNL     1      44.951   2.124   9.210  0.00  0.00    +0.000 A 
ATOM     22  C   UNL     1      45.933   1.709   8.294  0.00  0.00    +0.000 A 
ATOM     23  C   UNL     1      46.603   2.645   7.497  0.00  0.00    +0.000 A 
ATOM     24  C   UNL     1      46.285   3.998   7.620  0.00  0.00    +0.000 A 
ATOM     25  C   UNL     1      45.304   4.399   8.529  0.00  0.00    +0.000 A 
BRANCH  23  26
ATOM     26  C   UNL     1      47.693   2.182   6.597  0.00  0.00    +0.000 C 
ATOM     27  N   UNL     1      47.939   2.915   5.469  0.00  0.00    +0.000 N 
ATOM     28  O   UNL     1      48.339   1.176   6.841  0.00  0.00    +0.000 OA
ATOM     29  H   UNL     1      47.301   3.609   5.108  0.00  0.00    +0.000 HD
ATOM     30  H   UNL     1      48.645   2.554   4.839  0.00  0.00    +0.000 HD
ENDBRANCH  23  26
ENDBRANCH  18  20
ENDBRANCH   1  18
TORSDOF 6
ENDMDL
MODEL 6
REMARK VINA RESULT:    -6.970      3.268      7.554
REMARK INTER + INTRA:         -10.667
REMARK INTER:                 -10.441
REMARK INTRA:                  -0.226
REMARK UNBOUND:                -1.252
REMARK  Name = 
REMARK  7 active torsions:
REMARK  status: ('A' for Active; 'I' for Inactive)
REMARK    1  A    between atoms: C_1  and  O_2
REMARK    2  A    between atoms: O_2  and  C_3
REMARK    3  A    between atoms: C_7  and  C_8
REMARK    4  A    between atoms: C_12  and  C_13
REMARK    5  A    between atoms: C_13  and  N_14
REMARK    6  A    between atoms: N_14  and  C_15
REMARK    7  A    between atoms: C_18  and  C_19
REMARK                            x       y       z     vdW  Elec       q    Type
REMARK                         _______ _______ _______ _____ _____    ______ ____
ROOT
ATOM      1  C   UNL     1      48.611   8.016  12.643  0.00  0.00    +0.000 C 
ATOM      2  C   UNL     1      49.495   8.881  11.770  0.00  0.00    +0.000 C 
ATOM      3  C   UNL     1      49.713   7.405  11.775  0.00  0.00    +0.000 C 
ENDROOT
BRANCH   1   8
ATOM      4  C   UNL     1      45.492   6.339  11.073  0.00  0.00    +0.000 A 
ATOM      5  C   UNL     1      44.523   7.321  11.332  0.00  0.00    +0.000 A 
ATOM      6  C   UNL     1      44.847   8.491  12.020  0.00  0.00    +0.000 A 
ATOM      7  C   UNL     1      46.155   8.713  12.448  0.00  0.00    +0.000 A 
ATOM      8  C   UNL     1      47.168   7.776  12.205  0.00  0.00    +0.000 A 
ATOM      9  C   UNL     1      46.800   6.591  11.533  0.00  0.00    +0.000 A 
BRANCH   4  14
ATOM     10  C   UNL     1      45.311   3.662   8.374  0.00  0.00    +0.000 A 
ATOM     11  C   UNL     1      44.495   2.757   9.038  0.00  0.00    +0.000 A 
ATOM     12  N   UNL     1      44.006   2.942  10.285  0.00  0.00    +0.000 NA
ATOM     13  C   UNL     1      44.354   4.098  10.900  0.00  0.00    +0.000 A 
ATOM     14  C   UNL     1      45.160   5.095  10.343  0.00  0.00    +0.000 A 
ATOM     15  C   UNL     1      45.637   4.842   9.042  0.00  0.00    +0.000 A 
BRANCH  10  17
ATOM     16  C   UNL     1      46.974   2.661   7.002  0.00  0.00    +0.000 C 
ATOM     17  O   UNL     1      45.708   3.301   7.119  0.00  0.00    +0.000 OA
ENDBRANCH  10  17
ENDBRANCH   4  14
ENDBRANCH   1   8
BRANCH   1  18
ATOM     18  N   UNL     1      48.842   7.834  14.083  0.00  0.00    +0.000 N 
ATOM     19  H   UNL     1      49.613   8.374  14.466  0.00  0.00    +0.000 HD
BRANCH  18  20
ATOM     20  C   UNL     1      48.551   6.693  14.850  0.00  0.00    +0.000 A 
ATOM     21  C   UNL     1      47.644   5.698  14.480  0.00  0.00    +0.000 A 
ATOM     22  C   UNL     1      47.317   4.659  15.367  0.00  0.00    +0.000 A 
ATOM     23  C   UNL     1      47.885   4.610  16.646  0.00  0.00    +0.000 A 
ATOM     24  C   UNL     1      48.782   5.605  17.033  0.00  0.00    +0.000 A 
ATOM     25  C   UNL     1      49.103   6.632  16.142  0.00  0.00    +0.000 A 
BRANCH  23  26
ATOM     26  C   UNL     1      47.456   3.542  17.589  0.00  0.00    +0.000 C 
ATOM     27  N   UNL     1      48.254   3.293  18.671  0.00  0.00    +0.000 N 
ATOM     28  O   UNL     1      46.438   2.895  17.401  0.00  0.00    +0.000 OA
ATOM     29  H   UNL     1      49.202   3.631  18.751  0.00  0.00    +0.000 HD
ATOM     30  H   UNL     1      47.978   2.525  19.270  0.00  0.00    +0.000 HD
ENDBRANCH  23  26
ENDBRANCH  18  20
ENDBRANCH   1  18
TORSDOF 6
ENDMDL
MODEL 7
REMARK VINA RESULT:    -6.657      5.401      8.645
REMARK INTER + INTRA:         -10.244
REMARK INTER:                  -9.537
REMARK INTRA:                  -0.707
REMARK UNBOUND:                -1.252
REMARK  Name = 
REMARK  7 active torsions:
REMARK  status: ('A' for Active; 'I' for Inactive)
REMARK    1  A    between atoms: C_1  and  O_2
REMARK    2  A    between atoms: O_2  and  C_3
REMARK    3  A    between atoms: C_7  and  C_8
REMARK    4  A    between atoms: C_12  and  C_13
REMARK    5  A    between atoms: C_13  and  N_14
REMARK    6  A    between atoms: N_14  and  C_15
REMARK    7  A    between atoms: C_18  and  C_19
REMARK                            x       y       z     vdW  Elec       q    Type
REMARK                         _______ _______ _______ _____ _____    ______ ____
ROOT
ATOM      1  C   UNL     1      48.182   4.601  16.963  0.00  0.00    +0.000 C 
ATOM      2  C   UNL     1      47.262   3.535  17.520  0.00  0.00    +0.000 C 
ATOM      3  C   UNL     1      47.205   4.908  18.100  0.00  0.00    +0.000 C 
ENDROOT
BRANCH   1   8
ATOM      4  C   UNL     1      46.555   5.114  13.486  0.00  0.00    +0.000 A 
ATOM      5  C   UNL     1      47.283   6.226  13.032  0.00  0.00    +0.000 A 
ATOM      6  C   UNL     1      48.260   6.823  13.828  0.00  0.00    +0.000 A 
ATOM      7  C   UNL     1      48.546   6.309  15.092  0.00  0.00    +0.000 A 
ATOM      8  C   UNL     1      47.864   5.192  15.593  0.00  0.00    +0.000 A 
ATOM      9  C   UNL     1      46.860   4.631  14.774  0.00  0.00    +0.000 A 
BRANCH   4  14
ATOM     10  C   UNL     1      44.437   4.084  10.497  0.00  0.00    +0.000 A 
ATOM     11  C   UNL     1      43.550   3.242  11.155  0.00  0.00    +0.000 A 
ATOM     12  N   UNL     1      43.589   2.981  12.480  0.00  0.00    +0.000 NA
ATOM     13  C   UNL     1      44.568   3.596  13.186  0.00  0.00    +0.000 A 
ATOM     14  C   UNL     1      45.517   4.471  12.650  0.00  0.00    +0.000 A 
ATOM     15  C   UNL     1      45.424   4.702  11.264  0.00  0.00    +0.000 A 
BRANCH  10  17
ATOM     16  C   UNL     1      45.385   4.075   8.317  0.00  0.00    +0.000 C 
ATOM     17  O   UNL     1      44.243   4.225   9.153  0.00  0.00    +0.000 OA
ENDBRANCH  10  17
ENDBRANCH   4  14
ENDBRANCH   1   8
BRANCH   1  18
ATOM     18  N   UNL     1      49.590   4.728  17.363  0.00  0.00    +0.000 N 
ATOM     19  H   UNL     1      50.002   5.643  17.203  0.00  0.00    +0.000 HD
BRANCH  18  20
ATOM     20  C   UNL     1      50.554   3.706  17.410  0.00  0.00    +0.000 A 
ATOM     21  C   UNL     1      50.295   2.360  17.148  0.00  0.00    +0.000 A 
ATOM     22  C   UNL     1      51.288   1.386  17.345  0.00  0.00    +0.000 A 
ATOM     23  C   UNL     1      52.554   1.747  17.823  0.00  0.00    +0.000 A 
ATOM     24  C   UNL     1      52.821   3.087  18.101  0.00  0.00    +0.000 A 
ATOM     25  C   UNL     1      51.827   4.048  17.898  0.00  0.00    +0.000 A 
BRANCH  23  26
ATOM     26  C   UNL     1      53.557   0.682  18.097  0.00  0.00    +0.000 C 
ATOM     27  N   UNL     1      53.690  -0.317  17.173  0.00  0.00    +0.000 N 
ATOM     28  O   UNL     1      54.230   0.686  19.115  0.00  0.00    +0.000 OA
ATOM     29  H   UNL     1      53.015  -0.490  16.442  0.00  0.00    +0.000 HD
ATOM     30  H   UNL     1      54.336  -1.062  17.403  0.00  0.00    +0.000 HD
ENDBRANCH  23  26
ENDBRANCH  18  20
ENDBRANCH   1  18
TORSDOF 6
ENDMDL
MODEL 8
REMARK VINA RESULT:    -6.422      3.888      8.645
REMARK INTER + INTRA:          -9.926
REMARK INTER:                  -8.735
REMARK INTRA:                  -1.191
REMARK UNBOUND:                -1.252
REMARK  Name = 
REMARK  7 active torsions:
REMARK  status: ('A' for Active; 'I' for Inactive)
REMARK    1  A    between atoms: C_1  and  O_2
REMARK    2  A    between atoms: O_2  and  C_3
REMARK    3  A    between atoms: C_7  and  C_8
REMARK    4  A    between atoms: C_12  and  C_13
REMARK    5  A    between atoms: C_13  and  N_14
REMARK    6  A    between atoms: N_14  and  C_15
REMARK    7  A    between atoms: C_18  and  C_19
REMARK                            x       y       z     vdW  Elec       q    Type
REMARK                         _______ _______ _______ _____ _____    ______ ____
ROOT
ATOM      1  C   UNL     1      49.147   7.841  13.173  0.00  0.00    +0.000 C 
ATOM      2  C   UNL     1      49.968   9.059  12.808  0.00  0.00    +0.000 C 
ATOM      3  C   UNL     1      50.150   7.807  12.018  0.00  0.00    +0.000 C 
ENDROOT
BRANCH   1   8
ATOM      4  C   UNL     1      45.622   6.544  12.224  0.00  0.00    +0.000 A 
ATOM      5  C   UNL     1      44.940   7.762  12.077  0.00  0.00    +0.000 A 
ATOM      6  C   UNL     1      45.580   8.980  12.302  0.00  0.00    +0.000 A 
ATOM      7  C   UNL     1      46.927   9.009  12.660  0.00  0.00    +0.000 A 
ATOM      8  C   UNL     1      47.665   7.827  12.807  0.00  0.00    +0.000 A 
ATOM      9  C   UNL     1      46.978   6.611  12.602  0.00  0.00    +0.000 A 
BRANCH   4  14
ATOM     10  C   UNL     1      44.288   3.415  10.517  0.00  0.00    +0.000 A 
ATOM     11  C   UNL     1      43.680   2.826  11.617  0.00  0.00    +0.000 A 
ATOM     12  N   UNL     1      43.674   3.356  12.860  0.00  0.00    +0.000 NA
ATOM     13  C   UNL     1      44.310   4.542  13.010  0.00  0.00    +0.000 A 
ATOM     14  C   UNL     1      44.954   5.245  11.987  0.00  0.00    +0.000 A 
ATOM     15  C   UNL     1      44.925   4.640  10.716  0.00  0.00    +0.000 A 
BRANCH  10  17
ATOM     16  C   UNL     1      45.322   1.957   8.951  0.00  0.00    +0.000 C 
ATOM     17  O   UNL     1      44.192   2.729   9.341  0.00  0.00    +0.000 OA
ENDBRANCH  10  17
ENDBRANCH   4  14
ENDBRANCH   1   8
BRANCH   1  18
ATOM     18  N   UNL     1      49.505   6.937  14.275  0.00  0.00    +0.000 N 
ATOM     19  H   UNL     1      49.797   6.007  13.991  0.00  0.00    +0.000 HD
BRANCH  18  20
ATOM     20  C   UNL     1      49.009   6.967  15.590  0.00  0.00    +0.000 A 
ATOM     21  C   UNL     1      48.995   8.098  16.407  0.00  0.00    +0.000 A 
ATOM     22  C   UNL     1      48.601   8.007  17.753  0.00  0.00    +0.000 A 
ATOM     23  C   UNL     1      48.228   6.774  18.303  0.00  0.00    +0.000 A 
ATOM     24  C   UNL     1      48.250   5.634  17.500  0.00  0.00    +0.000 A 
ATOM     25  C   UNL     1      48.639   5.737  16.163  0.00  0.00    +0.000 A 
BRANCH  23  26
ATOM     26  C   UNL     1      47.893   6.698  19.751  0.00  0.00    +0.000 C 
ATOM     27  N   UNL     1      47.101   5.664  20.166  0.00  0.00    +0.000 N 
ATOM     28  O   UNL     1      48.294   7.535  20.544  0.00  0.00    +0.000 OA
ATOM     29  H   UNL     1      46.565   5.088  19.533  0.00  0.00    +0.000 HD
ATOM     30  H   UNL     1      46.836   5.660  21.143  0.00  0.00    +0.000 HD
ENDBRANCH  23  26
ENDBRANCH  18  20
ENDBRANCH   1  18
TORSDOF 6
ENDMDL
MODEL 9
REMARK VINA RESULT:    -6.351      4.026      6.029
REMARK INTER + INTRA:          -9.830
REMARK INTER:                  -8.802
REMARK INTRA:                  -1.028
REMARK UNBOUND:                -1.252
REMARK  Name = 
REMARK  7 active torsions:
REMARK  status: ('A' for Active; 'I' for Inactive)
REMARK    1  A    between atoms: C_1  and  O_2
REMARK    2  A    between atoms: O_2  and  C_3
REMARK    3  A    between atoms: C_7  and  C_8
REMARK    4  A    between atoms: C_12  and  C_13
REMARK    5  A    between atoms: C_13  and  N_14
REMARK    6  A    between atoms: N_14  and  C_15
REMARK    7  A    between atoms: C_18  and  C_19
REMARK                            x       y       z     vdW  Elec       q    Type
REMARK                         _______ _______ _______ _____ _____    ______ ____
ROOT
ATOM      1  C   UNL     1      47.857   8.060  12.557  0.00  0.00    +0.000 C 
ATOM      2  C   UNL     1      48.949   7.701  11.572  0.00  0.00    +0.000 C 
ATOM      3  C   UNL     1      48.578   9.136  11.742  0.00  0.00    +0.000 C 
ENDROOT
BRANCH   1   8
ATOM      4  C   UNL     1      48.766   6.640  16.045  0.00  0.00    +0.000 A 
ATOM      5  C   UNL     1      48.707   7.813  16.814  0.00  0.00    +0.000 A 
ATOM      6  C   UNL     1      48.409   9.045  16.232  0.00  0.00    +0.000 A 
ATOM      7  C   UNL     1      48.143   9.129  14.866  0.00  0.00    +0.000 A 
ATOM      8  C   UNL     1      48.171   7.991  14.049  0.00  0.00    +0.000 A 
ATOM      9  C   UNL     1      48.506   6.766  14.665  0.00  0.00    +0.000 A 
BRANCH   4  14
ATOM     10  C   UNL     1      50.617   3.793  17.761  0.00  0.00    +0.000 A 
ATOM     11  C   UNL     1      49.595   2.854  17.759  0.00  0.00    +0.000 A 
ATOM     12  N   UNL     1      48.360   3.072  17.254  0.00  0.00    +0.000 NA
ATOM     13  C   UNL     1      48.137   4.297  16.720  0.00  0.00    +0.000 A 
ATOM     14  C   UNL     1      49.079   5.328  16.651  0.00  0.00    +0.000 A 
ATOM     15  C   UNL     1      50.345   5.039  17.195  0.00  0.00    +0.000 A 
BRANCH  10  17
ATOM     16  C   UNL     1      52.962   4.127  17.960  0.00  0.00    +0.000 C 
ATOM     17  O   UNL     1      51.797   3.392  18.318  0.00  0.00    +0.000 OA
ENDBRANCH  10  17
ENDBRANCH   4  14
ENDBRANCH   1   8
BRANCH   1  18
ATOM     18  N   UNL     1      46.426   7.956  12.237  0.00  0.00    +0.000 N 
ATOM     19  H   UNL     1      45.846   8.698  12.614  0.00  0.00    +0.000 HD
BRANCH  18  20
ATOM     20  C   UNL     1      45.699   6.780  11.983  0.00  0.00    +0.000 A 
ATOM     21  C   UNL     1      45.062   6.015  12.960  0.00  0.00    +0.000 A 
ATOM     22  C   UNL     1      44.467   4.784  12.635  0.00  0.00    +0.000 A 
ATOM     23  C   UNL     1      44.516   4.295  11.323  0.00  0.00    +0.000 A 
ATOM     24  C   UNL     1      45.162   5.044  10.340  0.00  0.00    +0.000 A 
ATOM     25  C   UNL     1      45.746   6.268  10.674  0.00  0.00    +0.000 A 
BRANCH  23  26
ATOM     26  C   UNL     1      43.947   2.952  11.028  0.00  0.00    +0.000 C 
ATOM     27  N   UNL     1      44.526   2.224  10.026  0.00  0.00    +0.000 N 
ATOM     28  O   UNL     1      42.989   2.516  11.645  0.00  0.00    +0.000 OA
ATOM     29  H   UNL     1      45.159   2.621   9.347  0.00  0.00    +0.000 HD
ATOM     30  H   UNL     1      44.090   1.338   9.801  0.00  0.00    +0.000 HD
ENDBRANCH  23  26
ENDBRANCH  18  20
ENDBRANCH   1  18
TORSDOF 6
ENDMDL
