MODEL 1
REMARK VINA RESULT:    -8.512      0.000      0.000
REMARK INTER + INTRA:         -10.658
REMARK INTER:                 -10.005
REMARK INTRA:                  -0.653
REMARK UNBOUND:                -0.653
REMARK  Name = 
REMARK  3 active torsions:
REMARK  status: ('A' for Active; 'I' for Inactive)
REMARK    1  A    between atoms: C_2  and  C_4
REMARK    2  A    between atoms: N_8  and  C_9
REMARK    3  A    between atoms: C_9  and  C_10
REMARK                            x       y       z     vdW  Elec       q    Type
REMARK                         _______ _______ _______ _____ _____    ______ ____
ROOT
ATOM      1  C   UNL     1      46.557   2.741   7.461  0.00  0.00    +0.000 A 
ATOM      2  C   UNL     1      46.195   4.065   7.678  0.00  0.00    +0.000 A 
ATOM      3  C   UNL     1      45.361   4.377   8.753  0.00  0.00    +0.000 A 
ATOM      4  C   UNL     1      44.895   3.367   9.587  0.00  0.00    +0.000 A 
ATOM      5  N   UNL     1      44.001   3.594  10.637  0.00  0.00    +0.000 N 
ATOM      6  N   UNL     1      45.226   2.075   9.372  0.00  0.00    +0.000 NA
ATOM      7  C   UNL     1      46.039   1.786   8.320  0.00  0.00    +0.000 A 
ATOM      8  H   UNL     1      43.891   2.707  11.124  0.00  0.00    +0.000 HD
ENDROOT
BRANCH   1  10
ATOM      9  N   UNL     1      47.306   3.000   5.167  0.00  0.00    +0.000 N 
ATOM     10  C   UNL     1      47.436   2.325   6.348  0.00  0.00    +0.000 C 
ATOM     11  O   UNL     1      48.262   1.434   6.485  0.00  0.00    +0.000 OA
ATOM     12  H   UNL     1      47.971   2.770   4.439  0.00  0.00    +0.000 HD
ATOM     13  H   UNL     1      46.819   3.883   5.089  0.00  0.00    +0.000 HD
ENDBRANCH   1  10
BRANCH   5  14
ATOM     14  C   UNL     1      43.945   4.820  11.449  0.00  0.00    +0.000 C 
ATOM     15  C   UNL     1      42.668   4.993  12.268  0.00  0.00    +0.000 C 
ATOM     16  C   UNL     1      42.971   5.954  11.170  0.00  0.00    +0.000 C 
BRANCH  14  17
ATOM     17  C   UNL     1      45.270   5.200  12.111  0.00  0.00    +0.000 A 
ATOM     18  C   UNL     1      45.953   6.378  11.746  0.00  0.00    +0.000 A 
ATOM     19  C   UNL     1      47.120   6.779  12.402  0.00  0.00    +0.000 A 
ATOM     20  C   UNL     1      47.626   5.999  13.432  0.00  0.00    +0.000 A 
ATOM     21  F   UNL     1      48.727   6.396  14.084  0.00  0.00    +0.000 F 
ATOM     22  C   UNL     1      47.002   4.815  13.800  0.00  0.00    +0.000 A 
ATOM     23  C   UNL     1      45.840   4.415  13.136  0.00  0.00    +0.000 A 
ENDBRANCH  14  17
ENDBRANCH   5  14
TORSDOF 3
ENDMDL
MODEL 2
REMARK VINA RESULT:    -6.838      3.906      6.238
REMARK INTER + INTRA:          -8.690
REMARK INTER:                  -8.230
REMARK INTRA:                  -0.460
REMARK UNBOUND:                -0.653
REMARK  Name = 
REMARK  3 active torsions:
REMARK  status: ('A' for Active; 'I' for Inactive)
REMARK    1  A    between atoms: C_2  and  C_4
REMARK    2  A    between atoms: N_8  and  C_9
REMARK    3  A    between atoms: C_9  and  C_10
REMARK                            x       y       z     vdW  Elec       q    Type
REMARK                         _______ _______ _______ _____ _____    ______ ____
ROOT
ATOM      1  C   UNL     1      48.344   6.637  13.709  0.00  0.00    +0.000 A 
ATOM      2  C   UNL     1      47.482   5.600  14.046  0.00  0.00    +0.000 A 
ATOM      3  C   UNL     1      46.351   5.370  13.261  0.00  0.00    +0.000 A 
ATOM      4  C   UNL     1      46.095   6.180  12.160  0.00  0.00    +0.000 A 
ATOM      5  N   UNL     1      44.947   6.055  11.371  0.00  0.00    +0.000 N 
ATOM      6  N   UNL     1      46.916   7.202  11.836  0.00  0.00    +0.000 NA
ATOM      7  C   UNL     1      48.014   7.414  12.612  0.00  0.00    +0.000 A 
ATOM      8  H   UNL     1      45.050   6.712  10.600  0.00  0.00    +0.000 HD
ENDROOT
BRANCH   1  10
ATOM      9  N   UNL     1      50.532   7.678  13.858  0.00  0.00    +0.000 N 
ATOM     10  C   UNL     1      49.563   6.947  14.486  0.00  0.00    +0.000 C 
ATOM     11  O   UNL     1      49.688   6.589  15.649  0.00  0.00    +0.000 OA
ATOM     12  H   UNL     1      51.323   7.962  14.424  0.00  0.00    +0.000 HD
ATOM     13  H   UNL     1      50.367   8.188  13.001  0.00  0.00    +0.000 HD
ENDBRANCH   1  10
BRANCH   5  14
ATOM     14  C   UNL     1      44.246   4.792  11.092  0.00  0.00    +0.000 C 
ATOM     15  C   UNL     1      42.727   4.853  11.228  0.00  0.00    +0.000 C 
ATOM     16  C   UNL     1      43.513   3.998  12.162  0.00  0.00    +0.000 C 
BRANCH  14  17
ATOM     17  C   UNL     1      44.823   3.996   9.920  0.00  0.00    +0.000 A 
ATOM     18  C   UNL     1      45.479   4.645   8.854  0.00  0.00    +0.000 A 
ATOM     19  C   UNL     1      46.084   3.923   7.821  0.00  0.00    +0.000 A 
ATOM     20  C   UNL     1      46.032   2.536   7.836  0.00  0.00    +0.000 A 
ATOM     21  F   UNL     1      46.637   1.840   6.865  0.00  0.00    +0.000 F 
ATOM     22  C   UNL     1      45.367   1.861   8.850  0.00  0.00    +0.000 A 
ATOM     23  C   UNL     1      44.758   2.588   9.877  0.00  0.00    +0.000 A 
ENDBRANCH  14  17
ENDBRANCH   5  14
TORSDOF 3
ENDMDL
MODEL 3
REMARK VINA RESULT:    -6.739      3.842      6.324
REMARK INTER + INTRA:          -8.574
REMARK INTER:                  -8.784
REMARK INTRA:                   0.211
REMARK UNBOUND:                -0.653
REMARK  Name = 
REMARK  3 active torsions:
REMARK  status: ('A' for Active; 'I' for Inactive)
REMARK    1  A    between atoms: C_2  and  C_4
REMARK    2  A    between atoms: N_8  and  C_9
REMARK    3  A    between atoms: C_9  and  C_10
REMARK                            x       y       z     vdW  Elec       q    Type
REMARK                         _______ _______ _______ _____ _____    ______ ____
ROOT
ATOM      1  C   UNL     1      47.831   5.892  14.484  0.00  0.00    +0.000 A 
ATOM      2  C   UNL     1      47.406   6.154  13.187  0.00  0.00    +0.000 A 
ATOM      3  C   UNL     1      46.611   5.216  12.526  0.00  0.00    +0.000 A 
ATOM      4  C   UNL     1      46.260   4.031  13.164  0.00  0.00    +0.000 A 
ATOM      5  N   UNL     1      45.528   3.016  12.540  0.00  0.00    +0.000 N 
ATOM      6  N   UNL     1      46.684   3.759  14.416  0.00  0.00    +0.000 NA
ATOM      7  C   UNL     1      47.460   4.682  15.047  0.00  0.00    +0.000 A 
ATOM      8  H   UNL     1      45.349   2.308  13.249  0.00  0.00    +0.000 HD
ENDROOT
BRANCH   1  10
ATOM      9  N   UNL     1      48.088   7.993  15.672  0.00  0.00    +0.000 N 
ATOM     10  C   UNL     1      48.673   6.830  15.254  0.00  0.00    +0.000 C 
ATOM     11  O   UNL     1      49.836   6.567  15.530  0.00  0.00    +0.000 OA
ATOM     12  H   UNL     1      48.644   8.588  16.273  0.00  0.00    +0.000 HD
ATOM     13  H   UNL     1      47.087   8.134  15.675  0.00  0.00    +0.000 HD
ENDBRANCH   1  10
BRANCH   5  14
ATOM     14  C   UNL     1      44.489   3.227  11.521  0.00  0.00    +0.000 C 
ATOM     15  C   UNL     1      43.369   4.180  11.929  0.00  0.00    +0.000 C 
ATOM     16  C   UNL     1      43.056   2.744  11.687  0.00  0.00    +0.000 C 
BRANCH  14  17
ATOM     17  C   UNL     1      45.019   3.326  10.089  0.00  0.00    +0.000 A 
ATOM     18  C   UNL     1      45.341   4.574   9.518  0.00  0.00    +0.000 A 
ATOM     19  C   UNL     1      45.905   4.669   8.243  0.00  0.00    +0.000 A 
ATOM     20  C   UNL     1      46.147   3.513   7.515  0.00  0.00    +0.000 A 
ATOM     21  F   UNL     1      46.716   3.598   6.306  0.00  0.00    +0.000 F 
ATOM     22  C   UNL     1      45.814   2.267   8.029  0.00  0.00    +0.000 A 
ATOM     23  C   UNL     1      45.243   2.178   9.301  0.00  0.00    +0.000 A 
ENDBRANCH  14  17
ENDBRANCH   5  14
TORSDOF 3
ENDMDL
MODEL 4
REMARK VINA RESULT:    -6.132      4.249      6.636
REMARK INTER + INTRA:          -7.860
REMARK INTER:                  -8.087
REMARK INTRA:                   0.227
REMARK UNBOUND:                -0.653
REMARK  Name = 
REMARK  3 active torsions:
REMARK  status: ('A' for Active; 'I' for Inactive)
REMARK    1  A    between atoms: C_2  and  C_4
REMARK    2  A    between atoms: N_8  and  C_9
REMARK    3  A    between atoms: C_9  and  C_10
REMARK                            x       y       z     vdW  Elec       q    Type
REMARK                         _______ _______ _______ _____ _____    ______ ____
ROOT
ATOM      1  C   UNL     1      48.539   6.145  15.074  0.00  0.00    +0.000 A 
ATOM      2  C   UNL     1      48.145   6.472  13.782  0.00  0.00    +0.000 A 
ATOM      3  C   UNL     1      47.085   5.780  13.195  0.00  0.00    +0.000 A 
ATOM      4  C   UNL     1      46.440   4.770  13.901  0.00  0.00    +0.000 A 
ATOM      5  N   UNL     1      45.420   3.987  13.353  0.00  0.00    +0.000 N 
ATOM      6  N   UNL     1      46.828   4.432  15.149  0.00  0.00    +0.000 NA
ATOM      7  C   UNL     1      47.864   5.115  15.708  0.00  0.00    +0.000 A 
ATOM      8  H   UNL     1      45.080   3.386  14.101  0.00  0.00    +0.000 HD
ENDROOT
BRANCH   1  10
ATOM      9  N   UNL     1      50.700   7.249  15.000  0.00  0.00    +0.000 N 
ATOM     10  C   UNL     1      49.650   6.828  15.768  0.00  0.00    +0.000 C 
ATOM     11  O   UNL     1      49.621   7.033  16.974  0.00  0.00    +0.000 OA
ATOM     12  H   UNL     1      51.414   7.793  15.468  0.00  0.00    +0.000 HD
ATOM     13  H   UNL     1      50.651   7.315  13.992  0.00  0.00    +0.000 HD
ENDBRANCH   1  10
BRANCH   5  14
ATOM     14  C   UNL     1      44.437   4.452  12.362  0.00  0.00    +0.000 C 
ATOM     15  C   UNL     1      43.836   5.826  12.645  0.00  0.00    +0.000 C 
ATOM     16  C   UNL     1      42.959   4.622  12.678  0.00  0.00    +0.000 C 
BRANCH  14  17
ATOM     17  C   UNL     1      44.795   4.118  10.913  0.00  0.00    +0.000 A 
ATOM     18  C   UNL     1      44.427   2.884  10.340  0.00  0.00    +0.000 A 
ATOM     19  C   UNL     1      44.674   2.601   8.993  0.00  0.00    +0.000 A 
ATOM     20  C   UNL     1      45.302   3.552   8.200  0.00  0.00    +0.000 A 
ATOM     21  F   UNL     1      45.512   3.297   6.902  0.00  0.00    +0.000 F 
ATOM     22  C   UNL     1      45.709   4.766   8.734  0.00  0.00    +0.000 A 
ATOM     23  C   UNL     1      45.467   5.040  10.083  0.00  0.00    +0.000 A 
ENDBRANCH  14  17
ENDBRANCH   5  14
TORSDOF 3
ENDMDL
