MODEL 1
REMARK VINA RESULT:    -8.283      0.000      0.000
REMARK INTER + INTRA:         -12.296
REMARK INTER:                 -11.189
REMARK INTRA:                  -1.107
REMARK UNBOUND:                -1.107
REMARK  Name = 
REMARK  6 active torsions:
REMARK  status: ('A' for Active; 'I' for Inactive)
REMARK    1  A    between atoms: C_2  and  C_25
REMARK    2  A    between atoms: N_3  and  C_4
REMARK    3  A    between atoms: C_4  and  C_5
REMARK    4  A    between atoms: C_8  and  C_9
REMARK    5  A    between atoms: C_9  and  N_10
REMARK    6  A    between atoms: C_11  and  C_13
REMARK                            x       y       z     vdW  Elec       q    Type
REMARK                         _______ _______ _______ _____ _____    ______ ____
ROOT
ATOM      1  C   UNL     1      45.088   5.511  10.792  0.00  0.00    +0.000 A 
ATOM      2  C   UNL     1      44.466   5.869  11.996  0.00  0.00    +0.000 A 
ATOM      3  C   UNL     1      45.097   6.734  12.896  0.00  0.00    +0.000 A 
ATOM      4  C   UNL     1      46.355   7.278  12.603  0.00  0.00    +0.000 A 
ATOM      5  C   UNL     1      46.973   6.925  11.396  0.00  0.00    +0.000 A 
ATOM      6  C   UNL     1      46.342   6.061  10.494  0.00  0.00    +0.000 A 
ENDROOT
BRANCH   1   7
ATOM      7  C   UNL     1      44.429   4.543   9.845  0.00  0.00    +0.000 C 
BRANCH   7  10
ATOM      8  O   UNL     1      45.126   1.927   9.253  0.00  0.00    +0.000 OA
ATOM      9  C   UNL     1      45.576   2.819   8.543  0.00  0.00    +0.000 C 
ATOM     10  N   UNL     1      45.301   4.150   8.764  0.00  0.00    +0.000 N 
ATOM     11  H   UNL     1      45.567   4.842   8.080  0.00  0.00    +0.000 HD
BRANCH   9  12
ATOM     12  C   UNL     1      46.415   2.543   7.408  0.00  0.00    +0.000 A 
ATOM     13  C   UNL     1      46.590   3.155   6.181  0.00  0.00    +0.000 A 
ATOM     14  C   UNL     1      47.578   2.397   5.527  0.00  0.00    +0.000 A 
ATOM     15  N   UNL     1      48.005   1.375   6.268  0.00  0.00    +0.000 NA
ATOM     16  N   UNL     1      47.295   1.490   7.404  0.00  0.00    +0.000 N 
ATOM     17  H   UNL     1      47.448   0.818   8.149  0.00  0.00    +0.000 HD
ENDBRANCH   9  12
ENDBRANCH   7  10
ENDBRANCH   1   7
BRANCH   4  18
ATOM     18  C   UNL     1      47.053   8.192  13.577  0.00  0.00    +0.000 C 
BRANCH  18  19
ATOM     19  N   UNL     1      47.511   7.477  14.742  0.00  0.00    +0.000 N 
ATOM     20  C   UNL     1      48.746   6.880  14.767  0.00  0.00    +0.000 C 
ATOM     21  O   UNL     1      49.528   6.967  13.824  0.00  0.00    +0.000 OA
ATOM     22  H   UNL     1      46.808   7.199  15.421  0.00  0.00    +0.000 HD
BRANCH  20  23
ATOM     23  C   UNL     1      49.118   6.180  16.004  0.00  0.00    +0.000 A 
ATOM     24  C   UNL     1      50.204   6.625  16.746  0.00  0.00    +0.000 A 
ATOM     25  S   UNL     1      50.468   5.738  18.178  0.00  0.00    +0.000 S 
ATOM     26  C   UNL     1      49.171   4.692  17.832  0.00  0.00    +0.000 A 
ATOM     27  N   UNL     1      48.861   3.662  18.666  0.00  0.00    +0.000 NA
ATOM     28  C   UNL     1      47.877   2.929  18.265  0.00  0.00    +0.000 A 
ATOM     29  N   UNL     1      47.171   3.135  17.108  0.00  0.00    +0.000 N 
ATOM     30  C   UNL     1      47.429   4.178  16.250  0.00  0.00    +0.000 A 
ATOM     31  O   UNL     1      46.753   4.358  15.243  0.00  0.00    +0.000 OA
ATOM     32  C   UNL     1      48.535   5.027  16.650  0.00  0.00    +0.000 A 
ATOM     33  H   UNL     1      46.406   2.528  16.854  0.00  0.00    +0.000 HD
ENDBRANCH  20  23
ENDBRANCH  18  19
ENDBRANCH   4  18
TORSDOF 6
ENDMDL
MODEL 2
REMARK VINA RESULT:    -7.360      4.604      9.501
REMARK INTER + INTRA:         -11.049
REMARK INTER:                 -10.270
REMARK INTRA:                  -0.779
REMARK UNBOUND:                -1.107
REMARK  Name = 
REMARK  6 active torsions:
REMARK  status: ('A' for Active; 'I' for Inactive)
REMARK    1  A    between atoms: C_2  and  C_25
REMARK    2  A    between atoms: N_3  and  C_4
REMARK    3  A    between atoms: C_4  and  C_5
REMARK    4  A    between atoms: C_8  and  C_9
REMARK    5  A    between atoms: C_9  and  N_10
REMARK    6  A    between atoms: C_11  and  C_13
REMARK                            x       y       z     vdW  Elec       q    Type
REMARK                         _______ _______ _______ _____ _____    ______ ____
ROOT
ATOM      1  C   UNL     1      51.411   2.885  17.735  0.00  0.00    +0.000 A 
ATOM      2  C   UNL     1      50.791   4.087  18.104  0.00  0.00    +0.000 A 
ATOM      3  C   UNL     1      49.431   4.297  17.850  0.00  0.00    +0.000 A 
ATOM      4  C   UNL     1      48.656   3.301  17.241  0.00  0.00    +0.000 A 
ATOM      5  C   UNL     1      49.274   2.097  16.880  0.00  0.00    +0.000 A 
ATOM      6  C   UNL     1      50.634   1.886  17.135  0.00  0.00    +0.000 A 
ENDROOT
BRANCH   1   7
ATOM      7  C   UNL     1      52.885   2.678  17.966  0.00  0.00    +0.000 C 
BRANCH   7  10
ATOM      8  O   UNL     1      54.267   0.620  16.727  0.00  0.00    +0.000 OA
ATOM      9  C   UNL     1      53.881   0.446  17.877  0.00  0.00    +0.000 C 
ATOM     10  N   UNL     1      53.173   1.401  18.572  0.00  0.00    +0.000 N 
ATOM     11  H   UNL     1      52.998   1.282  19.559  0.00  0.00    +0.000 HD
BRANCH   9  12
ATOM     12  C   UNL     1      54.153  -0.767  18.600  0.00  0.00    +0.000 A 
ATOM     13  C   UNL     1      55.313  -1.361  19.063  0.00  0.00    +0.000 A 
ATOM     14  C   UNL     1      54.893  -2.537  19.710  0.00  0.00    +0.000 A 
ATOM     15  N   UNL     1      53.570  -2.695  19.667  0.00  0.00    +0.000 NA
ATOM     16  N   UNL     1      53.145  -1.607  19.001  0.00  0.00    +0.000 N 
ATOM     17  H   UNL     1      52.149  -1.487  18.841  0.00  0.00    +0.000 HD
ENDBRANCH   9  12
ENDBRANCH   7  10
ENDBRANCH   1   7
BRANCH   4  18
ATOM     18  C   UNL     1      47.195   3.527  16.943  0.00  0.00    +0.000 C 
BRANCH  18  19
ATOM     19  N   UNL     1      47.009   4.558  15.954  0.00  0.00    +0.000 N 
ATOM     20  C   UNL     1      47.077   4.274  14.613  0.00  0.00    +0.000 C 
ATOM     21  O   UNL     1      47.252   3.131  14.200  0.00  0.00    +0.000 OA
ATOM     22  H   UNL     1      47.098   5.521  16.265  0.00  0.00    +0.000 HD
BRANCH  20  23
ATOM     23  C   UNL     1      46.868   5.396  13.687  0.00  0.00    +0.000 A 
ATOM     24  C   UNL     1      47.915   6.267  13.416  0.00  0.00    +0.000 A 
ATOM     25  S   UNL     1      47.522   7.480  12.283  0.00  0.00    +0.000 S 
ATOM     26  C   UNL     1      45.922   6.918  12.156  0.00  0.00    +0.000 A 
ATOM     27  N   UNL     1      45.023   7.544  11.349  0.00  0.00    +0.000 NA
ATOM     28  C   UNL     1      43.838   7.033  11.373  0.00  0.00    +0.000 A 
ATOM     29  N   UNL     1      43.471   5.948  12.128  0.00  0.00    +0.000 N 
ATOM     30  C   UNL     1      44.351   5.267  12.934  0.00  0.00    +0.000 A 
ATOM     31  O   UNL     1      44.001   4.276  13.566  0.00  0.00    +0.000 OA
ATOM     32  C   UNL     1      45.696   5.809  12.952  0.00  0.00    +0.000 A 
ATOM     33  H   UNL     1      42.527   5.592  12.097  0.00  0.00    +0.000 HD
ENDBRANCH  20  23
ENDBRANCH  18  19
ENDBRANCH   4  18
TORSDOF 6
ENDMDL
MODEL 3
REMARK VINA RESULT:    -7.095      4.505      9.445
REMARK INTER + INTRA:         -10.691
REMARK INTER:                  -9.616
REMARK INTRA:                  -1.074
REMARK UNBOUND:                -1.107
REMARK  Name = 
REMARK  6 active torsions:
REMARK  status: ('A' for Active; 'I' for Inactive)
REMARK    1  A    between atoms: C_2  and  C_25
REMARK    2  A    between atoms: N_3  and  C_4
REMARK    3  A    between atoms: C_4  and  C_5
REMARK    4  A    between atoms: C_8  and  C_9
REMARK    5  A    between atoms: C_9  and  N_10
REMARK    6  A    between atoms: C_11  and  C_13
REMARK                            x       y       z     vdW  Elec       q    Type
REMARK                         _______ _______ _______ _____ _____    ______ ____
ROOT
ATOM      1  C   UNL     1      51.384   3.071  17.722  0.00  0.00    +0.000 A 
ATOM      2  C   UNL     1      50.848   4.348  17.937  0.00  0.00    +0.000 A 
ATOM      3  C   UNL     1      49.499   4.611  17.672  0.00  0.00    +0.000 A 
ATOM      4  C   UNL     1      48.652   3.597  17.207  0.00  0.00    +0.000 A 
ATOM      5  C   UNL     1      49.187   2.318  17.000  0.00  0.00    +0.000 A 
ATOM      6  C   UNL     1      50.535   2.054  17.266  0.00  0.00    +0.000 A 
ENDROOT
BRANCH   1   7
ATOM      7  C   UNL     1      52.846   2.801  17.962  0.00  0.00    +0.000 C 
BRANCH   7  10
ATOM      8  O   UNL     1      54.203   0.720  16.735  0.00  0.00    +0.000 OA
ATOM      9  C   UNL     1      53.776   0.541  17.870  0.00  0.00    +0.000 C 
ATOM     10  N   UNL     1      53.077   1.507  18.558  0.00  0.00    +0.000 N 
ATOM     11  H   UNL     1      52.867   1.380  19.537  0.00  0.00    +0.000 HD
BRANCH   9  12
ATOM     12  C   UNL     1      53.989  -0.690  18.582  0.00  0.00    +0.000 A 
ATOM     13  C   UNL     1      55.121  -1.367  18.999  0.00  0.00    +0.000 A 
ATOM     14  C   UNL     1      54.643  -2.511  19.663  0.00  0.00    +0.000 A 
ATOM     15  N   UNL     1      53.312  -2.573  19.672  0.00  0.00    +0.000 NA
ATOM     16  N   UNL     1      52.940  -1.457  19.022  0.00  0.00    +0.000 N 
ATOM     17  H   UNL     1      51.950  -1.265  18.902  0.00  0.00    +0.000 HD
ENDBRANCH   9  12
ENDBRANCH   7  10
ENDBRANCH   1   7
BRANCH   4  18
ATOM     18  C   UNL     1      47.202   3.875  16.898  0.00  0.00    +0.000 C 
BRANCH  18  19
ATOM     19  N   UNL     1      47.063   4.813  15.812  0.00  0.00    +0.000 N 
ATOM     20  C   UNL     1      47.095   4.394  14.505  0.00  0.00    +0.000 C 
ATOM     21  O   UNL     1      47.197   3.207  14.207  0.00  0.00    +0.000 OA
ATOM     22  H   UNL     1      47.213   5.794  16.025  0.00  0.00    +0.000 HD
BRANCH  20  23
ATOM     23  C   UNL     1      46.939   5.429  13.475  0.00  0.00    +0.000 A 
ATOM     24  C   UNL     1      45.874   5.359  12.586  0.00  0.00    +0.000 A 
ATOM     25  S   UNL     1      45.808   6.664  11.490  0.00  0.00    +0.000 S 
ATOM     26  C   UNL     1      47.232   7.342  12.128  0.00  0.00    +0.000 A 
ATOM     27  N   UNL     1      47.754   8.487  11.611  0.00  0.00    +0.000 NA
ATOM     28  C   UNL     1      48.854   8.870  12.168  0.00  0.00    +0.000 A 
ATOM     29  N   UNL     1      49.476   8.216  13.200  0.00  0.00    +0.000 N 
ATOM     30  C   UNL     1      48.970   7.074  13.773  0.00  0.00    +0.000 A 
ATOM     31  O   UNL     1      49.530   6.535  14.722  0.00  0.00    +0.000 OA
ATOM     32  C   UNL     1      47.739   6.593  13.175  0.00  0.00    +0.000 A 
ATOM     33  H   UNL     1      50.333   8.573  13.597  0.00  0.00    +0.000 HD
ENDBRANCH  20  23
ENDBRANCH  18  19
ENDBRANCH   4  18
TORSDOF 6
ENDMDL
MODEL 4
REMARK VINA RESULT:    -6.993      2.607      2.882
REMARK INTER + INTRA:         -10.553
REMARK INTER:                  -9.694
REMARK INTRA:                  -0.859
REMARK UNBOUND:                -1.107
REMARK  Name = 
REMARK  6 active torsions:
REMARK  status: ('A' for Active; 'I' for Inactive)
REMARK    1  A    between atoms: C_2  and  C_25
REMARK    2  A    between atoms: N_3  and  C_4
REMARK    3  A    between atoms: C_4  and  C_5
REMARK    4  A    between atoms: C_8  and  C_9
REMARK    5  A    between atoms: C_9  and  N_10
REMARK    6  A    between atoms: C_11  and  C_13
REMARK                            x       y       z     vdW  Elec       q    Type
REMARK                         _______ _______ _______ _____ _____    ______ ____
ROOT
ATOM      1  C   UNL     1      45.248   6.416  11.581  0.00  0.00    +0.000 A 
ATOM      2  C   UNL     1      46.433   5.927  12.147  0.00  0.00    +0.000 A 
ATOM      3  C   UNL     1      47.249   6.756  12.925  0.00  0.00    +0.000 A 
ATOM      4  C   UNL     1      46.888   8.087  13.170  0.00  0.00    +0.000 A 
ATOM      5  C   UNL     1      45.700   8.574  12.610  0.00  0.00    +0.000 A 
ATOM      6  C   UNL     1      44.882   7.745  11.834  0.00  0.00    +0.000 A 
ENDROOT
BRANCH   1   7
ATOM      7  C   UNL     1      44.394   5.537  10.706  0.00  0.00    +0.000 C 
BRANCH   7  10
ATOM      8  O   UNL     1      43.973   2.891   9.998  0.00  0.00    +0.000 OA
ATOM      9  C   UNL     1      44.872   3.504   9.433  0.00  0.00    +0.000 C 
ATOM     10  N   UNL     1      45.169   4.817   9.726  0.00  0.00    +0.000 N 
ATOM     11  H   UNL     1      45.814   5.331   9.144  0.00  0.00    +0.000 HD
BRANCH   9  12
ATOM     12  C   UNL     1      45.677   2.904   8.404  0.00  0.00    +0.000 A 
ATOM     13  C   UNL     1      46.271   3.389   7.254  0.00  0.00    +0.000 A 
ATOM     14  C   UNL     1      46.937   2.287   6.689  0.00  0.00    +0.000 A 
ATOM     15  N   UNL     1      46.785   1.178   7.411  0.00  0.00    +0.000 NA
ATOM     16  N   UNL     1      46.029   1.578   8.448  0.00  0.00    +0.000 N 
ATOM     17  H   UNL     1      45.775   0.902   9.162  0.00  0.00    +0.000 HD
ENDBRANCH   9  12
ENDBRANCH   7  10
ENDBRANCH   1   7
BRANCH   4  18
ATOM     18  C   UNL     1      47.772   8.995  13.988  0.00  0.00    +0.000 C 
BRANCH  18  19
ATOM     19  N   UNL     1      47.547   8.823  15.401  0.00  0.00    +0.000 N 
ATOM     20  C   UNL     1      48.286   9.517  16.326  0.00  0.00    +0.000 C 
ATOM     21  O   UNL     1      49.132  10.343  15.992  0.00  0.00    +0.000 OA
ATOM     22  H   UNL     1      47.034   7.996  15.691  0.00  0.00    +0.000 HD
BRANCH  20  23
ATOM     23  C   UNL     1      47.974   9.273  17.741  0.00  0.00    +0.000 A 
ATOM     24  C   UNL     1      47.604  10.334  18.556  0.00  0.00    +0.000 A 
ATOM     25  S   UNL     1      47.225   9.872  20.154  0.00  0.00    +0.000 S 
ATOM     26  C   UNL     1      47.594   8.244  19.827  0.00  0.00    +0.000 A 
ATOM     27  N   UNL     1      47.501   7.297  20.800  0.00  0.00    +0.000 NA
ATOM     28  C   UNL     1      47.842   6.110  20.423  0.00  0.00    +0.000 A 
ATOM     29  N   UNL     1      48.262   5.783  19.160  0.00  0.00    +0.000 N 
ATOM     30  C   UNL     1      48.344   6.699  18.139  0.00  0.00    +0.000 A 
ATOM     31  O   UNL     1      48.687   6.366  17.009  0.00  0.00    +0.000 OA
ATOM     32  C   UNL     1      47.983   8.053  18.513  0.00  0.00    +0.000 A 
ATOM     33  H   UNL     1      48.509   4.832  18.927  0.00  0.00    +0.000 HD
ENDBRANCH  20  23
ENDBRANCH  18  19
ENDBRANCH   4  18
TORSDOF 6
ENDMDL
MODEL 5
REMARK VINA RESULT:    -6.648      3.216      4.652
REMARK INTER + INTRA:         -10.087
REMARK INTER:                  -9.065
REMARK INTRA:                  -1.023
REMARK UNBOUND:                -1.107
REMARK  Name = 
REMARK  6 active torsions:
REMARK  status: ('A' for Active; 'I' for Inactive)
REMARK    1  A    between atoms: C_2  and  C_25
REMARK    2  A    between atoms: N_3  and  C_4
REMARK    3  A    between atoms: C_4  and  C_5
REMARK    4  A    between atoms: C_8  and  C_9
REMARK    5  A    between atoms: C_9  and  N_10
REMARK    6  A    between atoms: C_11  and  C_13
REMARK                            x       y       z     vdW  Elec       q    Type
REMARK                         _______ _______ _______ _____ _____    ______ ____
ROOT
ATOM      1  C   UNL     1      45.589   5.219  11.264  0.00  0.00    +0.000 A 
ATOM      2  C   UNL     1      46.338   6.396  11.133  0.00  0.00    +0.000 A 
ATOM      3  C   UNL     1      47.118   6.869  12.194  0.00  0.00    +0.000 A 
ATOM      4  C   UNL     1      47.184   6.164  13.403  0.00  0.00    +0.000 A 
ATOM      5  C   UNL     1      46.440   4.983  13.531  0.00  0.00    +0.000 A 
ATOM      6  C   UNL     1      45.662   4.508  12.470  0.00  0.00    +0.000 A 
ENDROOT
BRANCH   1   7
ATOM      7  C   UNL     1      44.714   4.735  10.138  0.00  0.00    +0.000 C 
BRANCH   7  10
ATOM      8  O   UNL     1      45.194   2.092   9.459  0.00  0.00    +0.000 OA
ATOM      9  C   UNL     1      45.649   2.967   8.731  0.00  0.00    +0.000 C 
ATOM     10  N   UNL     1      45.477   4.308   8.991  0.00  0.00    +0.000 N 
ATOM     11  H   UNL     1      45.738   4.995   8.299  0.00  0.00    +0.000 HD
BRANCH   9  12
ATOM     12  C   UNL     1      46.383   2.660   7.533  0.00  0.00    +0.000 A 
ATOM     13  C   UNL     1      46.502   3.280   6.303  0.00  0.00    +0.000 A 
ATOM     14  C   UNL     1      47.392   2.475   5.569  0.00  0.00    +0.000 A 
ATOM     15  N   UNL     1      47.812   1.419   6.265  0.00  0.00    +0.000 NA
ATOM     16  N   UNL     1      47.197   1.558   7.452  0.00  0.00    +0.000 N 
ATOM     17  H   UNL     1      47.364   0.866   8.177  0.00  0.00    +0.000 HD
ENDBRANCH   9  12
ENDBRANCH   7  10
ENDBRANCH   1   7
BRANCH   4  18
ATOM     18  C   UNL     1      48.003   6.677  14.560  0.00  0.00    +0.000 C 
BRANCH  18  19
ATOM     19  N   UNL     1      49.338   7.032  14.148  0.00  0.00    +0.000 N 
ATOM     20  C   UNL     1      49.831   8.295  14.356  0.00  0.00    +0.000 C 
ATOM     21  O   UNL     1      49.179   9.158  14.938  0.00  0.00    +0.000 OA
ATOM     22  H   UNL     1      49.792   6.423  13.474  0.00  0.00    +0.000 HD
BRANCH  20  23
ATOM     23  C   UNL     1      51.205   8.552  13.903  0.00  0.00    +0.000 A 
ATOM     24  C   UNL     1      52.164   8.966  14.818  0.00  0.00    +0.000 A 
ATOM     25  S   UNL     1      53.717   9.168  14.141  0.00  0.00    +0.000 S 
ATOM     26  C   UNL     1      53.152   8.760  12.589  0.00  0.00    +0.000 A 
ATOM     27  N   UNL     1      53.989   8.763  11.517  0.00  0.00    +0.000 NA
ATOM     28  C   UNL     1      53.421   8.468  10.396  0.00  0.00    +0.000 A 
ATOM     29  N   UNL     1      52.092   8.164  10.251  0.00  0.00    +0.000 N 
ATOM     30  C   UNL     1      51.215   8.121  11.309  0.00  0.00    +0.000 A 
ATOM     31  O   UNL     1      50.040   7.807  11.150  0.00  0.00    +0.000 OA
ATOM     32  C   UNL     1      51.802   8.457  12.591  0.00  0.00    +0.000 A 
ATOM     33  H   UNL     1      51.710   7.935   9.345  0.00  0.00    +0.000 HD
ENDBRANCH  20  23
ENDBRANCH  18  19
ENDBRANCH   4  18
TORSDOF 6
ENDMDL
MODEL 6
REMARK VINA RESULT:    -6.568      4.353      6.237
REMARK INTER + INTRA:          -9.979
REMARK INTER:                  -9.290
REMARK INTRA:                  -0.688
REMARK UNBOUND:                -1.107
REMARK  Name = 
REMARK  6 active torsions:
REMARK  status: ('A' for Active; 'I' for Inactive)
REMARK    1  A    between atoms: C_2  and  C_25
REMARK    2  A    between atoms: N_3  and  C_4
REMARK    3  A    between atoms: C_4  and  C_5
REMARK    4  A    between atoms: C_8  and  C_9
REMARK    5  A    between atoms: C_9  and  N_10
REMARK    6  A    between atoms: C_11  and  C_13
REMARK                            x       y       z     vdW  Elec       q    Type
REMARK                         _______ _______ _______ _____ _____    ______ ____
ROOT
ATOM      1  C   UNL     1      45.275   7.305  11.792  0.00  0.00    +0.000 A 
ATOM      2  C   UNL     1      44.321   6.402  12.279  0.00  0.00    +0.000 A 
ATOM      3  C   UNL     1      44.704   5.321  13.082  0.00  0.00    +0.000 A 
ATOM      4  C   UNL     1      46.047   5.131  13.432  0.00  0.00    +0.000 A 
ATOM      5  C   UNL     1      47.000   6.039  12.950  0.00  0.00    +0.000 A 
ATOM      6  C   UNL     1      46.618   7.121  12.150  0.00  0.00    +0.000 A 
ENDROOT
BRANCH   1   7
ATOM      7  C   UNL     1      44.869   8.441  10.891  0.00  0.00    +0.000 C 
BRANCH   7  10
ATOM      8  O   UNL     1      43.869  10.833   9.912  0.00  0.00    +0.000 OA
ATOM      9  C   UNL     1      43.185  10.205  10.712  0.00  0.00    +0.000 C 
ATOM     10  N   UNL     1      43.600   9.015  11.267  0.00  0.00    +0.000 N 
ATOM     11  H   UNL     1      42.955   8.457  11.806  0.00  0.00    +0.000 HD
BRANCH   9  12
ATOM     12  C   UNL     1      41.882  10.655  11.122  0.00  0.00    +0.000 A 
ATOM     13  C   UNL     1      40.652  10.711  10.494  0.00  0.00    +0.000 A 
ATOM     14  C   UNL     1      39.771  11.245  11.452  0.00  0.00    +0.000 A 
ATOM     15  N   UNL     1      40.381  11.516  12.605  0.00  0.00    +0.000 NA
ATOM     16  N   UNL     1      41.654  11.141  12.385  0.00  0.00    +0.000 N 
ATOM     17  H   UNL     1      42.333  11.243  13.133  0.00  0.00    +0.000 HD
ENDBRANCH   9  12
ENDBRANCH   7  10
ENDBRANCH   1   7
BRANCH   4  18
ATOM     18  C   UNL     1      46.473   3.957  14.277  0.00  0.00    +0.000 C 
BRANCH  18  19
ATOM     19  N   UNL     1      47.527   4.316  15.192  0.00  0.00    +0.000 N 
ATOM     20  C   UNL     1      47.488   3.924  16.507  0.00  0.00    +0.000 C 
ATOM     21  O   UNL     1      46.585   3.217  16.946  0.00  0.00    +0.000 OA
ATOM     22  H   UNL     1      48.141   5.076  14.916  0.00  0.00    +0.000 HD
BRANCH  20  23
ATOM     23  C   UNL     1      48.614   4.339  17.354  0.00  0.00    +0.000 A 
ATOM     24  C   UNL     1      48.536   5.529  18.066  0.00  0.00    +0.000 A 
ATOM     25  S   UNL     1      49.902   5.837  19.040  0.00  0.00    +0.000 S 
ATOM     26  C   UNL     1      50.670   4.416  18.504  0.00  0.00    +0.000 A 
ATOM     27  N   UNL     1      51.915   4.086  18.945  0.00  0.00    +0.000 NA
ATOM     28  C   UNL     1      52.391   3.001  18.432  0.00  0.00    +0.000 A 
ATOM     29  N   UNL     1      51.733   2.213  17.523  0.00  0.00    +0.000 N 
ATOM     30  C   UNL     1      50.464   2.491  17.072  0.00  0.00    +0.000 A 
ATOM     31  O   UNL     1      49.888   1.744  16.289  0.00  0.00    +0.000 OA
ATOM     32  C   UNL     1      49.888   3.709  17.610  0.00  0.00    +0.000 A 
ATOM     33  H   UNL     1      52.159   1.371  17.164  0.00  0.00    +0.000 HD
ENDBRANCH  20  23
ENDBRANCH  18  19
ENDBRANCH   4  18
TORSDOF 6
ENDMDL
MODEL 7
REMARK VINA RESULT:    -6.147      4.131      9.490
REMARK INTER + INTRA:          -9.410
REMARK INTER:                  -8.522
REMARK INTRA:                  -0.888
REMARK UNBOUND:                -1.107
REMARK  Name = 
REMARK  6 active torsions:
REMARK  status: ('A' for Active; 'I' for Inactive)
REMARK    1  A    between atoms: C_2  and  C_25
REMARK    2  A    between atoms: N_3  and  C_4
REMARK    3  A    between atoms: C_4  and  C_5
REMARK    4  A    between atoms: C_8  and  C_9
REMARK    5  A    between atoms: C_9  and  N_10
REMARK    6  A    between atoms: C_11  and  C_13
REMARK                            x       y       z     vdW  Elec       q    Type
REMARK                         _______ _______ _______ _____ _____    ______ ____
ROOT
ATOM      1  C   UNL     1      51.314   3.751  18.133  0.00  0.00    +0.000 A 
ATOM      2  C   UNL     1      50.387   4.746  18.470  0.00  0.00    +0.000 A 
ATOM      3  C   UNL     1      49.043   4.626  18.098  0.00  0.00    +0.000 A 
ATOM      4  C   UNL     1      48.593   3.499  17.398  0.00  0.00    +0.000 A 
ATOM      5  C   UNL     1      49.520   2.501  17.068  0.00  0.00    +0.000 A 
ATOM      6  C   UNL     1      50.863   2.619  17.442  0.00  0.00    +0.000 A 
ENDROOT
BRANCH   1   7
ATOM      7  C   UNL     1      52.769   3.903  18.493  0.00  0.00    +0.000 C 
BRANCH   7  10
ATOM      8  O   UNL     1      53.823   5.539  16.521  0.00  0.00    +0.000 OA
ATOM      9  C   UNL     1      53.651   6.017  17.636  0.00  0.00    +0.000 C 
ATOM     10  N   UNL     1      53.148   5.281  18.686  0.00  0.00    +0.000 N 
ATOM     11  H   UNL     1      52.885   5.741  19.545  0.00  0.00    +0.000 HD
BRANCH   9  12
ATOM     12  C   UNL     1      53.946   7.393  17.932  0.00  0.00    +0.000 A 
ATOM     13  C   UNL     1      53.673   8.215  19.010  0.00  0.00    +0.000 A 
ATOM     14  C   UNL     1      54.254   9.455  18.684  0.00  0.00    +0.000 A 
ATOM     15  N   UNL     1      54.850   9.438  17.493  0.00  0.00    +0.000 NA
ATOM     16  N   UNL     1      54.660   8.178  17.063  0.00  0.00    +0.000 N 
ATOM     17  H   UNL     1      55.037   7.904  16.160  0.00  0.00    +0.000 HD
ENDBRANCH   9  12
ENDBRANCH   7  10
ENDBRANCH   1   7
BRANCH   4  18
ATOM     18  C   UNL     1      47.152   3.371  16.973  0.00  0.00    +0.000 C 
BRANCH  18  19
ATOM     19  N   UNL     1      46.792   4.382  16.010  0.00  0.00    +0.000 N 
ATOM     20  C   UNL     1      46.911   4.151  14.662  0.00  0.00    +0.000 C 
ATOM     21  O   UNL     1      47.281   3.066  14.220  0.00  0.00    +0.000 OA
ATOM     22  H   UNL     1      46.713   5.336  16.348  0.00  0.00    +0.000 HD
BRANCH  20  23
ATOM     23  C   UNL     1      46.513   5.245  13.766  0.00  0.00    +0.000 A 
ATOM     24  C   UNL     1      47.380   6.308  13.552  0.00  0.00    +0.000 A 
ATOM     25  S   UNL     1      46.789   7.464  12.446  0.00  0.00    +0.000 S 
ATOM     26  C   UNL     1      45.329   6.613  12.255  0.00  0.00    +0.000 A 
ATOM     27  N   UNL     1      44.345   7.086  11.441  0.00  0.00    +0.000 NA
ATOM     28  C   UNL     1      43.279   6.358  11.416  0.00  0.00    +0.000 A 
ATOM     29  N   UNL     1      43.109   5.197  12.126  0.00  0.00    +0.000 N 
ATOM     30  C   UNL     1      44.085   4.667  12.936  0.00  0.00    +0.000 A 
ATOM     31  O   UNL     1      43.915   3.606  13.527  0.00  0.00    +0.000 OA
ATOM     32  C   UNL     1      45.300   5.454  13.010  0.00  0.00    +0.000 A 
ATOM     33  H   UNL     1      42.251   4.670  12.057  0.00  0.00    +0.000 HD
ENDBRANCH  20  23
ENDBRANCH  18  19
ENDBRANCH   4  18
TORSDOF 6
ENDMDL
MODEL 8
REMARK VINA RESULT:    -6.041      4.282      5.901
REMARK INTER + INTRA:          -9.267
REMARK INTER:                  -8.395
REMARK INTRA:                  -0.872
REMARK UNBOUND:                -1.107
REMARK  Name = 
REMARK  6 active torsions:
REMARK  status: ('A' for Active; 'I' for Inactive)
REMARK    1  A    between atoms: C_2  and  C_25
REMARK    2  A    between atoms: N_3  and  C_4
REMARK    3  A    between atoms: C_4  and  C_5
REMARK    4  A    between atoms: C_8  and  C_9
REMARK    5  A    between atoms: C_9  and  N_10
REMARK    6  A    between atoms: C_11  and  C_13
REMARK                            x       y       z     vdW  Elec       q    Type
REMARK                         _______ _______ _______ _____ _____    ______ ____
ROOT
ATOM      1  C   UNL     1      45.509   7.321  11.936  0.00  0.00    +0.000 A 
ATOM      2  C   UNL     1      44.764   6.136  12.006  0.00  0.00    +0.000 A 
ATOM      3  C   UNL     1      45.127   5.115  12.892  0.00  0.00    +0.000 A 
ATOM      4  C   UNL     1      46.230   5.265  13.743  0.00  0.00    +0.000 A 
ATOM      5  C   UNL     1      46.970   6.453  13.677  0.00  0.00    +0.000 A 
ATOM      6  C   UNL     1      46.607   7.475  12.793  0.00  0.00    +0.000 A 
ENDROOT
BRANCH   1   7
ATOM      7  C   UNL     1      45.147   8.399  10.950  0.00  0.00    +0.000 C 
BRANCH   7  10
ATOM      8  O   UNL     1      44.101  10.823  10.105  0.00  0.00    +0.000 OA
ATOM      9  C   UNL     1      43.327   9.986  10.557  0.00  0.00    +0.000 C 
ATOM     10  N   UNL     1      43.751   8.759  11.016  0.00  0.00    +0.000 N 
ATOM     11  H   UNL     1      43.076   8.044  11.244  0.00  0.00    +0.000 HD
BRANCH   9  12
ATOM     12  C   UNL     1      41.909  10.214  10.624  0.00  0.00    +0.000 A 
ATOM     13  C   UNL     1      41.062  11.132  10.032  0.00  0.00    +0.000 A 
ATOM     14  C   UNL     1      39.777  10.806  10.503  0.00  0.00    +0.000 A 
ATOM     15  N   UNL     1      39.791   9.766  11.335  0.00  0.00    +0.000 NA
ATOM     16  N   UNL     1      41.089   9.419  11.384  0.00  0.00    +0.000 N 
ATOM     17  H   UNL     1      41.365   8.628  11.959  0.00  0.00    +0.000 HD
ENDBRANCH   9  12
ENDBRANCH   7  10
ENDBRANCH   1   7
BRANCH   4  18
ATOM     18  C   UNL     1      46.643   4.162  14.684  0.00  0.00    +0.000 C 
BRANCH  18  19
ATOM     19  N   UNL     1      47.469   4.660  15.755  0.00  0.00    +0.000 N 
ATOM     20  C   UNL     1      48.317   3.827  16.442  0.00  0.00    +0.000 C 
ATOM     21  O   UNL     1      48.442   2.642  16.146  0.00  0.00    +0.000 OA
ATOM     22  H   UNL     1      47.214   5.556  16.160  0.00  0.00    +0.000 HD
BRANCH  20  23
ATOM     23  C   UNL     1      49.119   4.436  17.512  0.00  0.00    +0.000 A 
ATOM     24  C   UNL     1      50.498   4.269  17.517  0.00  0.00    +0.000 A 
ATOM     25  S   UNL     1      51.282   5.082  18.795  0.00  0.00    +0.000 S 
ATOM     26  C   UNL     1      49.802   5.642  19.419  0.00  0.00    +0.000 A 
ATOM     27  N   UNL     1      49.761   6.396  20.551  0.00  0.00    +0.000 NA
ATOM     28  C   UNL     1      48.570   6.723  20.930  0.00  0.00    +0.000 A 
ATOM     29  N   UNL     1      47.418   6.369  20.277  0.00  0.00    +0.000 N 
ATOM     30  C   UNL     1      47.413   5.633  19.116  0.00  0.00    +0.000 A 
ATOM     31  O   UNL     1      46.366   5.367  18.535  0.00  0.00    +0.000 OA
ATOM     32  C   UNL     1      48.726   5.229  18.653  0.00  0.00    +0.000 A 
ATOM     33  H   UNL     1      46.517   6.664  20.623  0.00  0.00    +0.000 HD
ENDBRANCH  20  23
ENDBRANCH  18  19
ENDBRANCH   4  18
TORSDOF 6
ENDMDL
MODEL 9
REMARK VINA RESULT:    -5.677      2.392      3.262
REMARK INTER + INTRA:          -8.775
REMARK INTER:                  -7.854
REMARK INTRA:                  -0.921
REMARK UNBOUND:                -1.107
REMARK  Name = 
REMARK  6 active torsions:
REMARK  status: ('A' for Active; 'I' for Inactive)
REMARK    1  A    between atoms: C_2  and  C_25
REMARK    2  A    between atoms: N_3  and  C_4
REMARK    3  A    between atoms: C_4  and  C_5
REMARK    4  A    between atoms: C_8  and  C_9
REMARK    5  A    between atoms: C_9  and  N_10
REMARK    6  A    between atoms: C_11  and  C_13
REMARK                            x       y       z     vdW  Elec       q    Type
REMARK                         _______ _______ _______ _____ _____    ______ ____
ROOT
ATOM      1  C   UNL     1      46.500   7.557  12.372  0.00  0.00    +0.000 A 
ATOM      2  C   UNL     1      47.065   6.493  13.087  0.00  0.00    +0.000 A 
ATOM      3  C   UNL     1      48.314   6.629  13.704  0.00  0.00    +0.000 A 
ATOM      4  C   UNL     1      49.017   7.839  13.636  0.00  0.00    +0.000 A 
ATOM      5  C   UNL     1      48.448   8.905  12.926  0.00  0.00    +0.000 A 
ATOM      6  C   UNL     1      47.199   8.771  12.311  0.00  0.00    +0.000 A 
ENDROOT
BRANCH   1   7
ATOM      7  C   UNL     1      45.178   7.396  11.669  0.00  0.00    +0.000 C 
BRANCH   7  10
ATOM      8  O   UNL     1      43.884   4.988  12.125  0.00  0.00    +0.000 OA
ATOM      9  C   UNL     1      44.487   5.128  11.067  0.00  0.00    +0.000 C 
ATOM     10  N   UNL     1      45.173   6.280  10.754  0.00  0.00    +0.000 N 
ATOM     11  H   UNL     1      45.535   6.416   9.822  0.00  0.00    +0.000 HD
BRANCH   9  12
ATOM     12  C   UNL     1      44.510   4.103  10.059  0.00  0.00    +0.000 A 
ATOM     13  C   UNL     1      44.506   2.721  10.104  0.00  0.00    +0.000 A 
ATOM     14  C   UNL     1      44.521   2.308   8.759  0.00  0.00    +0.000 A 
ATOM     15  N   UNL     1      44.536   3.337   7.913  0.00  0.00    +0.000 NA
ATOM     16  N   UNL     1      44.518   4.411   8.722  0.00  0.00    +0.000 N 
ATOM     17  H   UNL     1      44.517   5.339   8.308  0.00  0.00    +0.000 HD
ENDBRANCH   9  12
ENDBRANCH   7  10
ENDBRANCH   1   7
BRANCH   4  18
ATOM     18  C   UNL     1      50.373   7.988  14.277  0.00  0.00    +0.000 C 
BRANCH  18  19
ATOM     19  N   UNL     1      50.366   7.535  15.646  0.00  0.00    +0.000 N 
ATOM     20  C   UNL     1      49.886   8.333  16.654  0.00  0.00    +0.000 C 
ATOM     21  O   UNL     1      49.403   9.440  16.430  0.00  0.00    +0.000 OA
ATOM     22  H   UNL     1      50.961   6.745  15.875  0.00  0.00    +0.000 HD
BRANCH  20  23
ATOM     23  C   UNL     1      49.919   7.775  18.012  0.00  0.00    +0.000 A 
ATOM     24  C   UNL     1      50.537   8.486  19.033  0.00  0.00    +0.000 A 
ATOM     25  S   UNL     1      50.441   7.724  20.555  0.00  0.00    +0.000 S 
ATOM     26  C   UNL     1      49.616   6.390  19.896  0.00  0.00    +0.000 A 
ATOM     27  N   UNL     1      49.250   5.338  20.678  0.00  0.00    +0.000 NA
ATOM     28  C   UNL     1      48.662   4.381  20.042  0.00  0.00    +0.000 A 
ATOM     29  N   UNL     1      48.401   4.383  18.696  0.00  0.00    +0.000 N 
ATOM     30  C   UNL     1      48.726   5.435  17.873  0.00  0.00    +0.000 A 
ATOM     31  O   UNL     1      48.443   5.422  16.680  0.00  0.00    +0.000 OA
ATOM     32  C   UNL     1      49.401   6.533  18.537  0.00  0.00    +0.000 A 
ATOM     33  H   UNL     1      47.931   3.604  18.259  0.00  0.00    +0.000 HD
ENDBRANCH  20  23
ENDBRANCH  18  19
ENDBRANCH   4  18
TORSDOF 6
ENDMDL
