MODEL 1
REMARK VINA RESULT:    -7.994      0.000      0.000
REMARK INTER + INTRA:         -12.594
REMARK INTER:                 -11.266
REMARK INTRA:                  -1.328
REMARK UNBOUND:                -1.328
REMARK  Name = 
REMARK  7 active torsions:
REMARK  status: ('A' for Active; 'I' for Inactive)
REMARK    1  A    between atoms: C_2  and  C_19
REMARK    2  A    between atoms: N_3  and  C_4
REMARK    3  A    between atoms: C_4  and  C_5
REMARK    4  A    between atoms: C_8  and  C_9
REMARK    5  A    between atoms: C_9  and  N_10
REMARK    6  A    between atoms: N_10  and  C_11
REMARK    7  A    between atoms: C_11  and  C_12
REMARK                            x       y       z     vdW  Elec       q    Type
REMARK                         _______ _______ _______ _____ _____    ______ ____
ROOT
ATOM      1  C   UNL     1      46.840   8.070  13.227  0.00  0.00    +0.000 C 
ENDROOT
BRANCH   1   2
ATOM      2  C   UNL     1      46.078   7.078  12.384  0.00  0.00    +0.000 A 
ATOM      3  C   UNL     1      46.575   6.709  11.139  0.00  0.00    +0.000 A 
ATOM      4  C   UNL     1      45.867   5.784  10.381  0.00  0.00    +0.000 A 
ATOM      5  C   UNL     1      44.685   5.228  10.877  0.00  0.00    +0.000 A 
ATOM      6  C   UNL     1      44.238   5.698  12.108  0.00  0.00    +0.000 A 
ATOM      7  N   UNL     1      44.903   6.602  12.869  0.00  0.00    +0.000 NA
BRANCH   5   8
ATOM      8  C   UNL     1      43.887   4.209  10.104  0.00  0.00    +0.000 C 
BRANCH   8   9
ATOM      9  N   UNL     1      44.198   4.253   8.673  0.00  0.00    +0.000 NA
ATOM     10  H   UNL     1      44.947   4.927   8.518  0.00  0.00    +0.000 HD
BRANCH   9  11
ATOM     11  C   UNL     1      44.588   2.945   8.148  0.00  0.00    +0.000 C 
BRANCH  11  12
ATOM     12  C   UNL     1      46.119   2.778   8.199  0.00  0.00    +0.000 C 
ATOM     13  C   UNL     1      46.859   3.577   7.129  0.00  0.00    +0.000 C 
ATOM     14  C   UNL     1      46.897   2.624   5.953  0.00  0.00    +0.000 C 
ATOM     15  N   UNL     1      47.148   1.312   6.560  0.00  0.00    +0.000 NA
ATOM     16  C   UNL     1      46.524   1.333   7.893  0.00  0.00    +0.000 C 
ATOM     17  H   UNL     1      48.156   1.203   6.679  0.00  0.00    +0.000 HD
ENDBRANCH  11  12
ENDBRANCH   9  11
ENDBRANCH   8   9
ENDBRANCH   5   8
ENDBRANCH   1   2
BRANCH   1  20
ATOM     18  O   UNL     1      49.389   6.859  13.494  0.00  0.00    +0.000 OA
ATOM     19  C   UNL     1      48.616   6.855  14.449  0.00  0.00    +0.000 C 
ATOM     20  N   UNL     1      47.391   7.463  14.414  0.00  0.00    +0.000 N 
ATOM     21  H   UNL     1      46.781   7.439  15.220  0.00  0.00    +0.000 HD
BRANCH  19  22
ATOM     22  C   UNL     1      48.971   6.240  15.730  0.00  0.00    +0.000 A 
ATOM     23  C   UNL     1      50.025   6.735  16.487  0.00  0.00    +0.000 A 
ATOM     24  S   UNL     1      50.222   5.923  17.977  0.00  0.00    +0.000 S 
ATOM     25  C   UNL     1      48.939   4.858  17.635  0.00  0.00    +0.000 A 
ATOM     26  N   UNL     1      48.566   3.895  18.521  0.00  0.00    +0.000 NA
ATOM     27  C   UNL     1      47.596   3.145  18.117  0.00  0.00    +0.000 A 
ATOM     28  N   UNL     1      46.972   3.259  16.901  0.00  0.00    +0.000 N 
ATOM     29  C   UNL     1      47.317   4.212  15.974  0.00  0.00    +0.000 A 
ATOM     30  O   UNL     1      46.735   4.282  14.897  0.00  0.00    +0.000 OA
ATOM     31  C   UNL     1      48.379   5.105  16.396  0.00  0.00    +0.000 A 
ATOM     32  H   UNL     1      46.223   2.636  16.639  0.00  0.00    +0.000 HD
ENDBRANCH  19  22
ENDBRANCH   1  20
TORSDOF 7
ENDMDL
MODEL 2
REMARK VINA RESULT:    -7.139      2.043      2.433
REMARK INTER + INTRA:         -11.388
REMARK INTER:                 -10.431
REMARK INTRA:                  -0.956
REMARK UNBOUND:                -1.328
REMARK  Name = 
REMARK  7 active torsions:
REMARK  status: ('A' for Active; 'I' for Inactive)
REMARK    1  A    between atoms: C_2  and  C_19
REMARK    2  A    between atoms: N_3  and  C_4
REMARK    3  A    between atoms: C_4  and  C_5
REMARK    4  A    between atoms: C_8  and  C_9
REMARK    5  A    between atoms: C_9  and  N_10
REMARK    6  A    between atoms: N_10  and  C_11
REMARK    7  A    between atoms: C_11  and  C_12
REMARK                            x       y       z     vdW  Elec       q    Type
REMARK                         _______ _______ _______ _____ _____    ______ ____
ROOT
ATOM      1  C   UNL     1      47.602   6.518  13.461  0.00  0.00    +0.000 C 
ENDROOT
BRANCH   1   2
ATOM      2  C   UNL     1      46.619   5.746  12.615  0.00  0.00    +0.000 A 
ATOM      3  C   UNL     1      46.288   6.213  11.348  0.00  0.00    +0.000 A 
ATOM      4  C   UNL     1      45.391   5.482  10.577  0.00  0.00    +0.000 A 
ATOM      5  C   UNL     1      44.851   4.292  11.068  0.00  0.00    +0.000 A 
ATOM      6  C   UNL     1      45.200   3.933  12.367  0.00  0.00    +0.000 A 
ATOM      7  N   UNL     1      46.067   4.625  13.146  0.00  0.00    +0.000 NA
BRANCH   5   8
ATOM      8  C   UNL     1      43.889   3.452  10.268  0.00  0.00    +0.000 C 
BRANCH   8   9
ATOM      9  N   UNL     1      44.466   2.149   9.926  0.00  0.00    +0.000 NA
ATOM     10  H   UNL     1      43.802   1.418  10.180  0.00  0.00    +0.000 HD
BRANCH   9  11
ATOM     11  C   UNL     1      44.802   2.046   8.506  0.00  0.00    +0.000 C 
BRANCH  11  12
ATOM     12  C   UNL     1      46.319   2.216   8.298  0.00  0.00    +0.000 C 
ATOM     13  C   UNL     1      46.685   3.346   7.339  0.00  0.00    +0.000 C 
ATOM     14  C   UNL     1      46.679   2.665   5.987  0.00  0.00    +0.000 C 
ATOM     15  N   UNL     1      47.278   1.350   6.242  0.00  0.00    +0.000 NA
ATOM     16  C   UNL     1      46.922   0.980   7.622  0.00  0.00    +0.000 C 
ATOM     17  H   UNL     1      48.293   1.446   6.188  0.00  0.00    +0.000 HD
ENDBRANCH  11  12
ENDBRANCH   9  11
ENDBRANCH   8   9
ENDBRANCH   5   8
ENDBRANCH   1   2
BRANCH   1  20
ATOM     18  O   UNL     1      49.761   6.715  15.286  0.00  0.00    +0.000 OA
ATOM     19  C   UNL     1      48.732   6.140  15.630  0.00  0.00    +0.000 C 
ATOM     20  N   UNL     1      47.629   6.049  14.825  0.00  0.00    +0.000 N 
ATOM     21  H   UNL     1      46.799   5.567  15.142  0.00  0.00    +0.000 HD
BRANCH  19  22
ATOM     22  C   UNL     1      48.583   5.548  16.961  0.00  0.00    +0.000 A 
ATOM     23  C   UNL     1      48.660   4.173  17.138  0.00  0.00    +0.000 A 
ATOM     24  S   UNL     1      48.535   3.697  18.774  0.00  0.00    +0.000 S 
ATOM     25  C   UNL     1      48.327   5.307  19.289  0.00  0.00    +0.000 A 
ATOM     26  N   UNL     1      48.169   5.613  20.605  0.00  0.00    +0.000 NA
ATOM     27  C   UNL     1      47.996   6.870  20.844  0.00  0.00    +0.000 A 
ATOM     28  N   UNL     1      47.951   7.850  19.886  0.00  0.00    +0.000 N 
ATOM     29  C   UNL     1      48.100   7.589  18.546  0.00  0.00    +0.000 A 
ATOM     30  O   UNL     1      48.053   8.493  17.719  0.00  0.00    +0.000 OA
ATOM     31  C   UNL     1      48.335   6.193  18.227  0.00  0.00    +0.000 A 
ATOM     32  H   UNL     1      47.803   8.816  20.135  0.00  0.00    +0.000 HD
ENDBRANCH  19  22
ENDBRANCH   1  20
TORSDOF 7
ENDMDL
MODEL 3
REMARK VINA RESULT:    -6.956      2.007      3.462
REMARK INTER + INTRA:         -11.131
REMARK INTER:                 -10.062
REMARK INTRA:                  -1.069
REMARK UNBOUND:                -1.328
REMARK  Name = 
REMARK  7 active torsions:
REMARK  status: ('A' for Active; 'I' for Inactive)
REMARK    1  A    between atoms: C_2  and  C_19
REMARK    2  A    between atoms: N_3  and  C_4
REMARK    3  A    between atoms: C_4  and  C_5
REMARK    4  A    between atoms: C_8  and  C_9
REMARK    5  A    between atoms: C_9  and  N_10
REMARK    6  A    between atoms: N_10  and  C_11
REMARK    7  A    between atoms: C_11  and  C_12
REMARK                            x       y       z     vdW  Elec       q    Type
REMARK                         _______ _______ _______ _____ _____    ______ ____
ROOT
ATOM      1  C   UNL     1      46.856   4.202  14.749  0.00  0.00    +0.000 C 
ENDROOT
BRANCH   1   2
ATOM      2  C   UNL     1      46.135   4.329  13.429  0.00  0.00    +0.000 A 
ATOM      3  C   UNL     1      46.078   5.564  12.793  0.00  0.00    +0.000 A 
ATOM      4  C   UNL     1      45.420   5.661  11.572  0.00  0.00    +0.000 A 
ATOM      5  C   UNL     1      44.846   4.527  10.993  0.00  0.00    +0.000 A 
ATOM      6  C   UNL     1      44.907   3.347  11.728  0.00  0.00    +0.000 A 
ATOM      7  N   UNL     1      45.535   3.221  12.923  0.00  0.00    +0.000 NA
BRANCH   5   8
ATOM      8  C   UNL     1      44.137   4.572   9.664  0.00  0.00    +0.000 C 
BRANCH   8   9
ATOM      9  N   UNL     1      44.138   3.261   9.008  0.00  0.00    +0.000 NA
ATOM     10  H   UNL     1      43.175   2.989   8.815  0.00  0.00    +0.000 HD
BRANCH   9  11
ATOM     11  C   UNL     1      44.915   3.260   7.769  0.00  0.00    +0.000 C 
BRANCH  11  12
ATOM     12  C   UNL     1      46.352   2.772   8.035  0.00  0.00    +0.000 C 
ATOM     13  C   UNL     1      47.357   3.217   6.975  0.00  0.00    +0.000 C 
ATOM     14  C   UNL     1      47.282   2.110   5.945  0.00  0.00    +0.000 C 
ATOM     15  N   UNL     1      47.159   0.884   6.740  0.00  0.00    +0.000 NA
ATOM     16  C   UNL     1      46.434   1.244   7.970  0.00  0.00    +0.000 C 
ATOM     17  H   UNL     1      48.098   0.576   6.999  0.00  0.00    +0.000 HD
ENDBRANCH  11  12
ENDBRANCH   9  11
ENDBRANCH   8   9
ENDBRANCH   5   8
ENDBRANCH   1   2
BRANCH   1  20
ATOM     18  O   UNL     1      48.929   4.502  16.657  0.00  0.00    +0.000 OA
ATOM     19  C   UNL     1      48.476   5.496  16.098  0.00  0.00    +0.000 C 
ATOM     20  N   UNL     1      47.512   5.428  15.129  0.00  0.00    +0.000 N 
ATOM     21  H   UNL     1      47.162   6.270  14.690  0.00  0.00    +0.000 HD
BRANCH  19  22
ATOM     22  C   UNL     1      48.976   6.843  16.387  0.00  0.00    +0.000 A 
ATOM     23  C   UNL     1      48.902   7.366  17.671  0.00  0.00    +0.000 A 
ATOM     24  S   UNL     1      49.606   8.917  17.806  0.00  0.00    +0.000 S 
ATOM     25  C   UNL     1      49.987   8.955  16.147  0.00  0.00    +0.000 A 
ATOM     26  N   UNL     1      50.624  10.022  15.593  0.00  0.00    +0.000 NA
ATOM     27  C   UNL     1      50.824   9.924  14.322  0.00  0.00    +0.000 A 
ATOM     28  N   UNL     1      50.433   8.861  13.548  0.00  0.00    +0.000 N 
ATOM     29  C   UNL     1      49.784   7.765  14.061  0.00  0.00    +0.000 A 
ATOM     30  O   UNL     1      49.450   6.834  13.336  0.00  0.00    +0.000 OA
ATOM     31  C   UNL     1      49.568   7.811  15.495  0.00  0.00    +0.000 A 
ATOM     32  H   UNL     1      50.611   8.846  12.555  0.00  0.00    +0.000 HD
ENDBRANCH  19  22
ENDBRANCH   1  20
TORSDOF 7
ENDMDL
MODEL 4
REMARK VINA RESULT:    -6.871      2.677      3.123
REMARK INTER + INTRA:         -11.011
REMARK INTER:                 -10.155
REMARK INTRA:                  -0.855
REMARK UNBOUND:                -1.328
REMARK  Name = 
REMARK  7 active torsions:
REMARK  status: ('A' for Active; 'I' for Inactive)
REMARK    1  A    between atoms: C_2  and  C_19
REMARK    2  A    between atoms: N_3  and  C_4
REMARK    3  A    between atoms: C_4  and  C_5
REMARK    4  A    between atoms: C_8  and  C_9
REMARK    5  A    between atoms: C_9  and  N_10
REMARK    6  A    between atoms: N_10  and  C_11
REMARK    7  A    between atoms: C_11  and  C_12
REMARK                            x       y       z     vdW  Elec       q    Type
REMARK                         _______ _______ _______ _____ _____    ______ ____
ROOT
ATOM      1  C   UNL     1      47.356   4.146  14.986  0.00  0.00    +0.000 C 
ENDROOT
BRANCH   1   2
ATOM      2  C   UNL     1      46.574   4.272  13.703  0.00  0.00    +0.000 A 
ATOM      3  C   UNL     1      46.468   5.511  13.081  0.00  0.00    +0.000 A 
ATOM      4  C   UNL     1      45.754   5.606  11.892  0.00  0.00    +0.000 A 
ATOM      5  C   UNL     1      45.171   4.468  11.330  0.00  0.00    +0.000 A 
ATOM      6  C   UNL     1      45.285   3.284  12.051  0.00  0.00    +0.000 A 
ATOM      7  N   UNL     1      45.969   3.158  13.216  0.00  0.00    +0.000 NA
BRANCH   5   8
ATOM      8  C   UNL     1      44.401   4.511  10.035  0.00  0.00    +0.000 C 
BRANCH   8   9
ATOM      9  N   UNL     1      44.036   3.167   9.579  0.00  0.00    +0.000 NA
ATOM     10  H   UNL     1      43.020   3.078   9.596  0.00  0.00    +0.000 HD
BRANCH   9  11
ATOM     11  C   UNL     1      44.541   2.879   8.238  0.00  0.00    +0.000 C 
BRANCH  11  12
ATOM     12  C   UNL     1      46.078   2.779   8.250  0.00  0.00    +0.000 C 
ATOM     13  C   UNL     1      46.756   3.618   7.169  0.00  0.00    +0.000 C 
ATOM     14  C   UNL     1      46.807   2.677   5.985  0.00  0.00    +0.000 C 
ATOM     15  N   UNL     1      47.130   1.372   6.574  0.00  0.00    +0.000 NA
ATOM     16  C   UNL     1      46.539   1.355   7.922  0.00  0.00    +0.000 C 
ATOM     17  H   UNL     1      48.144   1.307   6.667  0.00  0.00    +0.000 HD
ENDBRANCH  11  12
ENDBRANCH   9  11
ENDBRANCH   8   9
ENDBRANCH   5   8
ENDBRANCH   1   2
BRANCH   1  20
ATOM     18  O   UNL     1      49.570   5.025  16.523  0.00  0.00    +0.000 OA
ATOM     19  C   UNL     1      48.578   5.742  16.430  0.00  0.00    +0.000 C 
ATOM     20  N   UNL     1      47.492   5.411  15.666  0.00  0.00    +0.000 N 
ATOM     21  H   UNL     1      46.691   6.027  15.614  0.00  0.00    +0.000 HD
BRANCH  19  22
ATOM     22  C   UNL     1      48.500   7.046  17.092  0.00  0.00    +0.000 A 
ATOM     23  C   UNL     1      48.796   8.212  16.399  0.00  0.00    +0.000 A 
ATOM     24  S   UNL     1      48.571   9.625  17.333  0.00  0.00    +0.000 S 
ATOM     25  C   UNL     1      48.118   8.720  18.702  0.00  0.00    +0.000 A 
ATOM     26  N   UNL     1      47.779   9.330  19.870  0.00  0.00    +0.000 NA
ATOM     27  C   UNL     1      47.483   8.518  20.830  0.00  0.00    +0.000 A 
ATOM     28  N   UNL     1      47.509   7.150  20.734  0.00  0.00    +0.000 N 
ATOM     29  C   UNL     1      47.849   6.491  19.578  0.00  0.00    +0.000 A 
ATOM     30  O   UNL     1      47.861   5.266  19.532  0.00  0.00    +0.000 OA
ATOM     31  C   UNL     1      48.155   7.360  18.458  0.00  0.00    +0.000 A 
ATOM     32  H   UNL     1      47.275   6.568  21.523  0.00  0.00    +0.000 HD
ENDBRANCH  19  22
ENDBRANCH   1  20
TORSDOF 7
ENDMDL
MODEL 5
REMARK VINA RESULT:    -6.690      3.858      8.999
REMARK INTER + INTRA:         -10.755
REMARK INTER:                  -9.678
REMARK INTRA:                  -1.078
REMARK UNBOUND:                -1.328
REMARK  Name = 
REMARK  7 active torsions:
REMARK  status: ('A' for Active; 'I' for Inactive)
REMARK    1  A    between atoms: C_2  and  C_19
REMARK    2  A    between atoms: N_3  and  C_4
REMARK    3  A    between atoms: C_4  and  C_5
REMARK    4  A    between atoms: C_8  and  C_9
REMARK    5  A    between atoms: C_9  and  N_10
REMARK    6  A    between atoms: N_10  and  C_11
REMARK    7  A    between atoms: C_11  and  C_12
REMARK                            x       y       z     vdW  Elec       q    Type
REMARK                         _______ _______ _______ _____ _____    ______ ____
ROOT
ATOM      1  C   UNL     1      47.345   3.597  16.647  0.00  0.00    +0.000 C 
ENDROOT
BRANCH   1   2
ATOM      2  C   UNL     1      48.781   3.963  16.934  0.00  0.00    +0.000 A 
ATOM      3  C   UNL     1      49.652   2.996  17.423  0.00  0.00    +0.000 A 
ATOM      4  C   UNL     1      50.974   3.346  17.670  0.00  0.00    +0.000 A 
ATOM      5  C   UNL     1      51.415   4.646  17.411  0.00  0.00    +0.000 A 
ATOM      6  C   UNL     1      50.460   5.558  16.973  0.00  0.00    +0.000 A 
ATOM      7  N   UNL     1      49.162   5.250  16.728  0.00  0.00    +0.000 NA
BRANCH   5   8
ATOM      8  C   UNL     1      52.841   5.075  17.643  0.00  0.00    +0.000 C 
BRANCH   8   9
ATOM      9  N   UNL     1      53.630   4.010  18.269  0.00  0.00    +0.000 NA
ATOM     10  H   UNL     1      53.043   3.183  18.374  0.00  0.00    +0.000 HD
BRANCH   9  11
ATOM     11  C   UNL     1      54.826   3.677  17.496  0.00  0.00    +0.000 C 
BRANCH  11  12
ATOM     12  C   UNL     1      55.325   2.265  17.857  0.00  0.00    +0.000 C 
ATOM     13  C   UNL     1      54.938   1.197  16.837  0.00  0.00    +0.000 C 
ATOM     14  C   UNL     1      53.583   0.731  17.323  0.00  0.00    +0.000 C 
ATOM     15  N   UNL     1      53.714   0.703  18.784  0.00  0.00    +0.000 NA
ATOM     16  C   UNL     1      54.668   1.763  19.147  0.00  0.00    +0.000 C 
ATOM     17  H   UNL     1      54.117  -0.197  19.051  0.00  0.00    +0.000 HD
ENDBRANCH  11  12
ENDBRANCH   9  11
ENDBRANCH   8   9
ENDBRANCH   5   8
ENDBRANCH   1   2
BRANCH   1  20
ATOM     18  O   UNL     1      47.144   3.150  13.855  0.00  0.00    +0.000 OA
ATOM     19  C   UNL     1      46.732   4.205  14.328  0.00  0.00    +0.000 C 
ATOM     20  N   UNL     1      46.747   4.473  15.670  0.00  0.00    +0.000 N 
ATOM     21  H   UNL     1      46.399   5.355  16.023  0.00  0.00    +0.000 HD
BRANCH  19  22
ATOM     22  C   UNL     1      46.136   5.248  13.490  0.00  0.00    +0.000 A 
ATOM     23  C   UNL     1      46.833   6.415  13.207  0.00  0.00    +0.000 A 
ATOM     24  S   UNL     1      45.990   7.465  12.155  0.00  0.00    +0.000 S 
ATOM     25  C   UNL     1      44.651   6.415  12.085  0.00  0.00    +0.000 A 
ATOM     26  N   UNL     1      43.557   6.715  11.333  0.00  0.00    +0.000 NA
ATOM     27  C   UNL     1      42.609   5.841  11.397  0.00  0.00    +0.000 A 
ATOM     28  N   UNL     1      42.647   4.699  12.154  0.00  0.00    +0.000 N 
ATOM     29  C   UNL     1      43.727   4.356  12.931  0.00  0.00    +0.000 A 
ATOM     30  O   UNL     1      43.723   3.325  13.595  0.00  0.00    +0.000 OA
ATOM     31  C   UNL     1      44.836   5.290  12.866  0.00  0.00    +0.000 A 
ATOM     32  H   UNL     1      41.870   4.057  12.168  0.00  0.00    +0.000 HD
ENDBRANCH  19  22
ENDBRANCH   1  20
TORSDOF 7
ENDMDL
MODEL 6
REMARK VINA RESULT:    -6.662      3.199      5.388
REMARK INTER + INTRA:         -10.717
REMARK INTER:                  -9.666
REMARK INTRA:                  -1.051
REMARK UNBOUND:                -1.328
REMARK  Name = 
REMARK  7 active torsions:
REMARK  status: ('A' for Active; 'I' for Inactive)
REMARK    1  A    between atoms: C_2  and  C_19
REMARK    2  A    between atoms: N_3  and  C_4
REMARK    3  A    between atoms: C_4  and  C_5
REMARK    4  A    between atoms: C_8  and  C_9
REMARK    5  A    between atoms: C_9  and  N_10
REMARK    6  A    between atoms: N_10  and  C_11
REMARK    7  A    between atoms: C_11  and  C_12
REMARK                            x       y       z     vdW  Elec       q    Type
REMARK                         _______ _______ _______ _____ _____    ______ ____
ROOT
ATOM      1  C   UNL     1      47.703   3.295  17.108  0.00  0.00    +0.000 C 
ENDROOT
BRANCH   1   2
ATOM      2  C   UNL     1      47.517   4.092  15.841  0.00  0.00    +0.000 A 
ATOM      3  C   UNL     1      47.933   5.418  15.795  0.00  0.00    +0.000 A 
ATOM      4  C   UNL     1      47.765   6.134  14.615  0.00  0.00    +0.000 A 
ATOM      5  C   UNL     1      47.203   5.517  13.495  0.00  0.00    +0.000 A 
ATOM      6  C   UNL     1      46.768   4.205  13.652  0.00  0.00    +0.000 A 
ATOM      7  N   UNL     1      46.912   3.481  14.790  0.00  0.00    +0.000 NA
BRANCH   5   8
ATOM      8  C   UNL     1      47.014   6.241  12.186  0.00  0.00    +0.000 C 
BRANCH   8   9
ATOM      9  N   UNL     1      45.837   5.751  11.464  0.00  0.00    +0.000 NA
ATOM     10  H   UNL     1      45.629   4.803  11.777  0.00  0.00    +0.000 HD
BRANCH   9  11
ATOM     11  C   UNL     1      44.669   6.608  11.658  0.00  0.00    +0.000 C 
BRANCH  11  12
ATOM     12  C   UNL     1      43.381   5.862  11.260  0.00  0.00    +0.000 C 
ATOM     13  C   UNL     1      42.667   5.200  12.437  0.00  0.00    +0.000 C 
ATOM     14  C   UNL     1      43.314   3.834  12.507  0.00  0.00    +0.000 C 
ATOM     15  N   UNL     1      43.483   3.442  11.104  0.00  0.00    +0.000 NA
ATOM     16  C   UNL     1      43.693   4.680  10.337  0.00  0.00    +0.000 C 
ATOM     17  H   UNL     1      42.613   3.011  10.785  0.00  0.00    +0.000 HD
ENDBRANCH  11  12
ENDBRANCH   9  11
ENDBRANCH   8   9
ENDBRANCH   5   8
ENDBRANCH   1   2
BRANCH   1  20
ATOM     18  O   UNL     1      49.585   1.561  15.889  0.00  0.00    +0.000 OA
ATOM     19  C   UNL     1      49.930   2.247  16.847  0.00  0.00    +0.000 C 
ATOM     20  N   UNL     1      49.095   3.145  17.455  0.00  0.00    +0.000 N 
ATOM     21  H   UNL     1      49.414   3.693  18.244  0.00  0.00    +0.000 HD
BRANCH  19  22
ATOM     22  C   UNL     1      51.291   2.199  17.385  0.00  0.00    +0.000 A 
ATOM     23  C   UNL     1      51.888   0.984  17.695  0.00  0.00    +0.000 A 
ATOM     24  S   UNL     1      53.500   1.146  18.237  0.00  0.00    +0.000 S 
ATOM     25  C   UNL     1      53.433   2.843  18.119  0.00  0.00    +0.000 A 
ATOM     26  N   UNL     1      54.508   3.616  18.433  0.00  0.00    +0.000 NA
ATOM     27  C   UNL     1      54.303   4.886  18.322  0.00  0.00    +0.000 A 
ATOM     28  N   UNL     1      53.117   5.457  17.938  0.00  0.00    +0.000 N 
ATOM     29  C   UNL     1      52.005   4.718  17.616  0.00  0.00    +0.000 A 
ATOM     30  O   UNL     1      50.961   5.267  17.278  0.00  0.00    +0.000 OA
ATOM     31  C   UNL     1      52.194   3.282  17.690  0.00  0.00    +0.000 A 
ATOM     32  H   UNL     1      53.016   6.459  17.878  0.00  0.00    +0.000 HD
ENDBRANCH  19  22
ENDBRANCH   1  20
TORSDOF 7
ENDMDL
MODEL 7
REMARK VINA RESULT:    -6.660      2.252      3.454
REMARK INTER + INTRA:         -10.714
REMARK INTER:                  -9.830
REMARK INTRA:                  -0.884
REMARK UNBOUND:                -1.328
REMARK  Name = 
REMARK  7 active torsions:
REMARK  status: ('A' for Active; 'I' for Inactive)
REMARK    1  A    between atoms: C_2  and  C_19
REMARK    2  A    between atoms: N_3  and  C_4
REMARK    3  A    between atoms: C_4  and  C_5
REMARK    4  A    between atoms: C_8  and  C_9
REMARK    5  A    between atoms: C_9  and  N_10
REMARK    6  A    between atoms: N_10  and  C_11
REMARK    7  A    between atoms: C_11  and  C_12
REMARK                            x       y       z     vdW  Elec       q    Type
REMARK                         _______ _______ _______ _____ _____    ______ ____
ROOT
ATOM      1  C   UNL     1      47.491   3.256  14.974  0.00  0.00    +0.000 C 
ENDROOT
BRANCH   1   2
ATOM      2  C   UNL     1      46.801   4.019  13.870  0.00  0.00    +0.000 A 
ATOM      3  C   UNL     1      47.147   5.345  13.631  0.00  0.00    +0.000 A 
ATOM      4  C   UNL     1      46.510   6.029  12.603  0.00  0.00    +0.000 A 
ATOM      5  C   UNL     1      45.553   5.383  11.817  0.00  0.00    +0.000 A 
ATOM      6  C   UNL     1      45.235   4.074  12.165  0.00  0.00    +0.000 A 
ATOM      7  N   UNL     1      45.833   3.380  13.165  0.00  0.00    +0.000 NA
BRANCH   5   8
ATOM      8  C   UNL     1      44.846   6.072  10.678  0.00  0.00    +0.000 C 
BRANCH   8   9
ATOM      9  N   UNL     1      44.499   5.130   9.610  0.00  0.00    +0.000 NA
ATOM     10  H   UNL     1      43.774   5.546   9.026  0.00  0.00    +0.000 HD
BRANCH   9  11
ATOM     11  C   UNL     1      45.654   4.770   8.790  0.00  0.00    +0.000 C 
BRANCH  11  12
ATOM     12  C   UNL     1      45.258   3.722   7.732  0.00  0.00    +0.000 C 
ATOM     13  C   UNL     1      44.711   2.426   8.326  0.00  0.00    +0.000 C 
ATOM     14  C   UNL     1      45.956   1.592   8.538  0.00  0.00    +0.000 C 
ATOM     15  N   UNL     1      46.781   1.868   7.357  0.00  0.00    +0.000 NA
ATOM     16  C   UNL     1      46.483   3.249   6.942  0.00  0.00    +0.000 C 
ATOM     17  H   UNL     1      46.489   1.238   6.608  0.00  0.00    +0.000 HD
ENDBRANCH  11  12
ENDBRANCH   9  11
ENDBRANCH   8   9
ENDBRANCH   5   8
ENDBRANCH   1   2
BRANCH   1  20
ATOM     18  O   UNL     1      46.611   3.044  17.660  0.00  0.00    +0.000 OA
ATOM     19  C   UNL     1      47.351   3.969  17.339  0.00  0.00    +0.000 C 
ATOM     20  N   UNL     1      47.859   4.109  16.077  0.00  0.00    +0.000 N 
ATOM     21  H   UNL     1      48.466   4.886  15.849  0.00  0.00    +0.000 HD
BRANCH  19  22
ATOM     22  C   UNL     1      47.798   4.974  18.306  0.00  0.00    +0.000 A 
ATOM     23  C   UNL     1      46.877   5.723  19.027  0.00  0.00    +0.000 A 
ATOM     24  S   UNL     1      47.605   6.784  20.151  0.00  0.00    +0.000 S 
ATOM     25  C   UNL     1      49.170   6.308  19.677  0.00  0.00    +0.000 A 
ATOM     26  N   UNL     1      50.277   6.838  20.264  0.00  0.00    +0.000 NA
ATOM     27  C   UNL     1      51.395   6.404  19.786  0.00  0.00    +0.000 A 
ATOM     28  N   UNL     1      51.509   5.498  18.763  0.00  0.00    +0.000 N 
ATOM     29  C   UNL     1      50.421   4.941  18.137  0.00  0.00    +0.000 A 
ATOM     30  O   UNL     1      50.564   4.133  17.224  0.00  0.00    +0.000 OA
ATOM     31  C   UNL     1      49.139   5.369  18.664  0.00  0.00    +0.000 A 
ATOM     32  H   UNL     1      52.413   5.203  18.426  0.00  0.00    +0.000 HD
ENDBRANCH  19  22
ENDBRANCH   1  20
TORSDOF 7
ENDMDL
MODEL 8
REMARK VINA RESULT:    -6.581      2.858      8.450
REMARK INTER + INTRA:         -10.602
REMARK INTER:                  -9.271
REMARK INTRA:                  -1.331
REMARK UNBOUND:                -1.328
REMARK  Name = 
REMARK  7 active torsions:
REMARK  status: ('A' for Active; 'I' for Inactive)
REMARK    1  A    between atoms: C_2  and  C_19
REMARK    2  A    between atoms: N_3  and  C_4
REMARK    3  A    between atoms: C_4  and  C_5
REMARK    4  A    between atoms: C_8  and  C_9
REMARK    5  A    between atoms: C_9  and  N_10
REMARK    6  A    between atoms: N_10  and  C_11
REMARK    7  A    between atoms: C_11  and  C_12
REMARK                            x       y       z     vdW  Elec       q    Type
REMARK                         _______ _______ _______ _____ _____    ______ ____
ROOT
ATOM      1  C   UNL     1      47.237   7.964  11.974  0.00  0.00    +0.000 C 
ENDROOT
BRANCH   1   2
ATOM      2  C   UNL     1      47.872   8.006  13.343  0.00  0.00    +0.000 A 
ATOM      3  C   UNL     1      48.378   6.838  13.902  0.00  0.00    +0.000 A 
ATOM      4  C   UNL     1      48.970   6.898  15.158  0.00  0.00    +0.000 A 
ATOM      5  C   UNL     1      49.067   8.118  15.831  0.00  0.00    +0.000 A 
ATOM      6  C   UNL     1      48.485   9.222  15.216  0.00  0.00    +0.000 A 
ATOM      7  N   UNL     1      47.895   9.197  13.995  0.00  0.00    +0.000 NA
BRANCH   5   8
ATOM      8  C   UNL     1      49.715   8.242  17.186  0.00  0.00    +0.000 C 
BRANCH   8   9
ATOM      9  N   UNL     1      48.935   7.558  18.222  0.00  0.00    +0.000 NA
ATOM     10  H   UNL     1      48.063   7.225  17.812  0.00  0.00    +0.000 HD
BRANCH   9  11
ATOM     11  C   UNL     1      49.664   6.441  18.819  0.00  0.00    +0.000 C 
BRANCH  11  12
ATOM     12  C   UNL     1      48.682   5.403  19.396  0.00  0.00    +0.000 C 
ATOM     13  C   UNL     1      48.670   4.080  18.635  0.00  0.00    +0.000 C 
ATOM     14  C   UNL     1      47.632   4.312  17.558  0.00  0.00    +0.000 C 
ATOM     15  N   UNL     1      46.577   5.076  18.232  0.00  0.00    +0.000 NA
ATOM     16  C   UNL     1      47.234   5.888  19.269  0.00  0.00    +0.000 C 
ATOM     17  H   UNL     1      45.949   4.415  18.692  0.00  0.00    +0.000 HD
ENDBRANCH  11  12
ENDBRANCH   9  11
ENDBRANCH   8   9
ENDBRANCH   5   8
ENDBRANCH   1   2
BRANCH   1  20
ATOM     18  O   UNL     1      44.459   7.548  11.602  0.00  0.00    +0.000 OA
ATOM     19  C   UNL     1      45.218   6.584  11.600  0.00  0.00    +0.000 C 
ATOM     20  N   UNL     1      46.575   6.708  11.721  0.00  0.00    +0.000 N 
ATOM     21  H   UNL     1      47.170   5.890  11.716  0.00  0.00    +0.000 HD
BRANCH  19  22
ATOM     22  C   UNL     1      44.732   5.215  11.410  0.00  0.00    +0.000 A 
ATOM     23  C   UNL     1      44.045   4.559  12.424  0.00  0.00    +0.000 A 
ATOM     24  S   UNL     1      43.503   3.004  11.972  0.00  0.00    +0.000 S 
ATOM     25  C   UNL     1      44.208   3.141  10.428  0.00  0.00    +0.000 A 
ATOM     26  N   UNL     1      44.106   2.139   9.514  0.00  0.00    +0.000 NA
ATOM     27  C   UNL     1      44.711   2.370   8.397  0.00  0.00    +0.000 A 
ATOM     28  N   UNL     1      45.423   3.508   8.114  0.00  0.00    +0.000 N 
ATOM     29  C   UNL     1      45.557   4.543   9.007  0.00  0.00    +0.000 A 
ATOM     30  O   UNL     1      46.203   5.545   8.716  0.00  0.00    +0.000 OA
ATOM     31  C   UNL     1      44.863   4.347  10.265  0.00  0.00    +0.000 A 
ATOM     32  H   UNL     1      45.882   3.627   7.224  0.00  0.00    +0.000 HD
ENDBRANCH  19  22
ENDBRANCH   1  20
TORSDOF 7
ENDMDL
MODEL 9
REMARK VINA RESULT:    -6.335      3.490      7.643
REMARK INTER + INTRA:         -10.255
REMARK INTER:                  -8.678
REMARK INTRA:                  -1.577
REMARK UNBOUND:                -1.328
REMARK  Name = 
REMARK  7 active torsions:
REMARK  status: ('A' for Active; 'I' for Inactive)
REMARK    1  A    between atoms: C_2  and  C_19
REMARK    2  A    between atoms: N_3  and  C_4
REMARK    3  A    between atoms: C_4  and  C_5
REMARK    4  A    between atoms: C_8  and  C_9
REMARK    5  A    between atoms: C_9  and  N_10
REMARK    6  A    between atoms: N_10  and  C_11
REMARK    7  A    between atoms: C_11  and  C_12
REMARK                            x       y       z     vdW  Elec       q    Type
REMARK                         _______ _______ _______ _____ _____    ______ ____
ROOT
ATOM      1  C   UNL     1      47.968   8.781  14.098  0.00  0.00    +0.000 C 
ENDROOT
BRANCH   1   2
ATOM      2  C   UNL     1      48.715   8.064  15.195  0.00  0.00    +0.000 A 
ATOM      3  C   UNL     1      49.830   7.295  14.879  0.00  0.00    +0.000 A 
ATOM      4  C   UNL     1      50.514   6.651  15.903  0.00  0.00    +0.000 A 
ATOM      5  C   UNL     1      50.092   6.794  17.227  0.00  0.00    +0.000 A 
ATOM      6  C   UNL     1      48.936   7.539  17.440  0.00  0.00    +0.000 A 
ATOM      7  N   UNL     1      48.243   8.175  16.463  0.00  0.00    +0.000 NA
BRANCH   5   8
ATOM      8  C   UNL     1      50.807   6.133  18.377  0.00  0.00    +0.000 C 
BRANCH   8   9
ATOM      9  N   UNL     1      50.158   4.878  18.766  0.00  0.00    +0.000 NA
ATOM     10  H   UNL     1      49.165   5.052  18.915  0.00  0.00    +0.000 HD
BRANCH   9  11
ATOM     11  C   UNL     1      50.335   3.828  17.764  0.00  0.00    +0.000 C 
BRANCH  11  12
ATOM     12  C   UNL     1      49.082   2.933  17.694  0.00  0.00    +0.000 C 
ATOM     13  C   UNL     1      48.283   3.097  16.403  0.00  0.00    +0.000 C 
ATOM     14  C   UNL     1      47.331   4.228  16.729  0.00  0.00    +0.000 C 
ATOM     15  N   UNL     1      46.930   3.974  18.117  0.00  0.00    +0.000 NA
ATOM     16  C   UNL     1      48.071   3.319  18.778  0.00  0.00    +0.000 C 
ATOM     17  H   UNL     1      46.146   3.319  18.108  0.00  0.00    +0.000 HD
ENDBRANCH  11  12
ENDBRANCH   9  11
ENDBRANCH   8   9
ENDBRANCH   5   8
ENDBRANCH   1   2
BRANCH   1  20
ATOM     18  O   UNL     1      47.854   7.026  11.876  0.00  0.00    +0.000 OA
ATOM     19  C   UNL     1      46.836   7.240  12.528  0.00  0.00    +0.000 C 
ATOM     20  N   UNL     1      46.822   8.033  13.643  0.00  0.00    +0.000 N 
ATOM     21  H   UNL     1      45.963   8.188  14.155  0.00  0.00    +0.000 HD
BRANCH  19  22
ATOM     22  C   UNL     1      45.555   6.615  12.192  0.00  0.00    +0.000 A 
ATOM     23  C   UNL     1      44.503   7.374  11.698  0.00  0.00    +0.000 A 
ATOM     24  S   UNL     1      43.128   6.441  11.301  0.00  0.00    +0.000 S 
ATOM     25  C   UNL     1      43.878   5.004  11.821  0.00  0.00    +0.000 A 
ATOM     26  N   UNL     1      43.239   3.806  11.746  0.00  0.00    +0.000 NA
ATOM     27  C   UNL     1      43.919   2.807  12.200  0.00  0.00    +0.000 A 
ATOM     28  N   UNL     1      45.177   2.898  12.738  0.00  0.00    +0.000 N 
ATOM     29  C   UNL     1      45.860   4.085  12.839  0.00  0.00    +0.000 A 
ATOM     30  O   UNL     1      46.985   4.125  13.327  0.00  0.00    +0.000 OA
ATOM     31  C   UNL     1      45.152   5.234  12.307  0.00  0.00    +0.000 A 
ATOM     32  H   UNL     1      45.656   2.080  13.085  0.00  0.00    +0.000 HD
ENDBRANCH  19  22
ENDBRANCH   1  20
TORSDOF 7
ENDMDL
