MODEL 1
REMARK VINA RESULT:    -7.532      0.000      0.000
REMARK INTER + INTRA:         -10.789
REMARK INTER:                  -9.953
REMARK INTRA:                  -0.836
REMARK UNBOUND:                -0.836
REMARK  Name = 
REMARK  6 active torsions:
REMARK  status: ('A' for Active; 'I' for Inactive)
REMARK    1  A    between atoms: C_2  and  O_3
REMARK    2  A    between atoms: C_2  and  C_4
REMARK    3  A    between atoms: C_4  and  C_5
REMARK    4  A    between atoms: C_5  and  C_6
REMARK    5  A    between atoms: C_9  and  C_10
REMARK    6  A    between atoms: C_10  and  N_11
REMARK                            x       y       z     vdW  Elec       q    Type
REMARK                         _______ _______ _______ _____ _____    ______ ____
ROOT
ATOM      1  C   UNL     1      45.386   2.531   8.681  0.00  0.00    +0.000 A 
ATOM      2  C   UNL     1      44.533   2.144   9.723  0.00  0.00    +0.000 A 
ATOM      3  C   UNL     1      43.878   3.105  10.501  0.00  0.00    +0.000 A 
ATOM      4  C   UNL     1      44.074   4.477  10.266  0.00  0.00    +0.000 A 
ATOM      5  C   UNL     1      44.936   4.858   9.234  0.00  0.00    +0.000 A 
ATOM      6  C   UNL     1      45.577   3.898   8.447  0.00  0.00    +0.000 A 
ENDROOT
BRANCH   1   7
ATOM      7  C   UNL     1      46.136   1.505   7.857  0.00  0.00    +0.000 C 
BRANCH   7   8
ATOM      8  C   UNL     1      47.505   1.983   7.369  0.00  0.00    +0.000 C 
BRANCH   8  10
ATOM      9  O   UNL     1      46.609   2.835   5.289  0.00  0.00    +0.000 OA
ATOM     10  C   UNL     1      47.486   2.261   5.894  0.00  0.00    +0.000 C 
BRANCH  10  11
ATOM     11  O   UNL     1      48.595   1.796   5.268  0.00  0.00    +0.000 OA
ATOM     12  H   UNL     1      49.259   1.402   5.872  0.00  0.00    +0.000 HD
ENDBRANCH  10  11
ENDBRANCH   8  10
ENDBRANCH   7   8
ENDBRANCH   1   7
BRANCH   4  13
ATOM     13  C   UNL     1      43.362   5.515  11.096  0.00  0.00    +0.000 C 
BRANCH  13  14
ATOM     14  N   UNL     1      44.265   6.439  11.781  0.00  0.00    +0.000 N 
ATOM     15  C   UNL     1      44.464   7.743  11.386  0.00  0.00    +0.000 A 
ATOM     16  C   UNL     1      45.536   8.246  12.083  0.00  0.00    +0.000 A 
ATOM     17  C   UNL     1      46.132   7.159  12.771  0.00  0.00    +0.000 A 
ATOM     18  C   UNL     1      47.360   6.992  13.438  0.00  0.00    +0.000 A 
ATOM     19  C   UNL     1      47.641   5.776  14.064  0.00  0.00    +0.000 A 
ATOM     20  C   UNL     1      46.680   4.771  14.108  0.00  0.00    +0.000 A 
ATOM     21  C   UNL     1      45.461   4.903  13.432  0.00  0.00    +0.000 A 
ATOM     22  C   UNL     1      45.241   6.083  12.701  0.00  0.00    +0.000 A 
ENDBRANCH  13  14
ENDBRANCH   4  13
TORSDOF 6
ENDMDL
MODEL 2
REMARK VINA RESULT:    -7.252      1.519      2.048
REMARK INTER + INTRA:         -10.419
REMARK INTER:                  -9.864
REMARK INTRA:                  -0.556
REMARK UNBOUND:                -0.836
REMARK  Name = 
REMARK  6 active torsions:
REMARK  status: ('A' for Active; 'I' for Inactive)
REMARK    1  A    between atoms: C_2  and  O_3
REMARK    2  A    between atoms: C_2  and  C_4
REMARK    3  A    between atoms: C_4  and  C_5
REMARK    4  A    between atoms: C_5  and  C_6
REMARK    5  A    between atoms: C_9  and  C_10
REMARK    6  A    between atoms: C_10  and  N_11
REMARK                            x       y       z     vdW  Elec       q    Type
REMARK                         _______ _______ _______ _____ _____    ______ ____
ROOT
ATOM      1  C   UNL     1      45.403   3.629   8.736  0.00  0.00    +0.000 A 
ATOM      2  C   UNL     1      44.970   2.884   9.840  0.00  0.00    +0.000 A 
ATOM      3  C   UNL     1      44.879   3.474  11.106  0.00  0.00    +0.000 A 
ATOM      4  C   UNL     1      45.235   4.819  11.301  0.00  0.00    +0.000 A 
ATOM      5  C   UNL     1      45.679   5.556  10.198  0.00  0.00    +0.000 A 
ATOM      6  C   UNL     1      45.754   4.971   8.932  0.00  0.00    +0.000 A 
ENDROOT
BRANCH   1   7
ATOM      7  C   UNL     1      45.547   2.997   7.368  0.00  0.00    +0.000 C 
BRANCH   7   8
ATOM      8  C   UNL     1      46.945   3.138   6.764  0.00  0.00    +0.000 C 
BRANCH   8  10
ATOM      9  O   UNL     1      47.341   0.798   7.239  0.00  0.00    +0.000 OA
ATOM     10  C   UNL     1      47.605   1.798   6.612  0.00  0.00    +0.000 C 
BRANCH  10  11
ATOM     11  O   UNL     1      48.567   1.804   5.656  0.00  0.00    +0.000 OA
ATOM     12  H   UNL     1      48.250   1.535   4.768  0.00  0.00    +0.000 HD
ENDBRANCH  10  11
ENDBRANCH   8  10
ENDBRANCH   7   8
ENDBRANCH   1   7
BRANCH   4  13
ATOM     13  C   UNL     1      45.130   5.461  12.661  0.00  0.00    +0.000 C 
BRANCH  13  14
ATOM     14  N   UNL     1      45.648   6.827  12.708  0.00  0.00    +0.000 N 
ATOM     15  C   UNL     1      44.870   7.944  12.499  0.00  0.00    +0.000 A 
ATOM     16  C   UNL     1      45.701   9.031  12.373  0.00  0.00    +0.000 A 
ATOM     17  C   UNL     1      47.027   8.534  12.301  0.00  0.00    +0.000 A 
ATOM     18  C   UNL     1      48.259   9.113  11.941  0.00  0.00    +0.000 A 
ATOM     19  C   UNL     1      49.424   8.347  12.012  0.00  0.00    +0.000 A 
ATOM     20  C   UNL     1      49.383   7.053  12.522  0.00  0.00    +0.000 A 
ATOM     21  C   UNL     1      48.167   6.446  12.863  0.00  0.00    +0.000 A 
ATOM     22  C   UNL     1      46.988   7.185  12.669  0.00  0.00    +0.000 A 
ENDBRANCH  13  14
ENDBRANCH   4  13
TORSDOF 6
ENDMDL
MODEL 3
REMARK VINA RESULT:    -7.242      1.355      2.369
REMARK INTER + INTRA:         -10.406
REMARK INTER:                  -9.713
REMARK INTRA:                  -0.693
REMARK UNBOUND:                -0.836
REMARK  Name = 
REMARK  6 active torsions:
REMARK  status: ('A' for Active; 'I' for Inactive)
REMARK    1  A    between atoms: C_2  and  O_3
REMARK    2  A    between atoms: C_2  and  C_4
REMARK    3  A    between atoms: C_4  and  C_5
REMARK    4  A    between atoms: C_5  and  C_6
REMARK    5  A    between atoms: C_9  and  C_10
REMARK    6  A    between atoms: C_10  and  N_11
REMARK                            x       y       z     vdW  Elec       q    Type
REMARK                         _______ _______ _______ _____ _____    ______ ____
ROOT
ATOM      1  C   UNL     1      45.247   3.463   8.200  0.00  0.00    +0.000 A 
ATOM      2  C   UNL     1      44.547   2.877   9.263  0.00  0.00    +0.000 A 
ATOM      3  C   UNL     1      44.421   3.545  10.486  0.00  0.00    +0.000 A 
ATOM      4  C   UNL     1      45.006   4.807  10.681  0.00  0.00    +0.000 A 
ATOM      5  C   UNL     1      45.714   5.382   9.622  0.00  0.00    +0.000 A 
ATOM      6  C   UNL     1      45.826   4.722   8.396  0.00  0.00    +0.000 A 
ENDROOT
BRANCH   1   7
ATOM      7  C   UNL     1      45.429   2.737   6.883  0.00  0.00    +0.000 C 
BRANCH   7   8
ATOM      8  C   UNL     1      46.773   3.009   6.207  0.00  0.00    +0.000 C 
BRANCH   8  10
ATOM      9  O   UNL     1      47.662   1.010   7.242  0.00  0.00    +0.000 OA
ATOM     10  C   UNL     1      47.702   1.839   6.362  0.00  0.00    +0.000 C 
BRANCH  10  11
ATOM     11  O   UNL     1      48.632   1.786   5.377  0.00  0.00    +0.000 OA
ATOM     12  H   UNL     1      48.815   0.880   5.049  0.00  0.00    +0.000 HD
ENDBRANCH  10  11
ENDBRANCH   8  10
ENDBRANCH   7   8
ENDBRANCH   1   7
BRANCH   4  13
ATOM     13  C   UNL     1      44.865   5.534  11.995  0.00  0.00    +0.000 C 
BRANCH  13  14
ATOM     14  N   UNL     1      46.032   5.404  12.866  0.00  0.00    +0.000 N 
ATOM     15  C   UNL     1      46.060   4.602  13.985  0.00  0.00    +0.000 A 
ATOM     16  C   UNL     1      47.199   4.896  14.697  0.00  0.00    +0.000 A 
ATOM     17  C   UNL     1      47.775   6.047  14.103  0.00  0.00    +0.000 A 
ATOM     18  C   UNL     1      48.783   6.942  14.506  0.00  0.00    +0.000 A 
ATOM     19  C   UNL     1      49.158   7.983  13.654  0.00  0.00    +0.000 A 
ATOM     20  C   UNL     1      48.608   8.080  12.380  0.00  0.00    +0.000 A 
ATOM     21  C   UNL     1      47.586   7.216  11.965  0.00  0.00    +0.000 A 
ATOM     22  C   UNL     1      47.130   6.251  12.878  0.00  0.00    +0.000 A 
ENDBRANCH  13  14
ENDBRANCH   4  13
TORSDOF 6
ENDMDL
MODEL 4
REMARK VINA RESULT:    -7.176      4.196      7.353
REMARK INTER + INTRA:         -10.319
REMARK INTER:                 -10.132
REMARK INTRA:                  -0.186
REMARK UNBOUND:                -0.836
REMARK  Name = 
REMARK  6 active torsions:
REMARK  status: ('A' for Active; 'I' for Inactive)
REMARK    1  A    between atoms: C_2  and  O_3
REMARK    2  A    between atoms: C_2  and  C_4
REMARK    3  A    between atoms: C_4  and  C_5
REMARK    4  A    between atoms: C_5  and  C_6
REMARK    5  A    between atoms: C_9  and  C_10
REMARK    6  A    between atoms: C_10  and  N_11
REMARK                            x       y       z     vdW  Elec       q    Type
REMARK                         _______ _______ _______ _____ _____    ______ ____
ROOT
ATOM      1  C   UNL     1      46.855   5.216  13.827  0.00  0.00    +0.000 A 
ATOM      2  C   UNL     1      47.037   6.274  12.926  0.00  0.00    +0.000 A 
ATOM      3  C   UNL     1      46.438   6.244  11.662  0.00  0.00    +0.000 A 
ATOM      4  C   UNL     1      45.656   5.148  11.262  0.00  0.00    +0.000 A 
ATOM      5  C   UNL     1      45.487   4.089  12.158  0.00  0.00    +0.000 A 
ATOM      6  C   UNL     1      46.072   4.126  13.426  0.00  0.00    +0.000 A 
ENDROOT
BRANCH   1   7
ATOM      7  C   UNL     1      47.529   5.212  15.183  0.00  0.00    +0.000 C 
BRANCH   7   8
ATOM      8  C   UNL     1      47.523   3.847  15.874  0.00  0.00    +0.000 C 
BRANCH   8  10
ATOM      9  O   UNL     1      47.094   4.972  17.973  0.00  0.00    +0.000 OA
ATOM     10  C   UNL     1      47.070   3.967  17.300  0.00  0.00    +0.000 C 
BRANCH  10  11
ATOM     11  O   UNL     1      46.602   2.793  17.792  0.00  0.00    +0.000 OA
ATOM     12  H   UNL     1      47.303   2.187  18.113  0.00  0.00    +0.000 HD
ENDBRANCH  10  11
ENDBRANCH   8  10
ENDBRANCH   7   8
ENDBRANCH   1   7
BRANCH   4  13
ATOM     13  C   UNL     1      45.001   5.116   9.904  0.00  0.00    +0.000 C 
BRANCH  13  14
ATOM     14  N   UNL     1      44.940   3.781   9.312  0.00  0.00    +0.000 N 
ATOM     15  C   UNL     1      44.204   2.746   9.843  0.00  0.00    +0.000 A 
ATOM     16  C   UNL     1      44.556   1.588   9.192  0.00  0.00    +0.000 A 
ATOM     17  C   UNL     1      45.681   1.891   8.384  0.00  0.00    +0.000 A 
ATOM     18  C   UNL     1      46.615   1.099   7.689  0.00  0.00    +0.000 A 
ATOM     19  C   UNL     1      47.612   1.719   6.933  0.00  0.00    +0.000 A 
ATOM     20  C   UNL     1      47.627   3.103   6.791  0.00  0.00    +0.000 A 
ATOM     21  C   UNL     1      46.725   3.913   7.492  0.00  0.00    +0.000 A 
ATOM     22  C   UNL     1      45.806   3.284   8.348  0.00  0.00    +0.000 A 
ENDBRANCH  13  14
ENDBRANCH   4  13
TORSDOF 6
ENDMDL
MODEL 5
REMARK VINA RESULT:    -6.707      1.784      3.217
REMARK INTER + INTRA:          -9.699
REMARK INTER:                  -9.064
REMARK INTRA:                  -0.635
REMARK UNBOUND:                -0.836
REMARK  Name = 
REMARK  6 active torsions:
REMARK  status: ('A' for Active; 'I' for Inactive)
REMARK    1  A    between atoms: C_2  and  O_3
REMARK    2  A    between atoms: C_2  and  C_4
REMARK    3  A    between atoms: C_4  and  C_5
REMARK    4  A    between atoms: C_5  and  C_6
REMARK    5  A    between atoms: C_9  and  C_10
REMARK    6  A    between atoms: C_10  and  N_11
REMARK                            x       y       z     vdW  Elec       q    Type
REMARK                         _______ _______ _______ _____ _____    ______ ____
ROOT
ATOM      1  C   UNL     1      45.054   3.164   9.784  0.00  0.00    +0.000 A 
ATOM      2  C   UNL     1      44.654   2.887  11.098  0.00  0.00    +0.000 A 
ATOM      3  C   UNL     1      44.546   3.915  12.041  0.00  0.00    +0.000 A 
ATOM      4  C   UNL     1      44.852   5.242  11.698  0.00  0.00    +0.000 A 
ATOM      5  C   UNL     1      45.264   5.513  10.390  0.00  0.00    +0.000 A 
ATOM      6  C   UNL     1      45.356   4.489   9.444  0.00  0.00    +0.000 A 
ENDROOT
BRANCH   1   7
ATOM      7  C   UNL     1      45.217   2.060   8.761  0.00  0.00    +0.000 C 
BRANCH   7   8
ATOM      8  C   UNL     1      46.178   2.406   7.623  0.00  0.00    +0.000 C 
BRANCH   8  10
ATOM      9  O   UNL     1      48.191   1.363   6.775  0.00  0.00    +0.000 OA
ATOM     10  C   UNL     1      47.139   1.281   7.367  0.00  0.00    +0.000 C 
BRANCH  10  11
ATOM     11  O   UNL     1      46.708   0.107   7.890  0.00  0.00    +0.000 OA
ATOM     12  H   UNL     1      46.742   0.069   8.869  0.00  0.00    +0.000 HD
ENDBRANCH  10  11
ENDBRANCH   8  10
ENDBRANCH   7   8
ENDBRANCH   1   7
BRANCH   4  13
ATOM     13  C   UNL     1      44.728   6.354  12.709  0.00  0.00    +0.000 C 
BRANCH  13  14
ATOM     14  N   UNL     1      45.627   7.479  12.459  0.00  0.00    +0.000 N 
ATOM     15  C   UNL     1      46.864   7.612  13.049  0.00  0.00    +0.000 A 
ATOM     16  C   UNL     1      47.331   8.878  12.790  0.00  0.00    +0.000 A 
ATOM     17  C   UNL     1      46.266   9.602  12.199  0.00  0.00    +0.000 A 
ATOM     18  C   UNL     1      46.052  10.968  11.937  0.00  0.00    +0.000 A 
ATOM     19  C   UNL     1      44.881  11.368  11.290  0.00  0.00    +0.000 A 
ATOM     20  C   UNL     1      43.976  10.419  10.826  0.00  0.00    +0.000 A 
ATOM     21  C   UNL     1      44.154   9.055  11.096  0.00  0.00    +0.000 A 
ATOM     22  C   UNL     1      45.273   8.677  11.856  0.00  0.00    +0.000 A 
ENDBRANCH  13  14
ENDBRANCH   4  13
TORSDOF 6
ENDMDL
MODEL 6
REMARK VINA RESULT:    -6.485      3.889      7.036
REMARK INTER + INTRA:          -9.406
REMARK INTER:                  -8.614
REMARK INTRA:                  -0.792
REMARK UNBOUND:                -0.836
REMARK  Name = 
REMARK  6 active torsions:
REMARK  status: ('A' for Active; 'I' for Inactive)
REMARK    1  A    between atoms: C_2  and  O_3
REMARK    2  A    between atoms: C_2  and  C_4
REMARK    3  A    between atoms: C_4  and  C_5
REMARK    4  A    between atoms: C_5  and  C_6
REMARK    5  A    between atoms: C_9  and  C_10
REMARK    6  A    between atoms: C_10  and  N_11
REMARK                            x       y       z     vdW  Elec       q    Type
REMARK                         _______ _______ _______ _____ _____    ______ ____
ROOT
ATOM      1  C   UNL     1      47.241   5.959  13.000  0.00  0.00    +0.000 A 
ATOM      2  C   UNL     1      46.347   4.919  13.285  0.00  0.00    +0.000 A 
ATOM      3  C   UNL     1      45.372   4.542  12.355  0.00  0.00    +0.000 A 
ATOM      4  C   UNL     1      45.258   5.207  11.123  0.00  0.00    +0.000 A 
ATOM      5  C   UNL     1      46.143   6.253  10.847  0.00  0.00    +0.000 A 
ATOM      6  C   UNL     1      47.126   6.619  11.770  0.00  0.00    +0.000 A 
ENDROOT
BRANCH   1   7
ATOM      7  C   UNL     1      48.274   6.409  14.012  0.00  0.00    +0.000 C 
BRANCH   7   8
ATOM      8  C   UNL     1      48.781   7.834  13.788  0.00  0.00    +0.000 C 
BRANCH   8  10
ATOM      9  O   UNL     1      48.589   9.419  15.606  0.00  0.00    +0.000 OA
ATOM     10  C   UNL     1      48.083   8.804  14.696  0.00  0.00    +0.000 C 
BRANCH  10  11
ATOM     11  O   UNL     1      46.770   8.944  14.388  0.00  0.00    +0.000 OA
ATOM     12  H   UNL     1      46.371   8.152  13.970  0.00  0.00    +0.000 HD
ENDBRANCH  10  11
ENDBRANCH   8  10
ENDBRANCH   7   8
ENDBRANCH   1   7
BRANCH   4  13
ATOM     13  C   UNL     1      44.215   4.798  10.113  0.00  0.00    +0.000 C 
BRANCH  13  14
ATOM     14  N   UNL     1      44.527   3.550   9.419  0.00  0.00    +0.000 N 
ATOM     15  C   UNL     1      44.119   2.311   9.859  0.00  0.00    +0.000 A 
ATOM     16  C   UNL     1      44.778   1.354   9.125  0.00  0.00    +0.000 A 
ATOM     17  C   UNL     1      45.762   2.024   8.356  0.00  0.00    +0.000 A 
ATOM     18  C   UNL     1      46.873   1.585   7.612  0.00  0.00    +0.000 A 
ATOM     19  C   UNL     1      47.646   2.518   6.918  0.00  0.00    +0.000 A 
ATOM     20  C   UNL     1      47.268   3.857   6.884  0.00  0.00    +0.000 A 
ATOM     21  C   UNL     1      46.181   4.322   7.635  0.00  0.00    +0.000 A 
ATOM     22  C   UNL     1      45.487   3.394   8.429  0.00  0.00    +0.000 A 
ENDBRANCH  13  14
ENDBRANCH   4  13
TORSDOF 6
ENDMDL
MODEL 7
REMARK VINA RESULT:    -6.332      3.970      7.091
REMARK INTER + INTRA:          -9.203
REMARK INTER:                  -8.620
REMARK INTRA:                  -0.583
REMARK UNBOUND:                -0.836
REMARK  Name = 
REMARK  6 active torsions:
REMARK  status: ('A' for Active; 'I' for Inactive)
REMARK    1  A    between atoms: C_2  and  O_3
REMARK    2  A    between atoms: C_2  and  C_4
REMARK    3  A    between atoms: C_4  and  C_5
REMARK    4  A    between atoms: C_5  and  C_6
REMARK    5  A    between atoms: C_9  and  C_10
REMARK    6  A    between atoms: C_10  and  N_11
REMARK                            x       y       z     vdW  Elec       q    Type
REMARK                         _______ _______ _______ _____ _____    ______ ____
ROOT
ATOM      1  C   UNL     1      47.801   6.853  13.702  0.00  0.00    +0.000 A 
ATOM      2  C   UNL     1      46.984   7.954  13.413  0.00  0.00    +0.000 A 
ATOM      3  C   UNL     1      45.813   7.795  12.665  0.00  0.00    +0.000 A 
ATOM      4  C   UNL     1      45.437   6.533  12.175  0.00  0.00    +0.000 A 
ATOM      5  C   UNL     1      46.262   5.439  12.455  0.00  0.00    +0.000 A 
ATOM      6  C   UNL     1      47.423   5.596  13.215  0.00  0.00    +0.000 A 
ENDROOT
BRANCH   1   7
ATOM      7  C   UNL     1      49.094   7.013  14.474  0.00  0.00    +0.000 C 
BRANCH   7   8
ATOM      8  C   UNL     1      48.898   7.205  15.979  0.00  0.00    +0.000 C 
BRANCH   8  10
ATOM      9  O   UNL     1      49.057   4.816  16.336  0.00  0.00    +0.000 OA
ATOM     10  C   UNL     1      48.614   5.895  16.656  0.00  0.00    +0.000 C 
BRANCH  10  11
ATOM     11  O   UNL     1      47.781   6.035  17.717  0.00  0.00    +0.000 OA
ATOM     12  H   UNL     1      48.241   6.212  18.565  0.00  0.00    +0.000 HD
ENDBRANCH  10  11
ENDBRANCH   8  10
ENDBRANCH   7   8
ENDBRANCH   1   7
BRANCH   4  13
ATOM     13  C   UNL     1      44.171   6.355  11.376  0.00  0.00    +0.000 C 
BRANCH  13  14
ATOM     14  N   UNL     1      43.894   4.966  11.015  0.00  0.00    +0.000 N 
ATOM     15  C   UNL     1      43.280   4.068  11.859  0.00  0.00    +0.000 A 
ATOM     16  C   UNL     1      43.394   2.813  11.309  0.00  0.00    +0.000 A 
ATOM     17  C   UNL     1      44.274   2.922  10.203  0.00  0.00    +0.000 A 
ATOM     18  C   UNL     1      44.951   1.978   9.409  0.00  0.00    +0.000 A 
ATOM     19  C   UNL     1      45.737   2.416   8.341  0.00  0.00    +0.000 A 
ATOM     20  C   UNL     1      45.776   3.766   8.007  0.00  0.00    +0.000 A 
ATOM     21  C   UNL     1      45.131   4.727   8.796  0.00  0.00    +0.000 A 
ATOM     22  C   UNL     1      44.447   4.285   9.940  0.00  0.00    +0.000 A 
ENDBRANCH  13  14
ENDBRANCH   4  13
TORSDOF 6
ENDMDL
MODEL 8
REMARK VINA RESULT:    -5.881      3.133      6.355
REMARK INTER + INTRA:          -8.607
REMARK INTER:                  -7.948
REMARK INTRA:                  -0.659
REMARK UNBOUND:                -0.836
REMARK  Name = 
REMARK  6 active torsions:
REMARK  status: ('A' for Active; 'I' for Inactive)
REMARK    1  A    between atoms: C_2  and  O_3
REMARK    2  A    between atoms: C_2  and  C_4
REMARK    3  A    between atoms: C_4  and  C_5
REMARK    4  A    between atoms: C_5  and  C_6
REMARK    5  A    between atoms: C_9  and  C_10
REMARK    6  A    between atoms: C_10  and  N_11
REMARK                            x       y       z     vdW  Elec       q    Type
REMARK                         _______ _______ _______ _____ _____    ______ ____
ROOT
ATOM      1  C   UNL     1      47.668   7.253  13.437  0.00  0.00    +0.000 A 
ATOM      2  C   UNL     1      47.448   6.005  12.839  0.00  0.00    +0.000 A 
ATOM      3  C   UNL     1      46.251   5.737  12.167  0.00  0.00    +0.000 A 
ATOM      4  C   UNL     1      45.236   6.706  12.091  0.00  0.00    +0.000 A 
ATOM      5  C   UNL     1      45.453   7.946  12.700  0.00  0.00    +0.000 A 
ATOM      6  C   UNL     1      46.656   8.218  13.357  0.00  0.00    +0.000 A 
ENDROOT
BRANCH   1   7
ATOM      7  C   UNL     1      48.940   7.546  14.204  0.00  0.00    +0.000 C 
BRANCH   7   8
ATOM      8  C   UNL     1      49.740   8.726  13.650  0.00  0.00    +0.000 C 
BRANCH   8  10
ATOM      9  O   UNL     1      49.563   9.237  11.291  0.00  0.00    +0.000 OA
ATOM     10  C   UNL     1      50.010   8.553  12.183  0.00  0.00    +0.000 C 
BRANCH  10  11
ATOM     11  O   UNL     1      50.847   7.516  11.932  0.00  0.00    +0.000 OA
ATOM     12  H   UNL     1      51.247   7.123  12.736  0.00  0.00    +0.000 HD
ENDBRANCH  10  11
ENDBRANCH   8  10
ENDBRANCH   7   8
ENDBRANCH   1   7
BRANCH   4  13
ATOM     13  C   UNL     1      43.948   6.425  11.360  0.00  0.00    +0.000 C 
BRANCH  13  14
ATOM     14  N   UNL     1      43.730   5.007  11.077  0.00  0.00    +0.000 N 
ATOM     15  C   UNL     1      43.203   4.121  11.990  0.00  0.00    +0.000 A 
ATOM     16  C   UNL     1      43.359   2.849  11.495  0.00  0.00    +0.000 A 
ATOM     17  C   UNL     1      44.183   2.948  10.345  0.00  0.00    +0.000 A 
ATOM     18  C   UNL     1      44.873   2.002   9.565  0.00  0.00    +0.000 A 
ATOM     19  C   UNL     1      45.585   2.427   8.441  0.00  0.00    +0.000 A 
ATOM     20  C   UNL     1      45.537   3.759   8.043  0.00  0.00    +0.000 A 
ATOM     21  C   UNL     1      44.877   4.724   8.816  0.00  0.00    +0.000 A 
ATOM     22  C   UNL     1      44.270   4.304  10.011  0.00  0.00    +0.000 A 
ENDBRANCH  13  14
ENDBRANCH   4  13
TORSDOF 6
ENDMDL
MODEL 9
REMARK VINA RESULT:    -5.305      3.057      4.940
REMARK INTER + INTRA:          -7.847
REMARK INTER:                  -7.080
REMARK INTRA:                  -0.766
REMARK UNBOUND:                -0.836
REMARK  Name = 
REMARK  6 active torsions:
REMARK  status: ('A' for Active; 'I' for Inactive)
REMARK    1  A    between atoms: C_2  and  O_3
REMARK    2  A    between atoms: C_2  and  C_4
REMARK    3  A    between atoms: C_4  and  C_5
REMARK    4  A    between atoms: C_5  and  C_6
REMARK    5  A    between atoms: C_9  and  C_10
REMARK    6  A    between atoms: C_10  and  N_11
REMARK                            x       y       z     vdW  Elec       q    Type
REMARK                         _______ _______ _______ _____ _____    ______ ____
ROOT
ATOM      1  C   UNL     1      44.934   5.154  12.037  0.00  0.00    +0.000 A 
ATOM      2  C   UNL     1      45.589   4.565  13.127  0.00  0.00    +0.000 A 
ATOM      3  C   UNL     1      46.787   5.100  13.612  0.00  0.00    +0.000 A 
ATOM      4  C   UNL     1      47.368   6.228  13.009  0.00  0.00    +0.000 A 
ATOM      5  C   UNL     1      46.718   6.805  11.914  0.00  0.00    +0.000 A 
ATOM      6  C   UNL     1      45.514   6.280  11.440  0.00  0.00    +0.000 A 
ENDROOT
BRANCH   1   7
ATOM      7  C   UNL     1      43.660   4.563  11.472  0.00  0.00    +0.000 C 
BRANCH   7   8
ATOM      8  C   UNL     1      43.861   3.229  10.751  0.00  0.00    +0.000 C 
BRANCH   8  10
ATOM      9  O   UNL     1      45.275   2.791   8.836  0.00  0.00    +0.000 OA
ATOM     10  C   UNL     1      44.402   3.440   9.366  0.00  0.00    +0.000 C 
BRANCH  10  11
ATOM     11  O   UNL     1      43.793   4.469   8.727  0.00  0.00    +0.000 OA
ATOM     12  H   UNL     1      42.958   4.762   9.148  0.00  0.00    +0.000 HD
ENDBRANCH  10  11
ENDBRANCH   8  10
ENDBRANCH   7   8
ENDBRANCH   1   7
BRANCH   4  13
ATOM     13  C   UNL     1      48.654   6.814  13.536  0.00  0.00    +0.000 C 
BRANCH  13  14
ATOM     14  N   UNL     1      48.491   7.568  14.777  0.00  0.00    +0.000 N 
ATOM     15  C   UNL     1      48.295   8.930  14.821  0.00  0.00    +0.000 A 
ATOM     16  C   UNL     1      48.425   9.343  16.125  0.00  0.00    +0.000 A 
ATOM     17  C   UNL     1      48.912   8.236  16.865  0.00  0.00    +0.000 A 
ATOM     18  C   UNL     1      49.456   8.098  18.156  0.00  0.00    +0.000 A 
ATOM     19  C   UNL     1      49.815   6.831  18.618  0.00  0.00    +0.000 A 
ATOM     20  C   UNL     1      49.553   5.702  17.847  0.00  0.00    +0.000 A 
ATOM     21  C   UNL     1      49.036   5.815  16.550  0.00  0.00    +0.000 A 
ATOM     22  C   UNL     1      48.795   7.105  16.049  0.00  0.00    +0.000 A 
ENDBRANCH  13  14
ENDBRANCH   4  13
TORSDOF 6
ENDMDL
