MODEL 1
REMARK VINA RESULT:    -9.596      0.000      0.000
REMARK INTER + INTRA:         -13.447
REMARK INTER:                 -12.402
REMARK INTRA:                  -1.045
REMARK UNBOUND:                -1.045
REMARK  Name = 
REMARK  5 active torsions:
REMARK  status: ('A' for Active; 'I' for Inactive)
REMARK    1  A    between atoms: C_2  and  C_4
REMARK    2  A    between atoms: N_8  and  C_9
REMARK    3  A    between atoms: C_9  and  C_10
REMARK    4  A    between atoms: C_10  and  C_13
REMARK    5  A    between atoms: C_17  and  C_18
REMARK                            x       y       z     vdW  Elec       q    Type
REMARK                         _______ _______ _______ _____ _____    ______ ____
ROOT
ATOM      1  C   UNL     1      43.477   5.600  12.156  0.00  0.00    +0.000 C 
ATOM      2  F   UNL     1      43.088   6.761  11.541  0.00  0.00    +0.000 F 
ATOM      3  F   UNL     1      42.598   5.441  13.192  0.00  0.00    +0.000 F 
ENDROOT
BRANCH   1   4
ATOM      4  C   UNL     1      44.908   5.684  12.649  0.00  0.00    +0.000 A 
ATOM      5  C   UNL     1      45.444   4.696  13.490  0.00  0.00    +0.000 A 
ATOM      6  C   UNL     1      46.781   4.729  13.868  0.00  0.00    +0.000 A 
ATOM      7  C   UNL     1      47.615   5.732  13.371  0.00  0.00    +0.000 A 
ATOM      8  C   UNL     1      47.112   6.717  12.507  0.00  0.00    +0.000 A 
ATOM      9  C   UNL     1      45.745   6.721  12.202  0.00  0.00    +0.000 A 
BRANCH   8  10
ATOM     10  C   UNL     1      48.044   7.662  11.774  0.00  0.00    +0.000 C 
ATOM     11  C   UNL     1      49.504   7.284  12.081  0.00  0.00    +0.000 C 
ATOM     12  C   UNL     1      50.470   8.273  11.455  0.00  0.00    +0.000 C 
ATOM     13  O   UNL     1      50.155   9.604  11.858  0.00  0.00    +0.000 OA
ATOM     14  C   UNL     1      48.853  10.005  11.433  0.00  0.00    +0.000 C 
ATOM     15  C   UNL     1      47.784   9.138  12.086  0.00  0.00    +0.000 C 
ENDBRANCH   8  10
ENDBRANCH   1   4
BRANCH   1  16
ATOM     16  C   UNL     1      43.276   4.434  11.161  0.00  0.00    +0.000 C 
BRANCH  16  21
ATOM     17  C   UNL     1      46.478   2.494   7.695  0.00  0.00    +0.000 A 
ATOM     18  C   UNL     1      45.657   1.850   8.612  0.00  0.00    +0.000 A 
ATOM     19  C   UNL     1      44.761   2.607   9.358  0.00  0.00    +0.000 A 
ATOM     20  C   UNL     1      44.678   3.986   9.167  0.00  0.00    +0.000 A 
ATOM     21  N   UNL     1      43.719   4.750   9.797  0.00  0.00    +0.000 N 
ATOM     22  N   UNL     1      45.479   4.617   8.290  0.00  0.00    +0.000 NA
ATOM     23  C   UNL     1      46.373   3.869   7.586  0.00  0.00    +0.000 A 
ATOM     24  H   UNL     1      43.791   5.741   9.546  0.00  0.00    +0.000 HD
BRANCH  17  26
ATOM     25  N   UNL     1      48.534   2.433   6.418  0.00  0.00    +0.000 N 
ATOM     26  C   UNL     1      47.446   1.751   6.863  0.00  0.00    +0.000 C 
ATOM     27  O   UNL     1      47.285   0.557   6.612  0.00  0.00    +0.000 OA
ATOM     28  H   UNL     1      49.240   1.896   5.927  0.00  0.00    +0.000 HD
ATOM     29  H   UNL     1      48.813   3.323   6.808  0.00  0.00    +0.000 HD
ENDBRANCH  17  26
ENDBRANCH  16  21
ENDBRANCH   1  16
TORSDOF 5
ENDMDL
MODEL 2
REMARK VINA RESULT:    -9.594      2.045      3.386
REMARK INTER + INTRA:         -13.443
REMARK INTER:                 -12.511
REMARK INTRA:                  -0.932
REMARK UNBOUND:                -1.045
REMARK  Name = 
REMARK  5 active torsions:
REMARK  status: ('A' for Active; 'I' for Inactive)
REMARK    1  A    between atoms: C_2  and  C_4
REMARK    2  A    between atoms: N_8  and  C_9
REMARK    3  A    between atoms: C_9  and  C_10
REMARK    4  A    between atoms: C_10  and  C_13
REMARK    5  A    between atoms: C_17  and  C_18
REMARK                            x       y       z     vdW  Elec       q    Type
REMARK                         _______ _______ _______ _____ _____    ______ ____
ROOT
ATOM      1  C   UNL     1      43.590   5.664  12.067  0.00  0.00    +0.000 C 
ATOM      2  F   UNL     1      43.162   6.835  11.499  0.00  0.00    +0.000 F 
ATOM      3  F   UNL     1      42.817   5.513  13.186  0.00  0.00    +0.000 F 
ENDROOT
BRANCH   1   4
ATOM      4  C   UNL     1      45.065   5.719  12.412  0.00  0.00    +0.000 A 
ATOM      5  C   UNL     1      45.952   6.516  11.673  0.00  0.00    +0.000 A 
ATOM      6  C   UNL     1      47.286   6.634  12.046  0.00  0.00    +0.000 A 
ATOM      7  C   UNL     1      47.741   5.987  13.196  0.00  0.00    +0.000 A 
ATOM      8  C   UNL     1      46.869   5.204  13.969  0.00  0.00    +0.000 A 
ATOM      9  C   UNL     1      45.550   5.026  13.535  0.00  0.00    +0.000 A 
BRANCH   8  10
ATOM     10  C   UNL     1      47.281   4.696  15.337  0.00  0.00    +0.000 C 
ATOM     11  C   UNL     1      48.370   5.615  15.919  0.00  0.00    +0.000 C 
ATOM     12  C   UNL     1      48.890   5.079  17.240  0.00  0.00    +0.000 C 
ATOM     13  O   UNL     1      49.333   3.731  17.095  0.00  0.00    +0.000 OA
ATOM     14  C   UNL     1      48.278   2.854  16.704  0.00  0.00    +0.000 C 
ATOM     15  C   UNL     1      47.741   3.236  15.331  0.00  0.00    +0.000 C 
ENDBRANCH   8  10
ENDBRANCH   1   4
BRANCH   1  16
ATOM     16  C   UNL     1      43.267   4.508  11.092  0.00  0.00    +0.000 C 
BRANCH  16  21
ATOM     17  C   UNL     1      46.419   2.328   7.725  0.00  0.00    +0.000 A 
ATOM     18  C   UNL     1      45.570   1.747   8.659  0.00  0.00    +0.000 A 
ATOM     19  C   UNL     1      44.697   2.564   9.369  0.00  0.00    +0.000 A 
ATOM     20  C   UNL     1      44.665   3.936   9.127  0.00  0.00    +0.000 A 
ATOM     21  N   UNL     1      43.731   4.757   9.720  0.00  0.00    +0.000 N 
ATOM     22  N   UNL     1      45.494   4.506   8.233  0.00  0.00    +0.000 NA
ATOM     23  C   UNL     1      46.365   3.700   7.564  0.00  0.00    +0.000 A 
ATOM     24  H   UNL     1      43.840   5.735   9.434  0.00  0.00    +0.000 HD
BRANCH  17  26
ATOM     25  N   UNL     1      48.457   2.157   6.428  0.00  0.00    +0.000 N 
ATOM     26  C   UNL     1      47.366   1.520   6.928  0.00  0.00    +0.000 C 
ATOM     27  O   UNL     1      47.184   0.316   6.754  0.00  0.00    +0.000 OA
ATOM     28  H   UNL     1      49.149   1.580   5.962  0.00  0.00    +0.000 HD
ATOM     29  H   UNL     1      48.754   3.065   6.758  0.00  0.00    +0.000 HD
ENDBRANCH  17  26
ENDBRANCH  16  21
ENDBRANCH   1  16
TORSDOF 5
ENDMDL
MODEL 3
REMARK VINA RESULT:    -7.764      4.106      7.814
REMARK INTER + INTRA:         -11.079
REMARK INTER:                 -10.236
REMARK INTRA:                  -0.843
REMARK UNBOUND:                -1.045
REMARK  Name = 
REMARK  5 active torsions:
REMARK  status: ('A' for Active; 'I' for Inactive)
REMARK    1  A    between atoms: C_2  and  C_4
REMARK    2  A    between atoms: N_8  and  C_9
REMARK    3  A    between atoms: C_9  and  C_10
REMARK    4  A    between atoms: C_10  and  C_13
REMARK    5  A    between atoms: C_17  and  C_18
REMARK                            x       y       z     vdW  Elec       q    Type
REMARK                         _______ _______ _______ _____ _____    ______ ____
ROOT
ATOM      1  C   UNL     1      46.529   6.792  12.349  0.00  0.00    +0.000 C 
ATOM      2  F   UNL     1      46.012   7.767  13.161  0.00  0.00    +0.000 F 
ATOM      3  F   UNL     1      47.287   7.466  11.431  0.00  0.00    +0.000 F 
ENDROOT
BRANCH   1   4
ATOM      4  C   UNL     1      45.433   5.985  11.680  0.00  0.00    +0.000 A 
ATOM      5  C   UNL     1      44.079   6.244  11.945  0.00  0.00    +0.000 A 
ATOM      6  C   UNL     1      43.076   5.564  11.265  0.00  0.00    +0.000 A 
ATOM      7  C   UNL     1      43.417   4.642  10.273  0.00  0.00    +0.000 A 
ATOM      8  C   UNL     1      44.762   4.383   9.969  0.00  0.00    +0.000 A 
ATOM      9  C   UNL     1      45.762   5.013  10.721  0.00  0.00    +0.000 A 
BRANCH   8  10
ATOM     10  C   UNL     1      45.145   3.575   8.745  0.00  0.00    +0.000 C 
ATOM     11  C   UNL     1      45.581   2.163   9.177  0.00  0.00    +0.000 C 
ATOM     12  C   UNL     1      46.077   1.356   7.992  0.00  0.00    +0.000 C 
ATOM     13  O   UNL     1      47.110   2.059   7.304  0.00  0.00    +0.000 OA
ATOM     14  C   UNL     1      46.655   3.301   6.770  0.00  0.00    +0.000 C 
ATOM     15  C   UNL     1      46.223   4.242   7.887  0.00  0.00    +0.000 C 
ENDBRANCH   8  10
ENDBRANCH   1   4
BRANCH   1  16
ATOM     16  C   UNL     1      47.466   5.902  13.197  0.00  0.00    +0.000 C 
BRANCH  16  21
ATOM     17  C   UNL     1      48.425   4.417  17.983  0.00  0.00    +0.000 A 
ATOM     18  C   UNL     1      48.805   5.574  17.314  0.00  0.00    +0.000 A 
ATOM     19  C   UNL     1      48.291   5.813  16.044  0.00  0.00    +0.000 A 
ATOM     20  C   UNL     1      47.393   4.915  15.469  0.00  0.00    +0.000 A 
ATOM     21  N   UNL     1      46.769   5.179  14.269  0.00  0.00    +0.000 N 
ATOM     22  N   UNL     1      47.032   3.787  16.107  0.00  0.00    +0.000 NA
ATOM     23  C   UNL     1      47.564   3.549  17.337  0.00  0.00    +0.000 A 
ATOM     24  H   UNL     1      46.137   4.422  13.989  0.00  0.00    +0.000 HD
BRANCH  17  26
ATOM     25  N   UNL     1      48.324   3.081  19.999  0.00  0.00    +0.000 N 
ATOM     26  C   UNL     1      48.925   4.103  19.337  0.00  0.00    +0.000 C 
ATOM     27  O   UNL     1      49.867   4.726  19.827  0.00  0.00    +0.000 OA
ATOM     28  H   UNL     1      48.731   2.810  20.888  0.00  0.00    +0.000 HD
ATOM     29  H   UNL     1      47.732   2.406  19.534  0.00  0.00    +0.000 HD
ENDBRANCH  17  26
ENDBRANCH  16  21
ENDBRANCH   1  16
TORSDOF 5
ENDMDL
MODEL 4
REMARK VINA RESULT:    -7.130      4.562      7.540
REMARK INTER + INTRA:         -10.259
REMARK INTER:                  -9.152
REMARK INTRA:                  -1.107
REMARK UNBOUND:                -1.045
REMARK  Name = 
REMARK  5 active torsions:
REMARK  status: ('A' for Active; 'I' for Inactive)
REMARK    1  A    between atoms: C_2  and  C_4
REMARK    2  A    between atoms: N_8  and  C_9
REMARK    3  A    between atoms: C_9  and  C_10
REMARK    4  A    between atoms: C_10  and  C_13
REMARK    5  A    between atoms: C_17  and  C_18
REMARK                            x       y       z     vdW  Elec       q    Type
REMARK                         _______ _______ _______ _____ _____    ______ ____
ROOT
ATOM      1  C   UNL     1      48.924   7.870  12.308  0.00  0.00    +0.000 C 
ATOM      2  F   UNL     1      49.500   8.746  11.426  0.00  0.00    +0.000 F 
ATOM      3  F   UNL     1      49.522   6.667  12.049  0.00  0.00    +0.000 F 
ENDROOT
BRANCH   1   4
ATOM      4  C   UNL     1      47.422   7.797  12.118  0.00  0.00    +0.000 A 
ATOM      5  C   UNL     1      46.605   8.912  12.365  0.00  0.00    +0.000 A 
ATOM      6  C   UNL     1      45.241   8.869  12.105  0.00  0.00    +0.000 A 
ATOM      7  C   UNL     1      44.680   7.718  11.550  0.00  0.00    +0.000 A 
ATOM      8  C   UNL     1      45.477   6.597  11.269  0.00  0.00    +0.000 A 
ATOM      9  C   UNL     1      46.834   6.625  11.614  0.00  0.00    +0.000 A 
BRANCH   8  10
ATOM     10  C   UNL     1      44.936   5.439  10.453  0.00  0.00    +0.000 C 
ATOM     11  C   UNL     1      44.840   4.186  11.341  0.00  0.00    +0.000 C 
ATOM     12  C   UNL     1      44.407   2.975  10.535  0.00  0.00    +0.000 C 
ATOM     13  O   UNL     1      45.270   2.784   9.415  0.00  0.00    +0.000 OA
ATOM     14  C   UNL     1      45.236   3.889   8.513  0.00  0.00    +0.000 C 
ATOM     15  C   UNL     1      45.751   5.152   9.188  0.00  0.00    +0.000 C 
ENDBRANCH   8  10
ENDBRANCH   1   4
BRANCH   1  16
ATOM     16  C   UNL     1      49.305   8.306  13.741  0.00  0.00    +0.000 C 
BRANCH  16  21
ATOM     17  C   UNL     1      48.228   4.439  16.891  0.00  0.00    +0.000 A 
ATOM     18  C   UNL     1      47.534   4.906  15.781  0.00  0.00    +0.000 A 
ATOM     19  C   UNL     1      48.116   5.895  14.995  0.00  0.00    +0.000 A 
ATOM     20  C   UNL     1      49.382   6.388  15.310  0.00  0.00    +0.000 A 
ATOM     21  N   UNL     1      50.041   7.276  14.487  0.00  0.00    +0.000 N 
ATOM     22  N   UNL     1      50.052   5.948  16.390  0.00  0.00    +0.000 NA
ATOM     23  C   UNL     1      49.460   5.000  17.168  0.00  0.00    +0.000 A 
ATOM     24  H   UNL     1      50.961   7.535  14.858  0.00  0.00    +0.000 HD
BRANCH  17  26
ATOM     25  N   UNL     1      48.375   3.077  18.887  0.00  0.00    +0.000 N 
ATOM     26  C   UNL     1      47.674   3.383  17.764  0.00  0.00    +0.000 C 
ATOM     27  O   UNL     1      46.608   2.830  17.496  0.00  0.00    +0.000 OA
ATOM     28  H   UNL     1      47.944   2.420  19.529  0.00  0.00    +0.000 HD
ATOM     29  H   UNL     1      49.103   3.675  19.253  0.00  0.00    +0.000 HD
ENDBRANCH  17  26
ENDBRANCH  16  21
ENDBRANCH   1  16
TORSDOF 5
ENDMDL
MODEL 5
REMARK VINA RESULT:    -6.855      4.758      6.593
REMARK INTER + INTRA:          -9.904
REMARK INTER:                  -8.512
REMARK INTRA:                  -1.392
REMARK UNBOUND:                -1.045
REMARK  Name = 
REMARK  5 active torsions:
REMARK  status: ('A' for Active; 'I' for Inactive)
REMARK    1  A    between atoms: C_2  and  C_4
REMARK    2  A    between atoms: N_8  and  C_9
REMARK    3  A    between atoms: C_9  and  C_10
REMARK    4  A    between atoms: C_10  and  C_13
REMARK    5  A    between atoms: C_17  and  C_18
REMARK                            x       y       z     vdW  Elec       q    Type
REMARK                         _______ _______ _______ _____ _____    ______ ____
ROOT
ATOM      1  C   UNL     1      49.129   8.561  15.247  0.00  0.00    +0.000 C 
ATOM      2  F   UNL     1      50.291   9.288  15.249  0.00  0.00    +0.000 F 
ATOM      3  F   UNL     1      48.137   9.486  15.068  0.00  0.00    +0.000 F 
ENDROOT
BRANCH   1   4
ATOM      4  C   UNL     1      48.950   7.796  16.543  0.00  0.00    +0.000 A 
ATOM      5  C   UNL     1      48.350   8.395  17.661  0.00  0.00    +0.000 A 
ATOM      6  C   UNL     1      48.106   7.665  18.818  0.00  0.00    +0.000 A 
ATOM      7  C   UNL     1      48.422   6.305  18.856  0.00  0.00    +0.000 A 
ATOM      8  C   UNL     1      48.999   5.674  17.743  0.00  0.00    +0.000 A 
ATOM      9  C   UNL     1      49.316   6.441  16.615  0.00  0.00    +0.000 A 
BRANCH   8  10
ATOM     10  C   UNL     1      49.126   4.164  17.680  0.00  0.00    +0.000 C 
ATOM     11  C   UNL     1      50.605   3.780  17.498  0.00  0.00    +0.000 C 
ATOM     12  C   UNL     1      50.764   2.281  17.319  0.00  0.00    +0.000 C 
ATOM     13  O   UNL     1      49.943   1.814  16.250  0.00  0.00    +0.000 OA
ATOM     14  C   UNL     1      48.555   2.035  16.498  0.00  0.00    +0.000 C 
ATOM     15  C   UNL     1      48.256   3.525  16.594  0.00  0.00    +0.000 C 
ENDBRANCH   8  10
ENDBRANCH   1   4
BRANCH   1  16
ATOM     16  C   UNL     1      49.148   7.623  14.019  0.00  0.00    +0.000 C 
BRANCH  16  21
ATOM     17  C   UNL     1      45.555   4.413  12.341  0.00  0.00    +0.000 A 
ATOM     18  C   UNL     1      46.249   4.426  13.545  0.00  0.00    +0.000 A 
ATOM     19  C   UNL     1      47.084   5.502  13.825  0.00  0.00    +0.000 A 
ATOM     20  C   UNL     1      47.201   6.554  12.918  0.00  0.00    +0.000 A 
ATOM     21  N   UNL     1      47.921   7.692  13.214  0.00  0.00    +0.000 N 
ATOM     22  N   UNL     1      46.542   6.540  11.745  0.00  0.00    +0.000 NA
ATOM     23  C   UNL     1      45.749   5.468  11.470  0.00  0.00    +0.000 A 
ATOM     24  H   UNL     1      47.903   8.370  12.446  0.00  0.00    +0.000 HD
BRANCH  17  26
ATOM     25  N   UNL     1      44.825   2.721  10.770  0.00  0.00    +0.000 N 
ATOM     26  C   UNL     1      44.643   3.306  11.983  0.00  0.00    +0.000 C 
ATOM     27  O   UNL     1      43.778   2.916  12.766  0.00  0.00    +0.000 OA
ATOM     28  H   UNL     1      44.259   1.904  10.568  0.00  0.00    +0.000 HD
ATOM     29  H   UNL     1      45.667   2.850  10.226  0.00  0.00    +0.000 HD
ENDBRANCH  17  26
ENDBRANCH  16  21
ENDBRANCH   1  16
TORSDOF 5
ENDMDL
MODEL 6
REMARK VINA RESULT:    -6.763      3.164      7.460
REMARK INTER + INTRA:          -9.785
REMARK INTER:                  -8.979
REMARK INTRA:                  -0.806
REMARK UNBOUND:                -1.045
REMARK  Name = 
REMARK  5 active torsions:
REMARK  status: ('A' for Active; 'I' for Inactive)
REMARK    1  A    between atoms: C_2  and  C_4
REMARK    2  A    between atoms: N_8  and  C_9
REMARK    3  A    between atoms: C_9  and  C_10
REMARK    4  A    between atoms: C_10  and  C_13
REMARK    5  A    between atoms: C_17  and  C_18
REMARK                            x       y       z     vdW  Elec       q    Type
REMARK                         _______ _______ _______ _____ _____    ______ ____
ROOT
ATOM      1  C   UNL     1      45.431   6.581  11.360  0.00  0.00    +0.000 C 
ATOM      2  F   UNL     1      44.652   7.529  10.751  0.00  0.00    +0.000 F 
ATOM      3  F   UNL     1      46.705   6.854  10.943  0.00  0.00    +0.000 F 
ENDROOT
BRANCH   1   4
ATOM      4  C   UNL     1      45.007   5.178  10.972  0.00  0.00    +0.000 A 
ATOM      5  C   UNL     1      43.969   4.522  11.651  0.00  0.00    +0.000 A 
ATOM      6  C   UNL     1      43.522   3.273  11.237  0.00  0.00    +0.000 A 
ATOM      7  C   UNL     1      44.084   2.680  10.104  0.00  0.00    +0.000 A 
ATOM      8  C   UNL     1      45.106   3.325   9.391  0.00  0.00    +0.000 A 
ATOM      9  C   UNL     1      45.603   4.544   9.869  0.00  0.00    +0.000 A 
BRANCH   8  10
ATOM     10  C   UNL     1      45.555   2.814   8.036  0.00  0.00    +0.000 C 
ATOM     11  C   UNL     1      46.314   1.487   8.214  0.00  0.00    +0.000 C 
ATOM     12  C   UNL     1      46.878   0.997   6.893  0.00  0.00    +0.000 C 
ATOM     13  O   UNL     1      47.681   2.007   6.285  0.00  0.00    +0.000 OA
ATOM     14  C   UNL     1      46.931   3.182   5.980  0.00  0.00    +0.000 C 
ATOM     15  C   UNL     1      46.397   3.825   7.252  0.00  0.00    +0.000 C 
ENDBRANCH   8  10
ENDBRANCH   1   4
BRANCH   1  16
ATOM     16  C   UNL     1      45.360   6.805  12.888  0.00  0.00    +0.000 C 
BRANCH  16  21
ATOM     17  C   UNL     1      49.797   8.797  14.428  0.00  0.00    +0.000 A 
ATOM     18  C   UNL     1      48.532   9.369  14.374  0.00  0.00    +0.000 A 
ATOM     19  C   UNL     1      47.446   8.564  14.048  0.00  0.00    +0.000 A 
ATOM     20  C   UNL     1      47.629   7.204  13.803  0.00  0.00    +0.000 A 
ATOM     21  N   UNL     1      46.564   6.354  13.599  0.00  0.00    +0.000 N 
ATOM     22  N   UNL     1      48.853   6.648  13.841  0.00  0.00    +0.000 NA
ATOM     23  C   UNL     1      49.913   7.451  14.133  0.00  0.00    +0.000 A 
ATOM     24  H   UNL     1      46.868   5.388  13.438  0.00  0.00    +0.000 HD
BRANCH  17  26
ATOM     25  N   UNL     1      51.956   9.713  13.825  0.00  0.00    +0.000 N 
ATOM     26  C   UNL     1      50.994   9.590  14.777  0.00  0.00    +0.000 C 
ATOM     27  O   UNL     1      51.096  10.139  15.874  0.00  0.00    +0.000 OA
ATOM     28  H   UNL     1      52.730  10.334  14.035  0.00  0.00    +0.000 HD
ATOM     29  H   UNL     1      51.789   9.491  12.853  0.00  0.00    +0.000 HD
ENDBRANCH  17  26
ENDBRANCH  16  21
ENDBRANCH   1  16
TORSDOF 5
ENDMDL
