MODEL 1
REMARK VINA RESULT:    -7.334      0.000      0.000
REMARK INTER + INTRA:         -11.272
REMARK INTER:                  -9.906
REMARK INTRA:                  -1.366
REMARK UNBOUND:                -1.366
REMARK  Name = 
REMARK  6 active torsions:
REMARK  status: ('A' for Active; 'I' for Inactive)
REMARK    1  A    between atoms: C_2  and  C_3
REMARK    2  A    between atoms: N_10  and  C_11
REMARK    3  A    between atoms: C_11  and  C_12
REMARK    4  A    between atoms: C_15  and  C_16
REMARK    5  A    between atoms: C_16  and  N_17
REMARK    6  A    between atoms: C_18  and  C_20
REMARK                            x       y       z     vdW  Elec       q    Type
REMARK                         _______ _______ _______ _____ _____    ______ ____
ROOT
ATOM      1  C   UNL     1      46.366   7.780  12.128  0.00  0.00    +0.000 A 
ATOM      2  C   UNL     1      47.510   7.022  11.846  0.00  0.00    +0.000 A 
ATOM      3  C   UNL     1      48.719   7.280  12.504  0.00  0.00    +0.000 A 
ATOM      4  C   UNL     1      48.806   8.286  13.476  0.00  0.00    +0.000 A 
ATOM      5  C   UNL     1      47.667   9.056  13.746  0.00  0.00    +0.000 A 
ATOM      6  C   UNL     1      46.458   8.797  13.089  0.00  0.00    +0.000 A 
ENDROOT
BRANCH   1   7
ATOM      7  C   UNL     1      45.073   7.526  11.398  0.00  0.00    +0.000 C 
BRANCH   7  15
ATOM      8  C   UNL     1      44.113   2.963  10.246  0.00  0.00    +0.000 A 
ATOM      9  C   UNL     1      44.492   2.138   9.196  0.00  0.00    +0.000 A 
ATOM     10  C   UNL     1      44.935   2.968   8.144  0.00  0.00    +0.000 A 
ATOM     11  C   UNL     1      44.856   4.267   8.593  0.00  0.00    +0.000 A 
ATOM     12  N   UNL     1      44.361   4.273   9.891  0.00  0.00    +0.000 N 
ATOM     13  C   UNL     1      44.107   5.410  10.680  0.00  0.00    +0.000 C 
ATOM     14  O   UNL     1      43.108   5.454  11.377  0.00  0.00    +0.000 OA
ATOM     15  N   UNL     1      45.123   6.331  10.586  0.00  0.00    +0.000 N 
ATOM     16  H   UNL     1      46.023   6.051  10.216  0.00  0.00    +0.000 HD
BRANCH   8  18
ATOM     17  N   UNL     1      43.346   2.182  12.586  0.00  0.00    +0.000 NA
ATOM     18  C   UNL     1      43.646   2.546  11.526  0.00  0.00    +0.000 C 
ENDBRANCH   8  18
ENDBRANCH   7  15
ENDBRANCH   1   7
BRANCH   4  19
ATOM     19  C   UNL     1      50.101   8.546  14.203  0.00  0.00    +0.000 C 
BRANCH  19  20
ATOM     20  N   UNL     1      50.287   7.678  15.335  0.00  0.00    +0.000 N 
ATOM     21  C   UNL     1      49.856   8.061  16.582  0.00  0.00    +0.000 C 
ATOM     22  O   UNL     1      49.435   9.197  16.798  0.00  0.00    +0.000 OA
ATOM     23  H   UNL     1      50.352   6.676  15.148  0.00  0.00    +0.000 HD
BRANCH  21  24
ATOM     24  C   UNL     1      49.968   7.076  17.665  0.00  0.00    +0.000 A 
ATOM     25  C   UNL     1      50.681   7.396  18.811  0.00  0.00    +0.000 A 
ATOM     26  S   UNL     1      50.708   6.149  19.970  0.00  0.00    +0.000 S 
ATOM     27  C   UNL     1      49.648   5.191  19.039  0.00  0.00    +0.000 A 
ATOM     28  N   UNL     1      49.141   4.039  19.552  0.00  0.00    +0.000 NA
ATOM     29  C   UNL     1      48.332   3.421  18.746  0.00  0.00    +0.000 A 
ATOM     30  N   UNL     1      48.037   3.836  17.463  0.00  0.00    +0.000 N 
ATOM     31  O   UNL     1      47.187   3.014  16.723  0.00  0.00    +0.000 OA
ATOM     32  C   UNL     1      48.528   5.007  16.884  0.00  0.00    +0.000 A 
ATOM     33  O   UNL     1      48.308   5.427  15.748  0.00  0.00    +0.000 OA
ATOM     34  C   UNL     1      49.389   5.757  17.801  0.00  0.00    +0.000 A 
ENDBRANCH  21  24
ENDBRANCH  19  20
ENDBRANCH   4  19
TORSDOF 6
ENDMDL
MODEL 2
REMARK VINA RESULT:    -7.165      4.924      8.576
REMARK INTER + INTRA:         -11.045
REMARK INTER:                  -9.994
REMARK INTRA:                  -1.051
REMARK UNBOUND:                -1.366
REMARK  Name = 
REMARK  6 active torsions:
REMARK  status: ('A' for Active; 'I' for Inactive)
REMARK    1  A    between atoms: C_2  and  C_3
REMARK    2  A    between atoms: N_10  and  C_11
REMARK    3  A    between atoms: C_11  and  C_12
REMARK    4  A    between atoms: C_15  and  C_16
REMARK    5  A    between atoms: C_16  and  N_17
REMARK    6  A    between atoms: C_18  and  C_20
REMARK                            x       y       z     vdW  Elec       q    Type
REMARK                         _______ _______ _______ _____ _____    ______ ____
ROOT
ATOM      1  C   UNL     1      49.810   9.384  11.391  0.00  0.00    +0.000 A 
ATOM      2  C   UNL     1      48.838  10.356  11.659  0.00  0.00    +0.000 A 
ATOM      3  C   UNL     1      47.570   9.989  12.130  0.00  0.00    +0.000 A 
ATOM      4  C   UNL     1      47.254   8.645  12.367  0.00  0.00    +0.000 A 
ATOM      5  C   UNL     1      48.221   7.671  12.083  0.00  0.00    +0.000 A 
ATOM      6  C   UNL     1      49.488   8.037  11.613  0.00  0.00    +0.000 A 
ENDROOT
BRANCH   1   7
ATOM      7  C   UNL     1      51.162   9.773  10.852  0.00  0.00    +0.000 C 
BRANCH   7  15
ATOM      8  C   UNL     1      53.830   6.187   9.094  0.00  0.00    +0.000 A 
ATOM      9  C   UNL     1      54.698   5.267   9.666  0.00  0.00    +0.000 A 
ATOM     10  C   UNL     1      55.085   5.775  10.924  0.00  0.00    +0.000 A 
ATOM     11  C   UNL     1      54.414   6.963  11.104  0.00  0.00    +0.000 A 
ATOM     12  N   UNL     1      53.630   7.220   9.987  0.00  0.00    +0.000 N 
ATOM     13  C   UNL     1      52.823   8.353   9.779  0.00  0.00    +0.000 C 
ATOM     14  O   UNL     1      52.778   8.873   8.677  0.00  0.00    +0.000 OA
ATOM     15  N   UNL     1      52.112   8.684  10.908  0.00  0.00    +0.000 N 
ATOM     16  H   UNL     1      52.009   8.008  11.654  0.00  0.00    +0.000 HD
BRANCH   8  18
ATOM     17  N   UNL     1      52.543   5.937   6.869  0.00  0.00    +0.000 NA
ATOM     18  C   UNL     1      53.160   6.058   7.843  0.00  0.00    +0.000 C 
ENDBRANCH   8  18
ENDBRANCH   7  15
ENDBRANCH   1   7
BRANCH   4  19
ATOM     19  C   UNL     1      45.900   8.253  12.900  0.00  0.00    +0.000 C 
BRANCH  19  20
ATOM     20  N   UNL     1      45.575   6.877  12.636  0.00  0.00    +0.000 N 
ATOM     21  C   UNL     1      44.572   6.557  11.754  0.00  0.00    +0.000 C 
ATOM     22  O   UNL     1      43.833   7.417  11.277  0.00  0.00    +0.000 OA
ATOM     23  H   UNL     1      46.317   6.188  12.773  0.00  0.00    +0.000 HD
BRANCH  21  24
ATOM     24  C   UNL     1      44.377   5.135  11.442  0.00  0.00    +0.000 A 
ATOM     25  C   UNL     1      43.595   4.350  12.277  0.00  0.00    +0.000 A 
ATOM     26  S   UNL     1      43.466   2.730  11.769  0.00  0.00    +0.000 S 
ATOM     27  C   UNL     1      44.336   3.055  10.339  0.00  0.00    +0.000 A 
ATOM     28  N   UNL     1      44.444   2.103   9.375  0.00  0.00    +0.000 NA
ATOM     29  C   UNL     1      45.113   2.491   8.331  0.00  0.00    +0.000 A 
ATOM     30  N   UNL     1      45.718   3.724   8.205  0.00  0.00    +0.000 N 
ATOM     31  O   UNL     1      46.443   3.945   7.033  0.00  0.00    +0.000 OA
ATOM     32  C   UNL     1      45.644   4.739   9.161  0.00  0.00    +0.000 A 
ATOM     33  O   UNL     1      46.164   5.853   9.109  0.00  0.00    +0.000 OA
ATOM     34  C   UNL     1      44.834   4.348  10.317  0.00  0.00    +0.000 A 
ENDBRANCH  21  24
ENDBRANCH  19  20
ENDBRANCH   4  19
TORSDOF 6
ENDMDL
MODEL 3
REMARK VINA RESULT:    -7.025      2.305      3.051
REMARK INTER + INTRA:         -10.855
REMARK INTER:                  -9.751
REMARK INTRA:                  -1.105
REMARK UNBOUND:                -1.366
REMARK  Name = 
REMARK  6 active torsions:
REMARK  status: ('A' for Active; 'I' for Inactive)
REMARK    1  A    between atoms: C_2  and  C_3
REMARK    2  A    between atoms: N_10  and  C_11
REMARK    3  A    between atoms: C_11  and  C_12
REMARK    4  A    between atoms: C_15  and  C_16
REMARK    5  A    between atoms: C_16  and  N_17
REMARK    6  A    between atoms: C_18  and  C_20
REMARK                            x       y       z     vdW  Elec       q    Type
REMARK                         _______ _______ _______ _____ _____    ______ ____
ROOT
ATOM      1  C   UNL     1      45.479   5.205  11.227  0.00  0.00    +0.000 A 
ATOM      2  C   UNL     1      45.379   5.104  12.621  0.00  0.00    +0.000 A 
ATOM      3  C   UNL     1      46.026   6.026  13.453  0.00  0.00    +0.000 A 
ATOM      4  C   UNL     1      46.769   7.083  12.911  0.00  0.00    +0.000 A 
ATOM      5  C   UNL     1      46.884   7.174  11.518  0.00  0.00    +0.000 A 
ATOM      6  C   UNL     1      46.237   6.253  10.686  0.00  0.00    +0.000 A 
ENDROOT
BRANCH   1   7
ATOM      7  C   UNL     1      44.812   4.195  10.330  0.00  0.00    +0.000 C 
BRANCH   7  15
ATOM      8  C   UNL     1      46.814   1.633   6.795  0.00  0.00    +0.000 A 
ATOM      9  C   UNL     1      47.549   1.966   5.666  0.00  0.00    +0.000 A 
ATOM     10  C   UNL     1      47.308   3.329   5.390  0.00  0.00    +0.000 A 
ATOM     11  C   UNL     1      46.471   3.799   6.377  0.00  0.00    +0.000 A 
ATOM     12  N   UNL     1      46.170   2.764   7.254  0.00  0.00    +0.000 N 
ATOM     13  C   UNL     1      45.321   2.841   8.372  0.00  0.00    +0.000 C 
ATOM     14  O   UNL     1      44.561   1.920   8.621  0.00  0.00    +0.000 OA
ATOM     15  N   UNL     1      45.537   3.989   9.096  0.00  0.00    +0.000 N 
ATOM     16  H   UNL     1      46.388   4.519   8.957  0.00  0.00    +0.000 HD
BRANCH   8  18
ATOM     17  N   UNL     1      46.860  -0.673   7.958  0.00  0.00    +0.000 NA
ATOM     18  C   UNL     1      46.796   0.369   7.453  0.00  0.00    +0.000 C 
ENDBRANCH   8  18
ENDBRANCH   7  15
ENDBRANCH   1   7
BRANCH   4  19
ATOM     19  C   UNL     1      47.443   8.090  13.808  0.00  0.00    +0.000 C 
BRANCH  19  20
ATOM     20  N   UNL     1      47.895   7.518  15.048  0.00  0.00    +0.000 N 
ATOM     21  C   UNL     1      49.208   7.143  15.202  0.00  0.00    +0.000 C 
ATOM     22  O   UNL     1      49.996   7.148  14.257  0.00  0.00    +0.000 OA
ATOM     23  H   UNL     1      47.375   7.764  15.891  0.00  0.00    +0.000 HD
BRANCH  21  24
ATOM     24  C   UNL     1      49.625   6.681  16.531  0.00  0.00    +0.000 A 
ATOM     25  C   UNL     1      50.498   7.454  17.283  0.00  0.00    +0.000 A 
ATOM     26  S   UNL     1      50.874   6.781  18.801  0.00  0.00    +0.000 S 
ATOM     27  C   UNL     1      49.772   5.501  18.564  0.00  0.00    +0.000 A 
ATOM     28  N   UNL     1      49.497   4.640  19.579  0.00  0.00    +0.000 NA
ATOM     29  C   UNL     1      48.626   3.729  19.269  0.00  0.00    +0.000 A 
ATOM     30  N   UNL     1      48.056   3.584  18.021  0.00  0.00    +0.000 N 
ATOM     31  O   UNL     1      47.180   2.511  17.857  0.00  0.00    +0.000 OA
ATOM     32  C   UNL     1      48.301   4.436  16.941  0.00  0.00    +0.000 A 
ATOM     33  O   UNL     1      47.830   4.356  15.807  0.00  0.00    +0.000 OA
ATOM     34  C   UNL     1      49.229   5.514  17.289  0.00  0.00    +0.000 A 
ENDBRANCH  21  24
ENDBRANCH  19  20
ENDBRANCH   4  19
TORSDOF 6
ENDMDL
MODEL 4
REMARK VINA RESULT:    -6.938      2.519      3.464
REMARK INTER + INTRA:         -10.737
REMARK INTER:                  -9.761
REMARK INTRA:                  -0.977
REMARK UNBOUND:                -1.366
REMARK  Name = 
REMARK  6 active torsions:
REMARK  status: ('A' for Active; 'I' for Inactive)
REMARK    1  A    between atoms: C_2  and  C_3
REMARK    2  A    between atoms: N_10  and  C_11
REMARK    3  A    between atoms: C_11  and  C_12
REMARK    4  A    between atoms: C_15  and  C_16
REMARK    5  A    between atoms: C_16  and  N_17
REMARK    6  A    between atoms: C_18  and  C_20
REMARK                            x       y       z     vdW  Elec       q    Type
REMARK                         _______ _______ _______ _____ _____    ______ ____
ROOT
ATOM      1  C   UNL     1      45.187   5.365  11.339  0.00  0.00    +0.000 A 
ATOM      2  C   UNL     1      46.241   5.365  12.262  0.00  0.00    +0.000 A 
ATOM      3  C   UNL     1      46.612   6.542  12.925  0.00  0.00    +0.000 A 
ATOM      4  C   UNL     1      45.924   7.741  12.696  0.00  0.00    +0.000 A 
ATOM      5  C   UNL     1      44.881   7.746  11.761  0.00  0.00    +0.000 A 
ATOM      6  C   UNL     1      44.509   6.569  11.100  0.00  0.00    +0.000 A 
ENDROOT
BRANCH   1   7
ATOM      7  C   UNL     1      44.808   4.109  10.601  0.00  0.00    +0.000 C 
BRANCH   7  15
ATOM      8  C   UNL     1      46.784   1.739   6.920  0.00  0.00    +0.000 A 
ATOM      9  C   UNL     1      47.498   2.134   5.797  0.00  0.00    +0.000 A 
ATOM     10  C   UNL     1      47.237   3.505   5.590  0.00  0.00    +0.000 A 
ATOM     11  C   UNL     1      46.411   3.918   6.610  0.00  0.00    +0.000 A 
ATOM     12  N   UNL     1      46.135   2.840   7.441  0.00  0.00    +0.000 N 
ATOM     13  C   UNL     1      45.301   2.854   8.574  0.00  0.00    +0.000 C 
ATOM     14  O   UNL     1      44.556   1.914   8.791  0.00  0.00    +0.000 OA
ATOM     15  N   UNL     1      45.516   3.969   9.348  0.00  0.00    +0.000 N 
ATOM     16  H   UNL     1      46.359   4.516   9.221  0.00  0.00    +0.000 HD
BRANCH   8  18
ATOM     17  N   UNL     1      46.813  -0.639   7.927  0.00  0.00    +0.000 NA
ATOM     18  C   UNL     1      46.789   0.446   7.518  0.00  0.00    +0.000 C 
ENDBRANCH   8  18
ENDBRANCH   7  15
ENDBRANCH   1   7
BRANCH   4  19
ATOM     19  C   UNL     1      46.307   9.001  13.429  0.00  0.00    +0.000 C 
BRANCH  19  20
ATOM     20  N   UNL     1      47.074   8.742  14.619  0.00  0.00    +0.000 N 
ATOM     21  C   UNL     1      48.366   9.199  14.725  0.00  0.00    +0.000 C 
ATOM     22  O   UNL     1      48.951   9.709  13.770  0.00  0.00    +0.000 OA
ATOM     23  H   UNL     1      46.555   8.597  15.486  0.00  0.00    +0.000 HD
BRANCH  21  24
ATOM     24  C   UNL     1      49.045   9.005  16.012  0.00  0.00    +0.000 A 
ATOM     25  C   UNL     1      49.274  10.096  16.838  0.00  0.00    +0.000 A 
ATOM     26  S   UNL     1      50.064   9.698  18.293  0.00  0.00    +0.000 S 
ATOM     27  C   UNL     1      50.000   8.033  17.932  0.00  0.00    +0.000 A 
ATOM     28  N   UNL     1      50.377   7.118  18.864  0.00  0.00    +0.000 NA
ATOM     29  C   UNL     1      50.258   5.888  18.466  0.00  0.00    +0.000 A 
ATOM     30  N   UNL     1      49.845   5.511  17.205  0.00  0.00    +0.000 N 
ATOM     31  O   UNL     1      49.830   4.142  16.938  0.00  0.00    +0.000 OA
ATOM     32  C   UNL     1      49.447   6.404  16.208  0.00  0.00    +0.000 A 
ATOM     33  O   UNL     1      49.076   6.131  15.067  0.00  0.00    +0.000 OA
ATOM     34  C   UNL     1      49.508   7.796  16.659  0.00  0.00    +0.000 A 
ENDBRANCH  21  24
ENDBRANCH  19  20
ENDBRANCH   4  19
TORSDOF 6
ENDMDL
MODEL 5
REMARK VINA RESULT:    -6.759      2.780      8.674
REMARK INTER + INTRA:         -10.495
REMARK INTER:                  -9.413
REMARK INTRA:                  -1.082
REMARK UNBOUND:                -1.366
REMARK  Name = 
REMARK  6 active torsions:
REMARK  status: ('A' for Active; 'I' for Inactive)
REMARK    1  A    between atoms: C_2  and  C_3
REMARK    2  A    between atoms: N_10  and  C_11
REMARK    3  A    between atoms: C_11  and  C_12
REMARK    4  A    between atoms: C_15  and  C_16
REMARK    5  A    between atoms: C_16  and  N_17
REMARK    6  A    between atoms: C_18  and  C_20
REMARK                            x       y       z     vdW  Elec       q    Type
REMARK                         _______ _______ _______ _____ _____    ______ ____
ROOT
ATOM      1  C   UNL     1      49.920   8.389  15.234  0.00  0.00    +0.000 A 
ATOM      2  C   UNL     1      48.552   8.651  15.382  0.00  0.00    +0.000 A 
ATOM      3  C   UNL     1      47.684   8.560  14.286  0.00  0.00    +0.000 A 
ATOM      4  C   UNL     1      48.160   8.183  13.024  0.00  0.00    +0.000 A 
ATOM      5  C   UNL     1      49.531   7.937  12.872  0.00  0.00    +0.000 A 
ATOM      6  C   UNL     1      50.399   8.027  13.967  0.00  0.00    +0.000 A 
ENDROOT
BRANCH   1   7
ATOM      7  C   UNL     1      50.861   8.519  16.404  0.00  0.00    +0.000 C 
BRANCH   7  15
ATOM      8  C   UNL     1      49.292   4.616  18.722  0.00  0.00    +0.000 A 
ATOM      9  C   UNL     1      48.936   4.361  20.039  0.00  0.00    +0.000 A 
ATOM     10  C   UNL     1      49.509   5.373  20.838  0.00  0.00    +0.000 A 
ATOM     11  C   UNL     1      50.160   6.238  19.987  0.00  0.00    +0.000 A 
ATOM     12  N   UNL     1      50.023   5.786  18.681  0.00  0.00    +0.000 N 
ATOM     13  C   UNL     1      50.575   6.381  17.532  0.00  0.00    +0.000 C 
ATOM     14  O   UNL     1      51.048   5.680  16.653  0.00  0.00    +0.000 OA
ATOM     15  N   UNL     1      50.429   7.748  17.548  0.00  0.00    +0.000 N 
ATOM     16  H   UNL     1      49.763   8.176  18.179  0.00  0.00    +0.000 HD
BRANCH   8  18
ATOM     17  N   UNL     1      48.642   3.288  16.605  0.00  0.00    +0.000 NA
ATOM     18  C   UNL     1      48.893   3.871  17.575  0.00  0.00    +0.000 C 
ENDBRANCH   8  18
ENDBRANCH   7  15
ENDBRANCH   1   7
BRANCH   4  19
ATOM     19  C   UNL     1      47.221   8.059  11.851  0.00  0.00    +0.000 C 
BRANCH  19  20
ATOM     20  N   UNL     1      46.663   6.739  11.721  0.00  0.00    +0.000 N 
ATOM     21  C   UNL     1      45.308   6.570  11.574  0.00  0.00    +0.000 C 
ATOM     22  O   UNL     1      44.523   7.510  11.691  0.00  0.00    +0.000 OA
ATOM     23  H   UNL     1      47.272   6.012  11.342  0.00  0.00    +0.000 HD
BRANCH  21  24
ATOM     24  C   UNL     1      44.823   5.206  11.325  0.00  0.00    +0.000 A 
ATOM     25  C   UNL     1      44.026   4.578  12.272  0.00  0.00    +0.000 A 
ATOM     26  S   UNL     1      43.544   3.007  11.825  0.00  0.00    +0.000 S 
ATOM     27  C   UNL     1      44.267   3.166  10.289  0.00  0.00    +0.000 A 
ATOM     28  N   UNL     1      44.077   2.209   9.343  0.00  0.00    +0.000 NA
ATOM     29  C   UNL     1      44.665   2.467   8.214  0.00  0.00    +0.000 A 
ATOM     30  N   UNL     1      45.460   3.569   7.981  0.00  0.00    +0.000 N 
ATOM     31  O   UNL     1      46.055   3.652   6.722  0.00  0.00    +0.000 OA
ATOM     32  C   UNL     1      45.693   4.583   8.913  0.00  0.00    +0.000 A 
ATOM     33  O   UNL     1      46.394   5.583   8.768  0.00  0.00    +0.000 OA
ATOM     34  C   UNL     1      44.982   4.347  10.172  0.00  0.00    +0.000 A 
ENDBRANCH  21  24
ENDBRANCH  19  20
ENDBRANCH   4  19
TORSDOF 6
ENDMDL
MODEL 6
REMARK VINA RESULT:    -6.693      5.124     10.070
REMARK INTER + INTRA:         -10.407
REMARK INTER:                  -9.581
REMARK INTRA:                  -0.825
REMARK UNBOUND:                -1.366
REMARK  Name = 
REMARK  6 active torsions:
REMARK  status: ('A' for Active; 'I' for Inactive)
REMARK    1  A    between atoms: C_2  and  C_3
REMARK    2  A    between atoms: N_10  and  C_11
REMARK    3  A    between atoms: C_11  and  C_12
REMARK    4  A    between atoms: C_15  and  C_16
REMARK    5  A    between atoms: C_16  and  N_17
REMARK    6  A    between atoms: C_18  and  C_20
REMARK                            x       y       z     vdW  Elec       q    Type
REMARK                         _______ _______ _______ _____ _____    ______ ____
ROOT
ATOM      1  C   UNL     1      51.764   2.936  17.750  0.00  0.00    +0.000 A 
ATOM      2  C   UNL     1      51.021   1.869  17.227  0.00  0.00    +0.000 A 
ATOM      3  C   UNL     1      49.645   1.998  17.002  0.00  0.00    +0.000 A 
ATOM      4  C   UNL     1      48.984   3.204  17.272  0.00  0.00    +0.000 A 
ATOM      5  C   UNL     1      49.723   4.266  17.810  0.00  0.00    +0.000 A 
ATOM      6  C   UNL     1      51.099   4.137  18.035  0.00  0.00    +0.000 A 
ENDROOT
BRANCH   1   7
ATOM      7  C   UNL     1      53.238   2.789  18.025  0.00  0.00    +0.000 C 
BRANCH   7  15
ATOM      8  C   UNL     1      54.988  -1.684  17.992  0.00  0.00    +0.000 A 
ATOM      9  C   UNL     1      55.042  -2.700  18.936  0.00  0.00    +0.000 A 
ATOM     10  C   UNL     1      54.859  -2.111  20.205  0.00  0.00    +0.000 A 
ATOM     11  C   UNL     1      54.656  -0.765  19.999  0.00  0.00    +0.000 A 
ATOM     12  N   UNL     1      54.723  -0.494  18.638  0.00  0.00    +0.000 N 
ATOM     13  C   UNL     1      54.599   0.770  18.034  0.00  0.00    +0.000 C 
ATOM     14  O   UNL     1      55.324   1.070  17.101  0.00  0.00    +0.000 OA
ATOM     15  N   UNL     1      53.568   1.496  18.582  0.00  0.00    +0.000 N 
ATOM     16  H   UNL     1      52.861   1.028  19.136  0.00  0.00    +0.000 HD
BRANCH   8  18
ATOM     17  N   UNL     1      55.225  -2.003  15.440  0.00  0.00    +0.000 NA
ATOM     18  C   UNL     1      55.080  -1.833  16.578  0.00  0.00    +0.000 C 
ENDBRANCH   8  18
ENDBRANCH   7  15
ENDBRANCH   1   7
BRANCH   4  19
ATOM     19  C   UNL     1      47.508   3.351  17.004  0.00  0.00    +0.000 C 
BRANCH  19  20
ATOM     20  N   UNL     1      47.210   4.438  16.109  0.00  0.00    +0.000 N 
ATOM     21  C   UNL     1      47.140   4.223  14.755  0.00  0.00    +0.000 C 
ATOM     22  O   UNL     1      47.465   3.146  14.254  0.00  0.00    +0.000 OA
ATOM     23  H   UNL     1      46.674   5.220  16.489  0.00  0.00    +0.000 HD
BRANCH  21  24
ATOM     24  C   UNL     1      46.712   5.348  13.915  0.00  0.00    +0.000 A 
ATOM     25  C   UNL     1      47.501   6.487  13.841  0.00  0.00    +0.000 A 
ATOM     26  S   UNL     1      46.866   7.693  12.820  0.00  0.00    +0.000 S 
ATOM     27  C   UNL     1      45.586   6.678  12.331  0.00  0.00    +0.000 A 
ATOM     28  N   UNL     1      44.754   7.065  11.329  0.00  0.00    +0.000 NA
ATOM     29  C   UNL     1      43.839   6.188  11.044  0.00  0.00    +0.000 A 
ATOM     30  N   UNL     1      43.664   4.995  11.712  0.00  0.00    +0.000 N 
ATOM     31  O   UNL     1      42.591   4.203  11.302  0.00  0.00    +0.000 OA
ATOM     32  C   UNL     1      44.485   4.546  12.749  0.00  0.00    +0.000 A 
ATOM     33  O   UNL     1      44.377   3.499  13.386  0.00  0.00    +0.000 OA
ATOM     34  C   UNL     1      45.567   5.489  13.041  0.00  0.00    +0.000 A 
ENDBRANCH  21  24
ENDBRANCH  19  20
ENDBRANCH   4  19
TORSDOF 6
ENDMDL
MODEL 7
REMARK VINA RESULT:    -6.441      5.302      9.905
REMARK INTER + INTRA:         -10.065
REMARK INTER:                  -8.980
REMARK INTRA:                  -1.085
REMARK UNBOUND:                -1.366
REMARK  Name = 
REMARK  6 active torsions:
REMARK  status: ('A' for Active; 'I' for Inactive)
REMARK    1  A    between atoms: C_2  and  C_3
REMARK    2  A    between atoms: N_10  and  C_11
REMARK    3  A    between atoms: C_11  and  C_12
REMARK    4  A    between atoms: C_15  and  C_16
REMARK    5  A    between atoms: C_16  and  N_17
REMARK    6  A    between atoms: C_18  and  C_20
REMARK                            x       y       z     vdW  Elec       q    Type
REMARK                         _______ _______ _______ _____ _____    ______ ____
ROOT
ATOM      1  C   UNL     1      51.659   2.695  17.764  0.00  0.00    +0.000 A 
ATOM      2  C   UNL     1      50.793   1.763  17.179  0.00  0.00    +0.000 A 
ATOM      3  C   UNL     1      49.445   2.076  16.963  0.00  0.00    +0.000 A 
ATOM      4  C   UNL     1      48.938   3.336  17.305  0.00  0.00    +0.000 A 
ATOM      5  C   UNL     1      49.800   4.264  17.905  0.00  0.00    +0.000 A 
ATOM      6  C   UNL     1      51.147   3.951  18.121  0.00  0.00    +0.000 A 
ENDROOT
BRANCH   1   7
ATOM      7  C   UNL     1      53.101   2.349  18.028  0.00  0.00    +0.000 C 
BRANCH   7  15
ATOM      8  C   UNL     1      54.904  -2.075  17.524  0.00  0.00    +0.000 A 
ATOM      9  C   UNL     1      54.696  -3.276  18.186  0.00  0.00    +0.000 A 
ATOM     10  C   UNL     1      54.117  -2.977  19.438  0.00  0.00    +0.000 A 
ATOM     11  C   UNL     1      53.949  -1.612  19.488  0.00  0.00    +0.000 A 
ATOM     12  N   UNL     1      54.420  -1.048  18.310  0.00  0.00    +0.000 N 
ATOM     13  C   UNL     1      54.451   0.323  17.997  0.00  0.00    +0.000 C 
ATOM     14  O   UNL     1      55.418   0.792  17.420  0.00  0.00    +0.000 OA
ATOM     15  N   UNL     1      53.282   0.952  18.355  0.00  0.00    +0.000 N 
ATOM     16  H   UNL     1      52.454   0.403  18.547  0.00  0.00    +0.000 HD
BRANCH   8  18
ATOM     17  N   UNL     1      55.775  -1.790  15.109  0.00  0.00    +0.000 NA
ATOM     18  C   UNL     1      55.428  -1.909  16.209  0.00  0.00    +0.000 C 
ENDBRANCH   8  18
ENDBRANCH   7  15
ENDBRANCH   1   7
BRANCH   4  19
ATOM     19  C   UNL     1      47.494   3.682  17.048  0.00  0.00    +0.000 C 
BRANCH  19  20
ATOM     20  N   UNL     1      47.333   4.660  16.004  0.00  0.00    +0.000 N 
ATOM     21  C   UNL     1      47.195   4.263  14.697  0.00  0.00    +0.000 C 
ATOM     22  O   UNL     1      47.346   3.089  14.359  0.00  0.00    +0.000 OA
ATOM     23  H   UNL     1      46.927   5.560  16.268  0.00  0.00    +0.000 HD
BRANCH  21  24
ATOM     24  C   UNL     1      46.912   5.306  13.703  0.00  0.00    +0.000 A 
ATOM     25  C   UNL     1      45.784   5.202  12.902  0.00  0.00    +0.000 A 
ATOM     26  S   UNL     1      45.600   6.496  11.809  0.00  0.00    +0.000 S 
ATOM     27  C   UNL     1      46.946   7.310  12.466  0.00  0.00    +0.000 A 
ATOM     28  N   UNL     1      47.237   8.577  12.071  0.00  0.00    +0.000 NA
ATOM     29  C   UNL     1      48.274   9.085  12.666  0.00  0.00    +0.000 A 
ATOM     30  N   UNL     1      49.060   8.410  13.576  0.00  0.00    +0.000 N 
ATOM     31  O   UNL     1      50.167   9.099  14.073  0.00  0.00    +0.000 OA
ATOM     32  C   UNL     1      48.812   7.109  14.019  0.00  0.00    +0.000 A 
ATOM     33  O   UNL     1      49.477   6.455  14.821  0.00  0.00    +0.000 OA
ATOM     34  C   UNL     1      47.607   6.542  13.412  0.00  0.00    +0.000 A 
ENDBRANCH  21  24
ENDBRANCH  19  20
ENDBRANCH   4  19
TORSDOF 6
ENDMDL
MODEL 8
REMARK VINA RESULT:    -6.018      3.333      9.752
REMARK INTER + INTRA:          -9.495
REMARK INTER:                  -8.660
REMARK INTRA:                  -0.835
REMARK UNBOUND:                -1.366
REMARK  Name = 
REMARK  6 active torsions:
REMARK  status: ('A' for Active; 'I' for Inactive)
REMARK    1  A    between atoms: C_2  and  C_3
REMARK    2  A    between atoms: N_10  and  C_11
REMARK    3  A    between atoms: C_11  and  C_12
REMARK    4  A    between atoms: C_15  and  C_16
REMARK    5  A    between atoms: C_16  and  N_17
REMARK    6  A    between atoms: C_18  and  C_20
REMARK                            x       y       z     vdW  Elec       q    Type
REMARK                         _______ _______ _______ _____ _____    ______ ____
ROOT
ATOM      1  C   UNL     1      51.110   4.382  18.959  0.00  0.00    +0.000 A 
ATOM      2  C   UNL     1      50.942   3.514  17.872  0.00  0.00    +0.000 A 
ATOM      3  C   UNL     1      49.682   3.333  17.289  0.00  0.00    +0.000 A 
ATOM      4  C   UNL     1      48.564   4.032  17.764  0.00  0.00    +0.000 A 
ATOM      5  C   UNL     1      48.728   4.887  18.862  0.00  0.00    +0.000 A 
ATOM      6  C   UNL     1      49.988   5.069  19.444  0.00  0.00    +0.000 A 
ENDROOT
BRANCH   1   7
ATOM      7  C   UNL     1      52.458   4.553  19.609  0.00  0.00    +0.000 C 
BRANCH   7  15
ATOM      8  C   UNL     1      53.700   8.904  17.997  0.00  0.00    +0.000 A 
ATOM      9  C   UNL     1      54.748   9.376  17.220  0.00  0.00    +0.000 A 
ATOM     10  C   UNL     1      55.775   8.408  17.260  0.00  0.00    +0.000 A 
ATOM     11  C   UNL     1      55.311   7.358  18.020  0.00  0.00    +0.000 A 
ATOM     12  N   UNL     1      54.029   7.650  18.470  0.00  0.00    +0.000 N 
ATOM     13  C   UNL     1      53.234   6.839  19.301  0.00  0.00    +0.000 C 
ATOM     14  O   UNL     1      52.568   7.348  20.186  0.00  0.00    +0.000 OA
ATOM     15  N   UNL     1      53.284   5.520  18.920  0.00  0.00    +0.000 N 
ATOM     16  H   UNL     1      53.629   5.273  18.001  0.00  0.00    +0.000 HD
BRANCH   8  18
ATOM     17  N   UNL     1      51.458  10.118  18.408  0.00  0.00    +0.000 NA
ATOM     18  C   UNL     1      52.441   9.539  18.200  0.00  0.00    +0.000 C 
ENDBRANCH   8  18
ENDBRANCH   7  15
ENDBRANCH   1   7
BRANCH   4  19
ATOM     19  C   UNL     1      47.213   3.856  17.119  0.00  0.00    +0.000 C 
BRANCH  19  20
ATOM     20  N   UNL     1      47.037   4.691  15.961  0.00  0.00    +0.000 N 
ATOM     21  C   UNL     1      47.151   4.161  14.699  0.00  0.00    +0.000 C 
ATOM     22  O   UNL     1      47.543   3.009  14.516  0.00  0.00    +0.000 OA
ATOM     23  H   UNL     1      46.453   5.522  16.070  0.00  0.00    +0.000 HD
BRANCH  21  24
ATOM     24  C   UNL     1      46.838   5.042  13.567  0.00  0.00    +0.000 A 
ATOM     25  C   UNL     1      47.488   6.262  13.448  0.00  0.00    +0.000 A 
ATOM     26  S   UNL     1      47.016   7.157  12.078  0.00  0.00    +0.000 S 
ATOM     27  C   UNL     1      46.030   5.882  11.521  0.00  0.00    +0.000 A 
ATOM     28  N   UNL     1      45.455   5.952  10.292  0.00  0.00    +0.000 NA
ATOM     29  C   UNL     1      44.750   4.905   9.985  0.00  0.00    +0.000 A 
ATOM     30  N   UNL     1      44.538   3.832  10.826  0.00  0.00    +0.000 N 
ATOM     31  O   UNL     1      43.706   2.821  10.346  0.00  0.00    +0.000 OA
ATOM     32  C   UNL     1      45.100   3.706  12.098  0.00  0.00    +0.000 A 
ATOM     33  O   UNL     1      44.945   2.781  12.894  0.00  0.00    +0.000 OA
ATOM     34  C   UNL     1      45.956   4.845  12.437  0.00  0.00    +0.000 A 
ENDBRANCH  21  24
ENDBRANCH  19  20
ENDBRANCH   4  19
TORSDOF 6
ENDMDL
MODEL 9
REMARK VINA RESULT:    -5.976      3.245      9.496
REMARK INTER + INTRA:          -9.438
REMARK INTER:                  -8.291
REMARK INTRA:                  -1.147
REMARK UNBOUND:                -1.366
REMARK  Name = 
REMARK  6 active torsions:
REMARK  status: ('A' for Active; 'I' for Inactive)
REMARK    1  A    between atoms: C_2  and  C_3
REMARK    2  A    between atoms: N_10  and  C_11
REMARK    3  A    between atoms: C_11  and  C_12
REMARK    4  A    between atoms: C_15  and  C_16
REMARK    5  A    between atoms: C_16  and  N_17
REMARK    6  A    between atoms: C_18  and  C_20
REMARK                            x       y       z     vdW  Elec       q    Type
REMARK                         _______ _______ _______ _____ _____    ______ ____
ROOT
ATOM      1  C   UNL     1      48.811   5.499  19.597  0.00  0.00    +0.000 A 
ATOM      2  C   UNL     1      49.765   4.828  18.821  0.00  0.00    +0.000 A 
ATOM      3  C   UNL     1      49.406   4.223  17.610  0.00  0.00    +0.000 A 
ATOM      4  C   UNL     1      48.090   4.295  17.136  0.00  0.00    +0.000 A 
ATOM      5  C   UNL     1      47.131   4.952  17.919  0.00  0.00    +0.000 A 
ATOM      6  C   UNL     1      47.490   5.557  19.129  0.00  0.00    +0.000 A 
ENDROOT
BRANCH   1   7
ATOM      7  C   UNL     1      49.188   6.121  20.916  0.00  0.00    +0.000 C 
BRANCH   7  15
ATOM      8  C   UNL     1      49.919  10.656  19.510  0.00  0.00    +0.000 A 
ATOM      9  C   UNL     1      51.007  11.515  19.571  0.00  0.00    +0.000 A 
ATOM     10  C   UNL     1      51.887  11.017  20.555  0.00  0.00    +0.000 A 
ATOM     11  C   UNL     1      51.337   9.850  21.035  0.00  0.00    +0.000 A 
ATOM     12  N   UNL     1      50.130   9.613  20.390  0.00  0.00    +0.000 N 
ATOM     13  C   UNL     1      49.255   8.538  20.629  0.00  0.00    +0.000 C 
ATOM     14  O   UNL     1      48.051   8.727  20.643  0.00  0.00    +0.000 OA
ATOM     15  N   UNL     1      49.934   7.349  20.754  0.00  0.00    +0.000 N 
ATOM     16  H   UNL     1      50.891   7.279  20.428  0.00  0.00    +0.000 HD
BRANCH   8  18
ATOM     17  N   UNL     1      47.856  10.830  17.965  0.00  0.00    +0.000 NA
ATOM     18  C   UNL     1      48.810  10.752  18.621  0.00  0.00    +0.000 C 
ENDBRANCH   8  18
ENDBRANCH   7  15
ENDBRANCH   1   7
BRANCH   4  19
ATOM     19  C   UNL     1      47.709   3.667  15.819  0.00  0.00    +0.000 C 
BRANCH  19  20
ATOM     20  N   UNL     1      46.777   4.467  15.070  0.00  0.00    +0.000 N 
ATOM     21  C   UNL     1      47.231   5.393  14.163  0.00  0.00    +0.000 C 
ATOM     22  O   UNL     1      48.426   5.670  14.065  0.00  0.00    +0.000 OA
ATOM     23  H   UNL     1      45.846   4.076  14.916  0.00  0.00    +0.000 HD
BRANCH  21  24
ATOM     24  C   UNL     1      46.225   6.085  13.347  0.00  0.00    +0.000 A 
ATOM     25  C   UNL     1      46.332   7.453  13.140  0.00  0.00    +0.000 A 
ATOM     26  S   UNL     1      45.092   8.097  12.167  0.00  0.00    +0.000 S 
ATOM     27  C   UNL     1      44.448   6.546  11.873  0.00  0.00    +0.000 A 
ATOM     28  N   UNL     1      43.446   6.384  10.968  0.00  0.00    +0.000 NA
ATOM     29  C   UNL     1      43.066   5.151  10.826  0.00  0.00    +0.000 A 
ATOM     30  N   UNL     1      43.570   4.089  11.549  0.00  0.00    +0.000 N 
ATOM     31  O   UNL     1      43.001   2.840  11.299  0.00  0.00    +0.000 OA
ATOM     32  C   UNL     1      44.596   4.195  12.490  0.00  0.00    +0.000 A 
ATOM     33  O   UNL     1      45.082   3.290  13.168  0.00  0.00    +0.000 OA
ATOM     34  C   UNL     1      45.088   5.568  12.617  0.00  0.00    +0.000 A 
ENDBRANCH  21  24
ENDBRANCH  19  20
ENDBRANCH   4  19
TORSDOF 6
ENDMDL
