MODEL 1
REMARK VINA RESULT:    -8.558      0.000      0.000
REMARK INTER + INTRA:         -12.560
REMARK INTER:                 -11.560
REMARK INTRA:                  -1.000
REMARK UNBOUND:                -1.000
REMARK  Name = 
REMARK  6 active torsions:
REMARK  status: ('A' for Active; 'I' for Inactive)
REMARK    1  A    between atoms: C_2  and  C_25
REMARK    2  A    between atoms: N_3  and  C_4
REMARK    3  A    between atoms: C_4  and  C_5
REMARK    4  A    between atoms: C_8  and  C_9
REMARK    5  A    between atoms: C_9  and  N_10
REMARK    6  A    between atoms: C_11  and  C_13
REMARK                            x       y       z     vdW  Elec       q    Type
REMARK                         _______ _______ _______ _____ _____    ______ ____
ROOT
ATOM      1  C   UNL     1      45.056   6.368  11.234  0.00  0.00    +0.000 A 
ATOM      2  C   UNL     1      44.645   7.625  11.673  0.00  0.00    +0.000 A 
ATOM      3  C   UNL     1      45.454   8.334  12.562  0.00  0.00    +0.000 A 
ATOM      4  C   UNL     1      46.668   7.788  12.981  0.00  0.00    +0.000 A 
ATOM      5  C   UNL     1      46.995   6.526  12.497  0.00  0.00    +0.000 A 
ATOM      6  N   UNL     1      46.228   5.812  11.637  0.00  0.00    +0.000 NA
ENDROOT
BRANCH   1   7
ATOM      7  C   UNL     1      44.189   5.562  10.290  0.00  0.00    +0.000 C 
BRANCH   7  10
ATOM      8  O   UNL     1      44.012   2.738   9.982  0.00  0.00    +0.000 OA
ATOM      9  C   UNL     1      44.793   3.378   9.285  0.00  0.00    +0.000 C 
ATOM     10  N   UNL     1      44.952   4.743   9.375  0.00  0.00    +0.000 N 
ATOM     11  H   UNL     1      45.570   5.183   8.701  0.00  0.00    +0.000 HD
BRANCH   9  12
ATOM     12  C   UNL     1      45.657   2.706   8.258  0.00  0.00    +0.000 A 
ATOM     13  C   UNL     1      46.037   3.405   7.118  0.00  0.00    +0.000 A 
ATOM     14  C   UNL     1      46.838   2.755   6.181  0.00  0.00    +0.000 A 
ATOM     15  C   UNL     1      47.224   1.440   6.415  0.00  0.00    +0.000 A 
ATOM     16  C   UNL     1      46.794   0.819   7.578  0.00  0.00    +0.000 A 
ATOM     17  N   UNL     1      46.019   1.416   8.510  0.00  0.00    +0.000 NA
ENDBRANCH   9  12
ENDBRANCH   7  10
ENDBRANCH   1   7
BRANCH   4  18
ATOM     18  C   UNL     1      47.570   8.501  13.947  0.00  0.00    +0.000 C 
BRANCH  18  19
ATOM     19  N   UNL     1      47.878   7.674  15.086  0.00  0.00    +0.000 N 
ATOM     20  C   UNL     1      49.083   7.025  15.200  0.00  0.00    +0.000 C 
ATOM     21  O   UNL     1      49.974   7.162  14.365  0.00  0.00    +0.000 OA
ATOM     22  H   UNL     1      47.099   7.372  15.663  0.00  0.00    +0.000 HD
BRANCH  20  23
ATOM     23  C   UNL     1      49.276   6.205  16.402  0.00  0.00    +0.000 A 
ATOM     24  C   UNL     1      50.279   6.530  17.305  0.00  0.00    +0.000 A 
ATOM     25  S   UNL     1      50.331   5.508  18.670  0.00  0.00    +0.000 S 
ATOM     26  C   UNL     1      49.049   4.561  18.077  0.00  0.00    +0.000 A 
ATOM     27  N   UNL     1      48.600   3.480  18.770  0.00  0.00    +0.000 NA
ATOM     28  C   UNL     1      47.642   2.835  18.191  0.00  0.00    +0.000 A 
ATOM     29  N   UNL     1      47.090   3.176  16.984  0.00  0.00    +0.000 N 
ATOM     30  C   UNL     1      47.493   4.274  16.263  0.00  0.00    +0.000 A 
ATOM     31  O   UNL     1      46.951   4.577  15.204  0.00  0.00    +0.000 OA
ATOM     32  C   UNL     1      48.575   5.029  16.865  0.00  0.00    +0.000 A 
ATOM     33  H   UNL     1      46.336   2.634  16.588  0.00  0.00    +0.000 HD
ENDBRANCH  20  23
ENDBRANCH  18  19
ENDBRANCH   4  18
TORSDOF 6
ENDMDL
MODEL 2
REMARK VINA RESULT:    -7.983      1.517      1.813
REMARK INTER + INTRA:         -11.783
REMARK INTER:                 -10.937
REMARK INTRA:                  -0.846
REMARK UNBOUND:                -1.000
REMARK  Name = 
REMARK  6 active torsions:
REMARK  status: ('A' for Active; 'I' for Inactive)
REMARK    1  A    between atoms: C_2  and  C_25
REMARK    2  A    between atoms: N_3  and  C_4
REMARK    3  A    between atoms: C_4  and  C_5
REMARK    4  A    between atoms: C_8  and  C_9
REMARK    5  A    between atoms: C_9  and  N_10
REMARK    6  A    between atoms: C_11  and  C_13
REMARK                            x       y       z     vdW  Elec       q    Type
REMARK                         _______ _______ _______ _____ _____    ______ ____
ROOT
ATOM      1  C   UNL     1      45.090   6.396  11.446  0.00  0.00    +0.000 A 
ATOM      2  C   UNL     1      46.296   5.949  11.983  0.00  0.00    +0.000 A 
ATOM      3  C   UNL     1      47.081   6.834  12.723  0.00  0.00    +0.000 A 
ATOM      4  C   UNL     1      46.642   8.142  12.934  0.00  0.00    +0.000 A 
ATOM      5  C   UNL     1      45.430   8.502  12.356  0.00  0.00    +0.000 A 
ATOM      6  N   UNL     1      44.647   7.668  11.629  0.00  0.00    +0.000 NA
ENDROOT
BRANCH   1   7
ATOM      7  C   UNL     1      44.227   5.469  10.617  0.00  0.00    +0.000 C 
BRANCH   7  10
ATOM      8  O   UNL     1      43.934   2.698  10.035  0.00  0.00    +0.000 OA
ATOM      9  C   UNL     1      44.764   3.364   9.423  0.00  0.00    +0.000 C 
ATOM     10  N   UNL     1      44.980   4.705   9.648  0.00  0.00    +0.000 N 
ATOM     11  H   UNL     1      45.638   5.176   9.035  0.00  0.00    +0.000 HD
BRANCH   9  12
ATOM     12  C   UNL     1      45.628   2.751   8.359  0.00  0.00    +0.000 A 
ATOM     13  C   UNL     1      45.994   3.509   7.253  0.00  0.00    +0.000 A 
ATOM     14  C   UNL     1      46.796   2.914   6.281  0.00  0.00    +0.000 A 
ATOM     15  C   UNL     1      47.195   1.593   6.447  0.00  0.00    +0.000 A 
ATOM     16  C   UNL     1      46.777   0.911   7.580  0.00  0.00    +0.000 A 
ATOM     17  N   UNL     1      46.003   1.454   8.545  0.00  0.00    +0.000 NA
ENDBRANCH   9  12
ENDBRANCH   7  10
ENDBRANCH   1   7
BRANCH   4  18
ATOM     18  C   UNL     1      47.454   9.139  13.710  0.00  0.00    +0.000 C 
BRANCH  18  19
ATOM     19  N   UNL     1      47.493   8.807  15.111  0.00  0.00    +0.000 N 
ATOM     20  C   UNL     1      48.626   8.305  15.702  0.00  0.00    +0.000 C 
ATOM     21  O   UNL     1      49.675   8.166  15.077  0.00  0.00    +0.000 OA
ATOM     22  H   UNL     1      46.601   8.701  15.586  0.00  0.00    +0.000 HD
BRANCH  20  23
ATOM     23  C   UNL     1      48.539   7.998  17.135  0.00  0.00    +0.000 A 
ATOM     24  C   UNL     1      48.372   9.026  18.052  0.00  0.00    +0.000 A 
ATOM     25  S   UNL     1      48.238   8.491  19.666  0.00  0.00    +0.000 S 
ATOM     26  C   UNL     1      48.451   6.869  19.203  0.00  0.00    +0.000 A 
ATOM     27  N   UNL     1      48.463   5.872  20.129  0.00  0.00    +0.000 NA
ATOM     28  C   UNL     1      48.663   4.692  19.643  0.00  0.00    +0.000 A 
ATOM     29  N   UNL     1      48.847   4.419  18.312  0.00  0.00    +0.000 N 
ATOM     30  C   UNL     1      48.815   5.388  17.339  0.00  0.00    +0.000 A 
ATOM     31  O   UNL     1      48.942   5.105  16.151  0.00  0.00    +0.000 OA
ATOM     32  C   UNL     1      48.603   6.735  17.834  0.00  0.00    +0.000 A 
ATOM     33  H   UNL     1      48.991   3.471  17.994  0.00  0.00    +0.000 HD
ENDBRANCH  20  23
ENDBRANCH  18  19
ENDBRANCH   4  18
TORSDOF 6
ENDMDL
MODEL 3
REMARK VINA RESULT:    -7.187      3.179      8.556
REMARK INTER + INTRA:         -10.708
REMARK INTER:                  -9.750
REMARK INTRA:                  -0.958
REMARK UNBOUND:                -1.000
REMARK  Name = 
REMARK  6 active torsions:
REMARK  status: ('A' for Active; 'I' for Inactive)
REMARK    1  A    between atoms: C_2  and  C_25
REMARK    2  A    between atoms: N_3  and  C_4
REMARK    3  A    between atoms: C_4  and  C_5
REMARK    4  A    between atoms: C_8  and  C_9
REMARK    5  A    between atoms: C_9  and  N_10
REMARK    6  A    between atoms: C_11  and  C_13
REMARK                            x       y       z     vdW  Elec       q    Type
REMARK                         _______ _______ _______ _____ _____    ______ ____
ROOT
ATOM      1  C   UNL     1      50.075   7.491  15.245  0.00  0.00    +0.000 A 
ATOM      2  C   UNL     1      50.554   8.024  14.050  0.00  0.00    +0.000 A 
ATOM      3  C   UNL     1      49.687   8.154  12.965  0.00  0.00    +0.000 A 
ATOM      4  C   UNL     1      48.351   7.770  13.096  0.00  0.00    +0.000 A 
ATOM      5  C   UNL     1      47.962   7.243  14.323  0.00  0.00    +0.000 A 
ATOM      6  N   UNL     1      48.782   7.101  15.392  0.00  0.00    +0.000 NA
ENDROOT
BRANCH   1   7
ATOM      7  C   UNL     1      50.998   7.314  16.432  0.00  0.00    +0.000 C 
BRANCH   7  10
ATOM      8  O   UNL     1      49.819   5.501  18.283  0.00  0.00    +0.000 OA
ATOM      9  C   UNL     1      50.744   5.126  17.570  0.00  0.00    +0.000 C 
ATOM     10  N   UNL     1      51.379   5.937  16.657  0.00  0.00    +0.000 N 
ATOM     11  H   UNL     1      52.083   5.507  16.065  0.00  0.00    +0.000 HD
BRANCH   9  12
ATOM     12  C   UNL     1      51.268   3.720  17.641  0.00  0.00    +0.000 A 
ATOM     13  C   UNL     1      52.502   3.479  18.232  0.00  0.00    +0.000 A 
ATOM     14  C   UNL     1      52.964   2.165  18.284  0.00  0.00    +0.000 A 
ATOM     15  C   UNL     1      52.181   1.150  17.744  0.00  0.00    +0.000 A 
ATOM     16  C   UNL     1      50.965   1.485  17.170  0.00  0.00    +0.000 A 
ATOM     17  N   UNL     1      50.482   2.745  17.103  0.00  0.00    +0.000 NA
ENDBRANCH   9  12
ENDBRANCH   7  10
ENDBRANCH   1   7
BRANCH   4  18
ATOM     18  C   UNL     1      47.378   7.874  11.957  0.00  0.00    +0.000 C 
BRANCH  18  19
ATOM     19  N   UNL     1      46.725   6.614  11.707  0.00  0.00    +0.000 N 
ATOM     20  C   UNL     1      45.359   6.519  11.599  0.00  0.00    +0.000 C 
ATOM     21  O   UNL     1      44.635   7.510  11.656  0.00  0.00    +0.000 OA
ATOM     22  H   UNL     1      47.266   5.771  11.877  0.00  0.00    +0.000 HD
BRANCH  20  23
ATOM     23  C   UNL     1      44.811   5.180  11.352  0.00  0.00    +0.000 A 
ATOM     24  C   UNL     1      44.059   4.549  12.333  0.00  0.00    +0.000 A 
ATOM     25  S   UNL     1      43.456   3.025  11.863  0.00  0.00    +0.000 S 
ATOM     26  C   UNL     1      44.224   3.128  10.349  0.00  0.00    +0.000 A 
ATOM     27  N   UNL     1      44.128   2.116   9.445  0.00  0.00    +0.000 NA
ATOM     28  C   UNL     1      44.783   2.314   8.349  0.00  0.00    +0.000 A 
ATOM     29  N   UNL     1      45.521   3.435   8.074  0.00  0.00    +0.000 N 
ATOM     30  C   UNL     1      45.624   4.493   8.944  0.00  0.00    +0.000 A 
ATOM     31  O   UNL     1      46.260   5.502   8.651  0.00  0.00    +0.000 OA
ATOM     32  C   UNL     1      44.914   4.317  10.196  0.00  0.00    +0.000 A 
ATOM     33  H   UNL     1      46.005   3.533   7.193  0.00  0.00    +0.000 HD
ENDBRANCH  20  23
ENDBRANCH  18  19
ENDBRANCH   4  18
TORSDOF 6
ENDMDL
MODEL 4
REMARK VINA RESULT:    -7.186      4.927      9.630
REMARK INTER + INTRA:         -10.706
REMARK INTER:                  -9.915
REMARK INTRA:                  -0.791
REMARK UNBOUND:                -1.000
REMARK  Name = 
REMARK  6 active torsions:
REMARK  status: ('A' for Active; 'I' for Inactive)
REMARK    1  A    between atoms: C_2  and  C_25
REMARK    2  A    between atoms: N_3  and  C_4
REMARK    3  A    between atoms: C_4  and  C_5
REMARK    4  A    between atoms: C_8  and  C_9
REMARK    5  A    between atoms: C_9  and  N_10
REMARK    6  A    between atoms: C_11  and  C_13
REMARK                            x       y       z     vdW  Elec       q    Type
REMARK                         _______ _______ _______ _____ _____    ______ ____
ROOT
ATOM      1  C   UNL     1      51.302   2.759  17.590  0.00  0.00    +0.000 A 
ATOM      2  C   UNL     1      50.697   3.907  18.097  0.00  0.00    +0.000 A 
ATOM      3  C   UNL     1      49.337   4.119  17.867  0.00  0.00    +0.000 A 
ATOM      4  C   UNL     1      48.598   3.171  17.156  0.00  0.00    +0.000 A 
ATOM      5  C   UNL     1      49.285   2.059  16.683  0.00  0.00    +0.000 A 
ATOM      6  N   UNL     1      50.606   1.828  16.886  0.00  0.00    +0.000 NA
ENDROOT
BRANCH   1   7
ATOM      7  C   UNL     1      52.781   2.513  17.799  0.00  0.00    +0.000 C 
BRANCH   7  10
ATOM      8  O   UNL     1      54.935   0.952  16.785  0.00  0.00    +0.000 OA
ATOM      9  C   UNL     1      54.162   0.463  17.604  0.00  0.00    +0.000 C 
ATOM     10  N   UNL     1      53.089   1.141  18.137  0.00  0.00    +0.000 N 
ATOM     11  H   UNL     1      52.556   0.670  18.862  0.00  0.00    +0.000 HD
BRANCH   9  12
ATOM     12  C   UNL     1      54.331  -0.945  18.097  0.00  0.00    +0.000 A 
ATOM     13  C   UNL     1      55.039  -1.860  17.327  0.00  0.00    +0.000 A 
ATOM     14  C   UNL     1      55.180  -3.160  17.808  0.00  0.00    +0.000 A 
ATOM     15  C   UNL     1      54.609  -3.495  19.031  0.00  0.00    +0.000 A 
ATOM     16  C   UNL     1      53.916  -2.518  19.729  0.00  0.00    +0.000 A 
ATOM     17  N   UNL     1      53.760  -1.247  19.297  0.00  0.00    +0.000 NA
ENDBRANCH   9  12
ENDBRANCH   7  10
ENDBRANCH   1   7
BRANCH   4  18
ATOM     18  C   UNL     1      47.136   3.355  16.869  0.00  0.00    +0.000 C 
BRANCH  18  19
ATOM     19  N   UNL     1      46.918   4.407  15.908  0.00  0.00    +0.000 N 
ATOM     20  C   UNL     1      46.997   4.176  14.557  0.00  0.00    +0.000 C 
ATOM     21  O   UNL     1      47.203   3.053  14.102  0.00  0.00    +0.000 OA
ATOM     22  H   UNL     1      46.969   5.362  16.248  0.00  0.00    +0.000 HD
BRANCH  20  23
ATOM     23  C   UNL     1      46.763   5.329  13.678  0.00  0.00    +0.000 A 
ATOM     24  C   UNL     1      47.788   6.234  13.439  0.00  0.00    +0.000 A 
ATOM     25  S   UNL     1      47.363   7.482  12.357  0.00  0.00    +0.000 S 
ATOM     26  C   UNL     1      45.776   6.888  12.210  0.00  0.00    +0.000 A 
ATOM     27  N   UNL     1      44.860   7.523  11.430  0.00  0.00    +0.000 NA
ATOM     28  C   UNL     1      43.688   6.981  11.433  0.00  0.00    +0.000 A 
ATOM     29  N   UNL     1      43.349   5.859  12.143  0.00  0.00    +0.000 N 
ATOM     30  C   UNL     1      44.247   5.169  12.922  0.00  0.00    +0.000 A 
ATOM     31  O   UNL     1      43.923   4.144  13.513  0.00  0.00    +0.000 OA
ATOM     32  C   UNL     1      45.578   5.743  12.961  0.00  0.00    +0.000 A 
ATOM     33  H   UNL     1      42.415   5.479  12.096  0.00  0.00    +0.000 HD
ENDBRANCH  20  23
ENDBRANCH  18  19
ENDBRANCH   4  18
TORSDOF 6
ENDMDL
MODEL 5
REMARK VINA RESULT:    -7.163      2.152      3.067
REMARK INTER + INTRA:         -10.675
REMARK INTER:                  -9.879
REMARK INTRA:                  -0.796
REMARK UNBOUND:                -1.000
REMARK  Name = 
REMARK  6 active torsions:
REMARK  status: ('A' for Active; 'I' for Inactive)
REMARK    1  A    between atoms: C_2  and  C_25
REMARK    2  A    between atoms: N_3  and  C_4
REMARK    3  A    between atoms: C_4  and  C_5
REMARK    4  A    between atoms: C_8  and  C_9
REMARK    5  A    between atoms: C_9  and  N_10
REMARK    6  A    between atoms: C_11  and  C_13
REMARK                            x       y       z     vdW  Elec       q    Type
REMARK                         _______ _______ _______ _____ _____    ______ ____
ROOT
ATOM      1  C   UNL     1      44.507   5.954  11.296  0.00  0.00    +0.000 A 
ATOM      2  C   UNL     1      45.124   5.383  12.407  0.00  0.00    +0.000 A 
ATOM      3  C   UNL     1      45.897   6.187  13.245  0.00  0.00    +0.000 A 
ATOM      4  C   UNL     1      46.024   7.551  12.974  0.00  0.00    +0.000 A 
ATOM      5  C   UNL     1      45.378   8.033  11.841  0.00  0.00    +0.000 A 
ATOM      6  N   UNL     1      44.624   7.276  11.006  0.00  0.00    +0.000 NA
ENDROOT
BRANCH   1   7
ATOM      7  C   UNL     1      43.683   5.103  10.353  0.00  0.00    +0.000 C 
BRANCH   7  10
ATOM      8  O   UNL     1      44.885   2.527  10.506  0.00  0.00    +0.000 OA
ATOM      9  C   UNL     1      45.012   3.198   9.486  0.00  0.00    +0.000 C 
ATOM     10  N   UNL     1      44.474   4.456   9.330  0.00  0.00    +0.000 N 
ATOM     11  H   UNL     1      44.575   4.893   8.420  0.00  0.00    +0.000 HD
BRANCH   9  12
ATOM     12  C   UNL     1      45.781   2.685   8.303  0.00  0.00    +0.000 A 
ATOM     13  C   UNL     1      46.008   3.524   7.218  0.00  0.00    +0.000 A 
ATOM     14  C   UNL     1      46.724   3.022   6.133  0.00  0.00    +0.000 A 
ATOM     15  C   UNL     1      47.180   1.709   6.171  0.00  0.00    +0.000 A 
ATOM     16  C   UNL     1      46.902   0.943   7.293  0.00  0.00    +0.000 A 
ATOM     17  N   UNL     1      46.214   1.394   8.365  0.00  0.00    +0.000 NA
ENDBRANCH   9  12
ENDBRANCH   7  10
ENDBRANCH   1   7
BRANCH   4  18
ATOM     18  C   UNL     1      46.854   8.459  13.834  0.00  0.00    +0.000 C 
BRANCH  18  19
ATOM     19  N   UNL     1      47.893   7.730  14.517  0.00  0.00    +0.000 N 
ATOM     20  C   UNL     1      48.538   8.251  15.612  0.00  0.00    +0.000 C 
ATOM     21  O   UNL     1      48.224   9.336  16.093  0.00  0.00    +0.000 OA
ATOM     22  H   UNL     1      48.316   6.953  14.019  0.00  0.00    +0.000 HD
BRANCH  20  23
ATOM     23  C   UNL     1      49.584   7.416  16.216  0.00  0.00    +0.000 A 
ATOM     24  C   UNL     1      49.282   6.612  17.306  0.00  0.00    +0.000 A 
ATOM     25  S   UNL     1      50.596   5.670  17.849  0.00  0.00    +0.000 S 
ATOM     26  C   UNL     1      51.632   6.343  16.680  0.00  0.00    +0.000 A 
ATOM     27  N   UNL     1      52.940   5.976  16.610  0.00  0.00    +0.000 NA
ATOM     28  C   UNL     1      53.618   6.586  15.695  0.00  0.00    +0.000 A 
ATOM     29  N   UNL     1      53.104   7.526  14.840  0.00  0.00    +0.000 N 
ATOM     30  C   UNL     1      51.784   7.907  14.856  0.00  0.00    +0.000 A 
ATOM     31  O   UNL     1      51.345   8.722  14.050  0.00  0.00    +0.000 OA
ATOM     32  C   UNL     1      50.980   7.258  15.874  0.00  0.00    +0.000 A 
ATOM     33  H   UNL     1      53.686   7.961  14.139  0.00  0.00    +0.000 HD
ENDBRANCH  20  23
ENDBRANCH  18  19
ENDBRANCH   4  18
TORSDOF 6
ENDMDL
MODEL 6
REMARK VINA RESULT:    -7.033      3.632      5.085
REMARK INTER + INTRA:         -10.500
REMARK INTER:                  -9.326
REMARK INTRA:                  -1.175
REMARK UNBOUND:                -1.000
REMARK  Name = 
REMARK  6 active torsions:
REMARK  status: ('A' for Active; 'I' for Inactive)
REMARK    1  A    between atoms: C_2  and  C_25
REMARK    2  A    between atoms: N_3  and  C_4
REMARK    3  A    between atoms: C_4  and  C_5
REMARK    4  A    between atoms: C_8  and  C_9
REMARK    5  A    between atoms: C_9  and  N_10
REMARK    6  A    between atoms: C_11  and  C_13
REMARK                            x       y       z     vdW  Elec       q    Type
REMARK                         _______ _______ _______ _____ _____    ______ ____
ROOT
ATOM      1  C   UNL     1      45.307   6.489  11.760  0.00  0.00    +0.000 A 
ATOM      2  C   UNL     1      46.389   5.888  12.401  0.00  0.00    +0.000 A 
ATOM      3  C   UNL     1      47.226   6.666  13.201  0.00  0.00    +0.000 A 
ATOM      4  C   UNL     1      46.957   8.026  13.368  0.00  0.00    +0.000 A 
ATOM      5  C   UNL     1      45.860   8.542  12.687  0.00  0.00    +0.000 A 
ATOM      6  N   UNL     1      45.033   7.812  11.900  0.00  0.00    +0.000 NA
ENDROOT
BRANCH   1   7
ATOM      7  C   UNL     1      44.396   5.678  10.865  0.00  0.00    +0.000 C 
BRANCH   7  10
ATOM      8  O   UNL     1      43.838   3.031   9.978  0.00  0.00    +0.000 OA
ATOM      9  C   UNL     1      44.761   3.660   9.470  0.00  0.00    +0.000 C 
ATOM     10  N   UNL     1      45.108   4.939   9.846  0.00  0.00    +0.000 N 
ATOM     11  H   UNL     1      45.841   5.396   9.312  0.00  0.00    +0.000 HD
BRANCH   9  12
ATOM     12  C   UNL     1      45.605   3.069   8.378  0.00  0.00    +0.000 A 
ATOM     13  C   UNL     1      46.020   1.746   8.474  0.00  0.00    +0.000 A 
ATOM     14  C   UNL     1      46.803   1.224   7.446  0.00  0.00    +0.000 A 
ATOM     15  C   UNL     1      47.141   2.039   6.370  0.00  0.00    +0.000 A 
ATOM     16  C   UNL     1      46.686   3.348   6.362  0.00  0.00    +0.000 A 
ATOM     17  N   UNL     1      45.923   3.890   7.337  0.00  0.00    +0.000 NA
ENDBRANCH   9  12
ENDBRANCH   7  10
ENDBRANCH   1   7
BRANCH   4  18
ATOM     18  C   UNL     1      47.833   8.912  14.206  0.00  0.00    +0.000 C 
BRANCH  18  19
ATOM     19  N   UNL     1      49.183   8.944  13.703  0.00  0.00    +0.000 N 
ATOM     20  C   UNL     1      49.652  10.002  12.964  0.00  0.00    +0.000 C 
ATOM     21  O   UNL     1      48.962  10.995  12.744  0.00  0.00    +0.000 OA
ATOM     22  H   UNL     1      49.688   8.063  13.678  0.00  0.00    +0.000 HD
BRANCH  20  23
ATOM     23  C   UNL     1      51.042   9.915  12.501  0.00  0.00    +0.000 A 
ATOM     24  C   UNL     1      51.945  10.915  12.834  0.00  0.00    +0.000 A 
ATOM     25  S   UNL     1      53.526  10.631  12.261  0.00  0.00    +0.000 S 
ATOM     26  C   UNL     1      53.050   9.186  11.501  0.00  0.00    +0.000 A 
ATOM     27  N   UNL     1      53.942   8.440  10.795  0.00  0.00    +0.000 NA
ATOM     28  C   UNL     1      53.439   7.384  10.247  0.00  0.00    +0.000 A 
ATOM     29  N   UNL     1      52.126   7.005  10.345  0.00  0.00    +0.000 N 
ATOM     30  C   UNL     1      51.196   7.711  11.070  0.00  0.00    +0.000 A 
ATOM     31  O   UNL     1      50.036   7.323  11.172  0.00  0.00    +0.000 OA
ATOM     32  C   UNL     1      51.708   8.914  11.698  0.00  0.00    +0.000 A 
ATOM     33  H   UNL     1      51.796   6.161   9.899  0.00  0.00    +0.000 HD
ENDBRANCH  20  23
ENDBRANCH  18  19
ENDBRANCH   4  18
TORSDOF 6
ENDMDL
MODEL 7
REMARK VINA RESULT:    -6.905      4.968      9.719
REMARK INTER + INTRA:         -10.327
REMARK INTER:                  -9.249
REMARK INTRA:                  -1.078
REMARK UNBOUND:                -1.000
REMARK  Name = 
REMARK  6 active torsions:
REMARK  status: ('A' for Active; 'I' for Inactive)
REMARK    1  A    between atoms: C_2  and  C_25
REMARK    2  A    between atoms: N_3  and  C_4
REMARK    3  A    between atoms: C_4  and  C_5
REMARK    4  A    between atoms: C_8  and  C_9
REMARK    5  A    between atoms: C_9  and  N_10
REMARK    6  A    between atoms: C_11  and  C_13
REMARK                            x       y       z     vdW  Elec       q    Type
REMARK                         _______ _______ _______ _____ _____    ______ ____
ROOT
ATOM      1  C   UNL     1      51.342   2.615  17.569  0.00  0.00    +0.000 A 
ATOM      2  C   UNL     1      50.853   3.828  18.049  0.00  0.00    +0.000 A 
ATOM      3  C   UNL     1      49.519   4.164  17.819  0.00  0.00    +0.000 A 
ATOM      4  C   UNL     1      48.689   3.276  17.132  0.00  0.00    +0.000 A 
ATOM      5  C   UNL     1      49.263   2.092  16.684  0.00  0.00    +0.000 A 
ATOM      6  N   UNL     1      50.556   1.740  16.889  0.00  0.00    +0.000 NA
ENDROOT
BRANCH   1   7
ATOM      7  C   UNL     1      52.791   2.232  17.780  0.00  0.00    +0.000 C 
BRANCH   7  10
ATOM      8  O   UNL     1      54.993   0.517  17.222  0.00  0.00    +0.000 OA
ATOM      9  C   UNL     1      54.069   0.112  17.921  0.00  0.00    +0.000 C 
ATOM     10  N   UNL     1      52.961   0.869  18.231  0.00  0.00    +0.000 N 
ATOM     11  H   UNL     1      52.290   0.465  18.876  0.00  0.00    +0.000 HD
BRANCH   9  12
ATOM     12  C   UNL     1      54.075  -1.272  18.502  0.00  0.00    +0.000 A 
ATOM     13  C   UNL     1      55.128  -2.132  18.214  0.00  0.00    +0.000 A 
ATOM     14  C   UNL     1      55.107  -3.411  18.766  0.00  0.00    +0.000 A 
ATOM     15  C   UNL     1      54.039  -3.781  19.577  0.00  0.00    +0.000 A 
ATOM     16  C   UNL     1      53.029  -2.860  19.805  0.00  0.00    +0.000 A 
ATOM     17  N   UNL     1      53.016  -1.610  19.291  0.00  0.00    +0.000 NA
ENDBRANCH   9  12
ENDBRANCH   7  10
ENDBRANCH   1   7
BRANCH   4  18
ATOM     18  C   UNL     1      47.250   3.594  16.844  0.00  0.00    +0.000 C 
BRANCH  18  19
ATOM     19  N   UNL     1      47.130   4.604  15.824  0.00  0.00    +0.000 N 
ATOM     20  C   UNL     1      47.130   4.283  14.488  0.00  0.00    +0.000 C 
ATOM     21  O   UNL     1      47.177   3.118  14.102  0.00  0.00    +0.000 OA
ATOM     22  H   UNL     1      47.311   5.565  16.100  0.00  0.00    +0.000 HD
BRANCH  20  23
ATOM     23  C   UNL     1      47.009   5.401  13.544  0.00  0.00    +0.000 A 
ATOM     24  C   UNL     1      45.996   5.397  12.595  0.00  0.00    +0.000 A 
ATOM     25  S   UNL     1      45.968   6.793  11.615  0.00  0.00    +0.000 S 
ATOM     26  C   UNL     1      47.342   7.430  12.389  0.00  0.00    +0.000 A 
ATOM     27  N   UNL     1      47.871   8.623  12.005  0.00  0.00    +0.000 NA
ATOM     28  C   UNL     1      48.929   8.973  12.657  0.00  0.00    +0.000 A 
ATOM     29  N   UNL     1      49.504   8.239  13.662  0.00  0.00    +0.000 N 
ATOM     30  C   UNL     1      48.990   7.043  14.101  0.00  0.00    +0.000 A 
ATOM     31  O   UNL     1      49.505   6.429  15.031  0.00  0.00    +0.000 OA
ATOM     32  C   UNL     1      47.804   6.599  13.393  0.00  0.00    +0.000 A 
ATOM     33  H   UNL     1      50.329   8.572  14.140  0.00  0.00    +0.000 HD
ENDBRANCH  20  23
ENDBRANCH  18  19
ENDBRANCH   4  18
TORSDOF 6
ENDMDL
MODEL 8
REMARK VINA RESULT:    -6.717      1.863      2.209
REMARK INTER + INTRA:         -10.074
REMARK INTER:                  -9.272
REMARK INTRA:                  -0.801
REMARK UNBOUND:                -1.000
REMARK  Name = 
REMARK  6 active torsions:
REMARK  status: ('A' for Active; 'I' for Inactive)
REMARK    1  A    between atoms: C_2  and  C_25
REMARK    2  A    between atoms: N_3  and  C_4
REMARK    3  A    between atoms: C_4  and  C_5
REMARK    4  A    between atoms: C_8  and  C_9
REMARK    5  A    between atoms: C_9  and  N_10
REMARK    6  A    between atoms: C_11  and  C_13
REMARK                            x       y       z     vdW  Elec       q    Type
REMARK                         _______ _______ _______ _____ _____    ______ ____
ROOT
ATOM      1  C   UNL     1      45.149   5.615  11.436  0.00  0.00    +0.000 A 
ATOM      2  C   UNL     1      45.357   5.064  12.699  0.00  0.00    +0.000 A 
ATOM      3  C   UNL     1      46.178   5.734  13.607  0.00  0.00    +0.000 A 
ATOM      4  C   UNL     1      46.759   6.951  13.250  0.00  0.00    +0.000 A 
ATOM      5  C   UNL     1      46.501   7.423  11.967  0.00  0.00    +0.000 A 
ATOM      6  N   UNL     1      45.713   6.793  11.062  0.00  0.00    +0.000 NA
ENDROOT
BRANCH   1   7
ATOM      7  C   UNL     1      44.285   4.900  10.419  0.00  0.00    +0.000 C 
BRANCH   7  10
ATOM      8  O   UNL     1      44.946   2.184   9.882  0.00  0.00    +0.000 OA
ATOM      9  C   UNL     1      45.299   3.062   9.100  0.00  0.00    +0.000 C 
ATOM     10  N   UNL     1      45.033   4.400   9.287  0.00  0.00    +0.000 N 
ATOM     11  H   UNL     1      45.305   5.035   8.543  0.00  0.00    +0.000 HD
BRANCH   9  12
ATOM     12  C   UNL     1      46.067   2.736   7.852  0.00  0.00    +0.000 A 
ATOM     13  C   UNL     1      46.717   1.512   7.747  0.00  0.00    +0.000 A 
ATOM     14  C   UNL     1      47.423   1.236   6.578  0.00  0.00    +0.000 A 
ATOM     15  C   UNL     1      47.456   2.189   5.566  0.00  0.00    +0.000 A 
ATOM     16  C   UNL     1      46.783   3.386   5.760  0.00  0.00    +0.000 A 
ATOM     17  N   UNL     1      46.085   3.688   6.877  0.00  0.00    +0.000 NA
ENDBRANCH   9  12
ENDBRANCH   7  10
ENDBRANCH   1   7
BRANCH   4  18
ATOM     18  C   UNL     1      47.662   7.706  14.183  0.00  0.00    +0.000 C 
BRANCH  18  19
ATOM     19  N   UNL     1      48.232   6.836  15.180  0.00  0.00    +0.000 N 
ATOM     20  C   UNL     1      48.994   7.326  16.212  0.00  0.00    +0.000 C 
ATOM     21  O   UNL     1      49.180   8.530  16.365  0.00  0.00    +0.000 OA
ATOM     22  H   UNL     1      48.281   5.847  14.956  0.00  0.00    +0.000 HD
BRANCH  20  23
ATOM     23  C   UNL     1      49.526   6.339  17.160  0.00  0.00    +0.000 A 
ATOM     24  C   UNL     1      50.591   5.530  16.790  0.00  0.00    +0.000 A 
ATOM     25  S   UNL     1      51.117   4.480  18.026  0.00  0.00    +0.000 S 
ATOM     26  C   UNL     1      49.906   5.030  19.085  0.00  0.00    +0.000 A 
ATOM     27  N   UNL     1      49.781   4.511  20.336  0.00  0.00    +0.000 NA
ATOM     28  C   UNL     1      48.802   5.000  21.022  0.00  0.00    +0.000 A 
ATOM     29  N   UNL     1      47.939   5.965  20.571  0.00  0.00    +0.000 N 
ATOM     30  C   UNL     1      48.044   6.538  19.327  0.00  0.00    +0.000 A 
ATOM     31  O   UNL     1      47.280   7.429  18.967  0.00  0.00    +0.000 OA
ATOM     32  C   UNL     1      49.123   6.016  18.510  0.00  0.00    +0.000 A 
ATOM     33  H   UNL     1      47.197   6.312  21.161  0.00  0.00    +0.000 HD
ENDBRANCH  20  23
ENDBRANCH  18  19
ENDBRANCH   4  18
TORSDOF 6
ENDMDL
MODEL 9
REMARK VINA RESULT:    -6.576      3.521      8.421
REMARK INTER + INTRA:          -9.883
REMARK INTER:                  -9.074
REMARK INTRA:                  -0.809
REMARK UNBOUND:                -1.000
REMARK  Name = 
REMARK  6 active torsions:
REMARK  status: ('A' for Active; 'I' for Inactive)
REMARK    1  A    between atoms: C_2  and  C_25
REMARK    2  A    between atoms: N_3  and  C_4
REMARK    3  A    between atoms: C_4  and  C_5
REMARK    4  A    between atoms: C_8  and  C_9
REMARK    5  A    between atoms: C_9  and  N_10
REMARK    6  A    between atoms: C_11  and  C_13
REMARK                            x       y       z     vdW  Elec       q    Type
REMARK                         _______ _______ _______ _____ _____    ______ ____
ROOT
ATOM      1  C   UNL     1      49.349   7.102  16.105  0.00  0.00    +0.000 A 
ATOM      2  C   UNL     1      49.465   8.427  15.691  0.00  0.00    +0.000 A 
ATOM      3  C   UNL     1      49.018   8.784  14.418  0.00  0.00    +0.000 A 
ATOM      4  C   UNL     1      48.444   7.819  13.589  0.00  0.00    +0.000 A 
ATOM      5  C   UNL     1      48.375   6.521  14.083  0.00  0.00    +0.000 A 
ATOM      6  N   UNL     1      48.804   6.143  15.312  0.00  0.00    +0.000 NA
ENDROOT
BRANCH   1   7
ATOM      7  C   UNL     1      49.848   6.677  17.470  0.00  0.00    +0.000 C 
BRANCH   7  10
ATOM      8  O   UNL     1      49.942   4.655  19.471  0.00  0.00    +0.000 OA
ATOM      9  C   UNL     1      50.611   4.531  18.450  0.00  0.00    +0.000 C 
ATOM     10  N   UNL     1      50.635   5.465  17.438  0.00  0.00    +0.000 N 
ATOM     11  H   UNL     1      51.165   5.231  16.604  0.00  0.00    +0.000 HD
BRANCH   9  12
ATOM     12  C   UNL     1      51.478   3.326  18.222  0.00  0.00    +0.000 A 
ATOM     13  C   UNL     1      52.780   3.318  18.706  0.00  0.00    +0.000 A 
ATOM     14  C   UNL     1      53.562   2.187  18.480  0.00  0.00    +0.000 A 
ATOM     15  C   UNL     1      53.017   1.116  17.780  0.00  0.00    +0.000 A 
ATOM     16  C   UNL     1      51.710   1.215  17.329  0.00  0.00    +0.000 A 
ATOM     17  N   UNL     1      50.920   2.292  17.531  0.00  0.00    +0.000 NA
ENDBRANCH   9  12
ENDBRANCH   7  10
ENDBRANCH   1   7
BRANCH   4  18
ATOM     18  C   UNL     1      47.960   8.146  12.205  0.00  0.00    +0.000 C 
BRANCH  18  19
ATOM     19  N   UNL     1      47.341   7.004  11.582  0.00  0.00    +0.000 N 
ATOM     20  C   UNL     1      45.983   6.936  11.391  0.00  0.00    +0.000 C 
ATOM     21  O   UNL     1      45.239   7.867  11.691  0.00  0.00    +0.000 OA
ATOM     22  H   UNL     1      47.889   6.151  11.532  0.00  0.00    +0.000 HD
BRANCH  20  23
ATOM     23  C   UNL     1      45.469   5.718  10.753  0.00  0.00    +0.000 A 
ATOM     24  C   UNL     1      45.676   5.510   9.396  0.00  0.00    +0.000 A 
ATOM     25  S   UNL     1      45.062   4.023   8.829  0.00  0.00    +0.000 S 
ATOM     26  C   UNL     1      44.450   3.627  10.365  0.00  0.00    +0.000 A 
ATOM     27  N   UNL     1      43.773   2.465  10.570  0.00  0.00    +0.000 NA
ATOM     28  C   UNL     1      43.340   2.305  11.777  0.00  0.00    +0.000 A 
ATOM     29  N   UNL     1      43.527   3.201  12.797  0.00  0.00    +0.000 N 
ATOM     30  C   UNL     1      44.227   4.372  12.644  0.00  0.00    +0.000 A 
ATOM     31  O   UNL     1      44.412   5.135  13.588  0.00  0.00    +0.000 OA
ATOM     32  C   UNL     1      44.727   4.606  11.302  0.00  0.00    +0.000 A 
ATOM     33  H   UNL     1      43.169   3.013  13.723  0.00  0.00    +0.000 HD
ENDBRANCH  20  23
ENDBRANCH  18  19
ENDBRANCH   4  18
TORSDOF 6
ENDMDL
