MODEL 1
REMARK VINA RESULT:    -8.462      0.000      0.000
REMARK INTER + INTRA:         -12.066
REMARK INTER:                 -11.430
REMARK INTRA:                  -0.637
REMARK UNBOUND:                -0.637
REMARK  Name = 
REMARK  7 active torsions:
REMARK  status: ('A' for Active; 'I' for Inactive)
REMARK    1  A    between atoms: C_1  and  C_2
REMARK    2  A    between atoms: C_2  and  N_3
REMARK    3  A    between atoms: C_2  and  C_16
REMARK    4  A    between atoms: C_4  and  C_6
REMARK    5  A    between atoms: C_19  and  O_20
REMARK    6  A    between atoms: O_20  and  C_21
REMARK    7  A    between atoms: C_21  and  C_22
REMARK                            x       y       z     vdW  Elec       q    Type
REMARK                         _______ _______ _______ _____ _____    ______ ____
ROOT
ATOM      1  C   UNL     1      48.013   8.993  12.320  0.00  0.00    +0.000 C 
ATOM      2  C   UNL     1      46.917   8.329  13.160  0.00  0.00    +0.000 C 
ENDROOT
BRANCH   2   3
ATOM      3  C   UNL     1      46.184   7.225  12.416  0.00  0.00    +0.000 A 
ATOM      4  C   UNL     1      46.536   6.960  11.084  0.00  0.00    +0.000 A 
ATOM      5  C   UNL     1      46.016   5.850  10.414  0.00  0.00    +0.000 A 
ATOM      6  C   UNL     1      45.129   4.992  11.063  0.00  0.00    +0.000 A 
ATOM      7  C   UNL     1      44.675   5.316  12.339  0.00  0.00    +0.000 A 
ATOM      8  C   UNL     1      45.191   6.430  13.008  0.00  0.00    +0.000 A 
BRANCH   6   9
ATOM      9  O   UNL     1      44.636   3.830  10.528  0.00  0.00    +0.000 OA
BRANCH   9  10
ATOM     10  C   UNL     1      44.394   3.896   9.117  0.00  0.00    +0.000 C 
BRANCH  10  11
ATOM     11  C   UNL     1      45.410   3.072   8.362  0.00  0.00    +0.000 A 
ATOM     12  C   UNL     1      46.145   3.627   7.314  0.00  0.00    +0.000 A 
ATOM     13  C   UNL     1      47.040   2.817   6.620  0.00  0.00    +0.000 A 
ATOM     14  C   UNL     1      47.180   1.484   6.987  0.00  0.00    +0.000 A 
ATOM     15  C   UNL     1      46.412   1.009   8.036  0.00  0.00    +0.000 A 
ATOM     16  N   UNL     1      45.531   1.768   8.721  0.00  0.00    +0.000 NA
ENDBRANCH  10  11
ENDBRANCH   9  10
ENDBRANCH   6   9
ENDBRANCH   2   3
BRANCH   2  17
ATOM     17  N   UNL     1      47.462   7.823  14.399  0.00  0.00    +0.000 N 
ATOM     18  C   UNL     1      48.363   6.792  14.445  0.00  0.00    +0.000 C 
ATOM     19  O   UNL     1      48.904   6.338  13.443  0.00  0.00    +0.000 OA
ATOM     20  H   UNL     1      46.924   8.044  15.231  0.00  0.00    +0.000 HD
BRANCH  18  21
ATOM     21  C   UNL     1      48.676   6.277  15.784  0.00  0.00    +0.000 A 
ATOM     22  C   UNL     1      49.551   6.962  16.614  0.00  0.00    +0.000 A 
ATOM     23  S   UNL     1      49.780   6.210  18.129  0.00  0.00    +0.000 S 
ATOM     24  C   UNL     1      48.768   4.909  17.701  0.00  0.00    +0.000 A 
ATOM     25  N   UNL     1      48.569   3.866  18.549  0.00  0.00    +0.000 NA
ATOM     26  C   UNL     1      47.811   2.933  18.077  0.00  0.00    +0.000 A 
ATOM     27  N   UNL     1      47.222   2.955  16.837  0.00  0.00    +0.000 N 
ATOM     28  C   UNL     1      47.350   4.011  15.970  0.00  0.00    +0.000 A 
ATOM     29  O   UNL     1      46.736   4.039  14.909  0.00  0.00    +0.000 OA
ATOM     30  C   UNL     1      48.226   5.069  16.437  0.00  0.00    +0.000 A 
ATOM     31  H   UNL     1      46.617   2.205  16.539  0.00  0.00    +0.000 HD
ENDBRANCH  18  21
ENDBRANCH   2  17
TORSDOF 6
ENDMDL
MODEL 2
REMARK VINA RESULT:    -8.036      2.304      2.809
REMARK INTER + INTRA:         -11.492
REMARK INTER:                 -10.432
REMARK INTRA:                  -1.060
REMARK UNBOUND:                -0.637
REMARK  Name = 
REMARK  7 active torsions:
REMARK  status: ('A' for Active; 'I' for Inactive)
REMARK    1  A    between atoms: C_1  and  C_2
REMARK    2  A    between atoms: C_2  and  N_3
REMARK    3  A    between atoms: C_2  and  C_16
REMARK    4  A    between atoms: C_4  and  C_6
REMARK    5  A    between atoms: C_19  and  O_20
REMARK    6  A    between atoms: O_20  and  C_21
REMARK    7  A    between atoms: C_21  and  C_22
REMARK                            x       y       z     vdW  Elec       q    Type
REMARK                         _______ _______ _______ _____ _____    ______ ____
ROOT
ATOM      1  C   UNL     1      48.599   8.235  14.410  0.00  0.00    +0.000 C 
ATOM      2  C   UNL     1      48.041   6.922  14.969  0.00  0.00    +0.000 C 
ENDROOT
BRANCH   2   3
ATOM      3  C   UNL     1      47.293   6.103  13.929  0.00  0.00    +0.000 A 
ATOM      4  C   UNL     1      47.008   4.758  14.208  0.00  0.00    +0.000 A 
ATOM      5  C   UNL     1      46.179   4.013  13.366  0.00  0.00    +0.000 A 
ATOM      6  C   UNL     1      45.628   4.599  12.228  0.00  0.00    +0.000 A 
ATOM      7  C   UNL     1      46.006   5.893  11.875  0.00  0.00    +0.000 A 
ATOM      8  C   UNL     1      46.839   6.637  12.714  0.00  0.00    +0.000 A 
BRANCH   6   9
ATOM      9  O   UNL     1      44.732   3.986  11.391  0.00  0.00    +0.000 OA
BRANCH   9  10
ATOM     10  C   UNL     1      44.639   4.592  10.095  0.00  0.00    +0.000 C 
BRANCH  10  11
ATOM     11  C   UNL     1      45.352   3.752   9.061  0.00  0.00    +0.000 A 
ATOM     12  C   UNL     1      45.385   2.362   9.167  0.00  0.00    +0.000 A 
ATOM     13  C   UNL     1      46.089   1.633   8.212  0.00  0.00    +0.000 A 
ATOM     14  C   UNL     1      46.737   2.303   7.182  0.00  0.00    +0.000 A 
ATOM     15  C   UNL     1      46.658   3.685   7.149  0.00  0.00    +0.000 A 
ATOM     16  N   UNL     1      45.990   4.419   8.064  0.00  0.00    +0.000 NA
ENDBRANCH  10  11
ENDBRANCH   9  10
ENDBRANCH   6   9
ENDBRANCH   2   3
BRANCH   2  17
ATOM     17  N   UNL     1      49.095   6.133  15.565  0.00  0.00    +0.000 N 
ATOM     18  C   UNL     1      49.064   5.723  16.872  0.00  0.00    +0.000 C 
ATOM     19  O   UNL     1      48.070   5.842  17.581  0.00  0.00    +0.000 OA
ATOM     20  H   UNL     1      49.986   6.165  15.081  0.00  0.00    +0.000 HD
BRANCH  18  21
ATOM     21  C   UNL     1      50.291   5.092  17.373  0.00  0.00    +0.000 A 
ATOM     22  C   UNL     1      51.320   5.866  17.889  0.00  0.00    +0.000 A 
ATOM     23  S   UNL     1      52.656   4.950  18.426  0.00  0.00    +0.000 S 
ATOM     24  C   UNL     1      51.931   3.492  17.925  0.00  0.00    +0.000 A 
ATOM     25  N   UNL     1      52.581   2.305  18.052  0.00  0.00    +0.000 NA
ATOM     26  C   UNL     1      51.927   1.289  17.594  0.00  0.00    +0.000 A 
ATOM     27  N   UNL     1      50.677   1.351  17.033  0.00  0.00    +0.000 N 
ATOM     28  C   UNL     1      49.960   2.517  16.934  0.00  0.00    +0.000 A 
ATOM     29  O   UNL     1      48.809   2.522  16.513  0.00  0.00    +0.000 OA
ATOM     30  C   UNL     1      50.667   3.697  17.398  0.00  0.00    +0.000 A 
ATOM     31  H   UNL     1      50.208   0.514  16.719  0.00  0.00    +0.000 HD
ENDBRANCH  18  21
ENDBRANCH   2  17
TORSDOF 6
ENDMDL
MODEL 3
REMARK VINA RESULT:    -7.855      2.626      3.629
REMARK INTER + INTRA:         -11.247
REMARK INTER:                  -9.994
REMARK INTRA:                  -1.253
REMARK UNBOUND:                -0.637
REMARK  Name = 
REMARK  7 active torsions:
REMARK  status: ('A' for Active; 'I' for Inactive)
REMARK    1  A    between atoms: C_1  and  C_2
REMARK    2  A    between atoms: C_2  and  N_3
REMARK    3  A    between atoms: C_2  and  C_16
REMARK    4  A    between atoms: C_4  and  C_6
REMARK    5  A    between atoms: C_19  and  O_20
REMARK    6  A    between atoms: O_20  and  C_21
REMARK    7  A    between atoms: C_21  and  C_22
REMARK                            x       y       z     vdW  Elec       q    Type
REMARK                         _______ _______ _______ _____ _____    ______ ____
ROOT
ATOM      1  C   UNL     1      47.149   3.986  16.343  0.00  0.00    +0.000 C 
ATOM      2  C   UNL     1      47.777   4.839  15.237  0.00  0.00    +0.000 C 
ENDROOT
BRANCH   2   3
ATOM      3  C   UNL     1      47.041   4.729  13.911  0.00  0.00    +0.000 A 
ATOM      4  C   UNL     1      46.445   3.506  13.570  0.00  0.00    +0.000 A 
ATOM      5  C   UNL     1      45.618   3.401  12.450  0.00  0.00    +0.000 A 
ATOM      6  C   UNL     1      45.378   4.517  11.649  0.00  0.00    +0.000 A 
ATOM      7  C   UNL     1      46.065   5.701  11.905  0.00  0.00    +0.000 A 
ATOM      8  C   UNL     1      46.898   5.805  13.022  0.00  0.00    +0.000 A 
BRANCH   6   9
ATOM      9  O   UNL     1      44.512   4.543  10.586  0.00  0.00    +0.000 OA
BRANCH   9  10
ATOM     10  C   UNL     1      44.230   3.251  10.035  0.00  0.00    +0.000 C 
BRANCH  10  11
ATOM     11  C   UNL     1      45.201   2.919   8.926  0.00  0.00    +0.000 A 
ATOM     12  C   UNL     1      45.553   3.875   7.974  0.00  0.00    +0.000 A 
ATOM     13  C   UNL     1      46.420   3.512   6.946  0.00  0.00    +0.000 A 
ATOM     14  C   UNL     1      46.910   2.213   6.895  0.00  0.00    +0.000 A 
ATOM     15  C   UNL     1      46.509   1.322   7.876  0.00  0.00    +0.000 A 
ATOM     16  N   UNL     1      45.666   1.644   8.879  0.00  0.00    +0.000 NA
ENDBRANCH  10  11
ENDBRANCH   9  10
ENDBRANCH   6   9
ENDBRANCH   2   3
BRANCH   2  17
ATOM     17  N   UNL     1      47.865   6.222  15.649  0.00  0.00    +0.000 N 
ATOM     18  C   UNL     1      49.050   6.816  15.999  0.00  0.00    +0.000 C 
ATOM     19  O   UNL     1      50.138   6.278  15.825  0.00  0.00    +0.000 OA
ATOM     20  H   UNL     1      46.995   6.635  15.967  0.00  0.00    +0.000 HD
BRANCH  18  21
ATOM     21  C   UNL     1      48.943   8.165  16.569  0.00  0.00    +0.000 A 
ATOM     22  C   UNL     1      49.490   9.253  15.905  0.00  0.00    +0.000 A 
ATOM     23  S   UNL     1      49.257  10.734  16.721  0.00  0.00    +0.000 S 
ATOM     24  C   UNL     1      48.475   9.960  18.021  0.00  0.00    +0.000 A 
ATOM     25  N   UNL     1      48.055  10.662  19.106  0.00  0.00    +0.000 NA
ATOM     26  C   UNL     1      47.516   9.941  20.032  0.00  0.00    +0.000 A 
ATOM     27  N   UNL     1      47.346   8.581  19.965  0.00  0.00    +0.000 N 
ATOM     28  C   UNL     1      47.704   7.838  18.868  0.00  0.00    +0.000 A 
ATOM     29  O   UNL     1      47.453   6.640  18.803  0.00  0.00    +0.000 OA
ATOM     30  C   UNL     1      48.352   8.596  17.815  0.00  0.00    +0.000 A 
ATOM     31  H   UNL     1      46.891   8.079  20.712  0.00  0.00    +0.000 HD
ENDBRANCH  18  21
ENDBRANCH   2  17
TORSDOF 6
ENDMDL
MODEL 4
REMARK VINA RESULT:    -7.760      2.393      3.800
REMARK INTER + INTRA:         -11.119
REMARK INTER:                 -10.014
REMARK INTRA:                  -1.105
REMARK UNBOUND:                -0.637
REMARK  Name = 
REMARK  7 active torsions:
REMARK  status: ('A' for Active; 'I' for Inactive)
REMARK    1  A    between atoms: C_1  and  C_2
REMARK    2  A    between atoms: C_2  and  N_3
REMARK    3  A    between atoms: C_2  and  C_16
REMARK    4  A    between atoms: C_4  and  C_6
REMARK    5  A    between atoms: C_19  and  O_20
REMARK    6  A    between atoms: O_20  and  C_21
REMARK    7  A    between atoms: C_21  and  C_22
REMARK                            x       y       z     vdW  Elec       q    Type
REMARK                         _______ _______ _______ _____ _____    ______ ____
ROOT
ATOM      1  C   UNL     1      47.147   4.471  15.550  0.00  0.00    +0.000 C 
ATOM      2  C   UNL     1      47.469   5.112  14.196  0.00  0.00    +0.000 C 
ENDROOT
BRANCH   2   3
ATOM      3  C   UNL     1      46.435   4.794  13.128  0.00  0.00    +0.000 A 
ATOM      4  C   UNL     1      46.120   5.780  12.180  0.00  0.00    +0.000 A 
ATOM      5  C   UNL     1      45.310   5.484  11.082  0.00  0.00    +0.000 A 
ATOM      6  C   UNL     1      44.795   4.199  10.917  0.00  0.00    +0.000 A 
ATOM      7  C   UNL     1      44.996   3.250  11.917  0.00  0.00    +0.000 A 
ATOM      8  C   UNL     1      45.803   3.547  13.019  0.00  0.00    +0.000 A 
BRANCH   6   9
ATOM      9  O   UNL     1      44.069   3.782   9.831  0.00  0.00    +0.000 OA
BRANCH   9  10
ATOM     10  C   UNL     1      44.609   4.208   8.574  0.00  0.00    +0.000 C 
BRANCH  10  11
ATOM     11  C   UNL     1      45.638   3.221   8.073  0.00  0.00    +0.000 A 
ATOM     12  C   UNL     1      46.655   3.624   7.208  0.00  0.00    +0.000 A 
ATOM     13  C   UNL     1      47.555   2.671   6.740  0.00  0.00    +0.000 A 
ATOM     14  C   UNL     1      47.421   1.349   7.146  0.00  0.00    +0.000 A 
ATOM     15  C   UNL     1      46.384   1.029   8.004  0.00  0.00    +0.000 A 
ATOM     16  N   UNL     1      45.492   1.929   8.468  0.00  0.00    +0.000 NA
ENDBRANCH  10  11
ENDBRANCH   9  10
ENDBRANCH   6   9
ENDBRANCH   2   3
BRANCH   2  17
ATOM     17  N   UNL     1      47.625   6.542  14.334  0.00  0.00    +0.000 N 
ATOM     18  C   UNL     1      48.682   7.226  13.792  0.00  0.00    +0.000 C 
ATOM     19  O   UNL     1      49.475   6.712  13.010  0.00  0.00    +0.000 OA
ATOM     20  H   UNL     1      47.106   6.963  15.097  0.00  0.00    +0.000 HD
BRANCH  18  21
ATOM     21  C   UNL     1      48.793   8.638  14.178  0.00  0.00    +0.000 A 
ATOM     22  C   UNL     1      48.868   9.628  13.208  0.00  0.00    +0.000 A 
ATOM     23  S   UNL     1      48.984  11.204  13.853  0.00  0.00    +0.000 S 
ATOM     24  C   UNL     1      49.004  10.610  15.450  0.00  0.00    +0.000 A 
ATOM     25  N   UNL     1      49.141  11.451  16.509  0.00  0.00    +0.000 NA
ATOM     26  C   UNL     1      49.180  10.859  17.657  0.00  0.00    +0.000 A 
ATOM     27  N   UNL     1      49.083   9.503  17.842  0.00  0.00    +0.000 N 
ATOM     28  C   UNL     1      48.889   8.621  16.808  0.00  0.00    +0.000 A 
ATOM     29  O   UNL     1      48.713   7.427  17.017  0.00  0.00    +0.000 OA
ATOM     30  C   UNL     1      48.878   9.232  15.492  0.00  0.00    +0.000 A 
ATOM     31  H   UNL     1      49.093   9.105  18.769  0.00  0.00    +0.000 HD
ENDBRANCH  18  21
ENDBRANCH   2  17
TORSDOF 6
ENDMDL
MODEL 5
REMARK VINA RESULT:    -7.224      3.772      8.060
REMARK INTER + INTRA:         -10.394
REMARK INTER:                  -9.391
REMARK INTRA:                  -1.003
REMARK UNBOUND:                -0.637
REMARK  Name = 
REMARK  7 active torsions:
REMARK  status: ('A' for Active; 'I' for Inactive)
REMARK    1  A    between atoms: C_1  and  C_2
REMARK    2  A    between atoms: C_2  and  N_3
REMARK    3  A    between atoms: C_2  and  C_16
REMARK    4  A    between atoms: C_4  and  C_6
REMARK    5  A    between atoms: C_19  and  O_20
REMARK    6  A    between atoms: O_20  and  C_21
REMARK    7  A    between atoms: C_21  and  C_22
REMARK                            x       y       z     vdW  Elec       q    Type
REMARK                         _______ _______ _______ _____ _____    ______ ____
ROOT
ATOM      1  C   UNL     1      48.429   8.901  15.844  0.00  0.00    +0.000 C 
ATOM      2  C   UNL     1      48.692   7.552  15.167  0.00  0.00    +0.000 C 
ENDROOT
BRANCH   2   3
ATOM      3  C   UNL     1      49.179   6.486  16.135  0.00  0.00    +0.000 A 
ATOM      4  C   UNL     1      48.282   5.488  16.546  0.00  0.00    +0.000 A 
ATOM      5  C   UNL     1      48.723   4.394  17.295  0.00  0.00    +0.000 A 
ATOM      6  C   UNL     1      50.066   4.284  17.651  0.00  0.00    +0.000 A 
ATOM      7  C   UNL     1      50.937   5.331  17.359  0.00  0.00    +0.000 A 
ATOM      8  C   UNL     1      50.496   6.428  16.614  0.00  0.00    +0.000 A 
BRANCH   6   9
ATOM      9  O   UNL     1      50.615   3.210  18.302  0.00  0.00    +0.000 OA
BRANCH   9  10
ATOM     10  C   UNL     1      51.012   2.144  17.430  0.00  0.00    +0.000 C 
BRANCH  10  11
ATOM     11  C   UNL     1      52.412   1.679  17.759  0.00  0.00    +0.000 A 
ATOM     12  C   UNL     1      53.480   2.575  17.771  0.00  0.00    +0.000 A 
ATOM     13  C   UNL     1      54.758   2.093  18.039  0.00  0.00    +0.000 A 
ATOM     14  C   UNL     1      54.938   0.738  18.288  0.00  0.00    +0.000 A 
ATOM     15  C   UNL     1      53.827  -0.087  18.256  0.00  0.00    +0.000 A 
ATOM     16  N   UNL     1      52.578   0.350  17.991  0.00  0.00    +0.000 NA
ENDBRANCH  10  11
ENDBRANCH   9  10
ENDBRANCH   6   9
ENDBRANCH   2   3
BRANCH   2  17
ATOM     17  N   UNL     1      47.513   7.094  14.468  0.00  0.00    +0.000 N 
ATOM     18  C   UNL     1      47.575   6.396  13.290  0.00  0.00    +0.000 C 
ATOM     19  O   UNL     1      48.625   5.959  12.832  0.00  0.00    +0.000 OA
ATOM     20  H   UNL     1      46.652   7.573  14.711  0.00  0.00    +0.000 HD
BRANCH  18  21
ATOM     21  C   UNL     1      46.291   6.167  12.616  0.00  0.00    +0.000 A 
ATOM     22  C   UNL     1      45.599   7.225  12.044  0.00  0.00    +0.000 A 
ATOM     23  S   UNL     1      44.135   6.757  11.302  0.00  0.00    +0.000 S 
ATOM     24  C   UNL     1      44.345   5.135  11.779  0.00  0.00    +0.000 A 
ATOM     25  N   UNL     1      43.405   4.194  11.501  0.00  0.00    +0.000 NA
ATOM     26  C   UNL     1      43.678   3.017  11.956  0.00  0.00    +0.000 A 
ATOM     27  N   UNL     1      44.814   2.692  12.655  0.00  0.00    +0.000 N 
ATOM     28  C   UNL     1      45.815   3.595  12.911  0.00  0.00    +0.000 A 
ATOM     29  O   UNL     1      46.858   3.250  13.456  0.00  0.00    +0.000 OA
ATOM     30  C   UNL     1      45.538   4.944  12.454  0.00  0.00    +0.000 A 
ATOM     31  H   UNL     1      44.981   1.746  12.960  0.00  0.00    +0.000 HD
ENDBRANCH  18  21
ENDBRANCH   2  17
TORSDOF 6
ENDMDL
MODEL 6
REMARK VINA RESULT:    -7.088      2.548      3.388
REMARK INTER + INTRA:         -10.211
REMARK INTER:                  -9.225
REMARK INTRA:                  -0.985
REMARK UNBOUND:                -0.637
REMARK  Name = 
REMARK  7 active torsions:
REMARK  status: ('A' for Active; 'I' for Inactive)
REMARK    1  A    between atoms: C_1  and  C_2
REMARK    2  A    between atoms: C_2  and  N_3
REMARK    3  A    between atoms: C_2  and  C_16
REMARK    4  A    between atoms: C_4  and  C_6
REMARK    5  A    between atoms: C_19  and  O_20
REMARK    6  A    between atoms: O_20  and  C_21
REMARK    7  A    between atoms: C_21  and  C_22
REMARK                            x       y       z     vdW  Elec       q    Type
REMARK                         _______ _______ _______ _____ _____    ______ ____
ROOT
ATOM      1  C   UNL     1      48.533   7.936  13.740  0.00  0.00    +0.000 C 
ATOM      2  C   UNL     1      47.767   6.777  14.386  0.00  0.00    +0.000 C 
ENDROOT
BRANCH   2   3
ATOM      3  C   UNL     1      46.964   5.963  13.385  0.00  0.00    +0.000 A 
ATOM      4  C   UNL     1      46.633   4.638  13.704  0.00  0.00    +0.000 A 
ATOM      5  C   UNL     1      45.756   3.906  12.901  0.00  0.00    +0.000 A 
ATOM      6  C   UNL     1      45.202   4.485  11.760  0.00  0.00    +0.000 A 
ATOM      7  C   UNL     1      45.622   5.752  11.365  0.00  0.00    +0.000 A 
ATOM      8  C   UNL     1      46.504   6.484  12.166  0.00  0.00    +0.000 A 
BRANCH   6   9
ATOM      9  O   UNL     1      44.264   3.887  10.959  0.00  0.00    +0.000 OA
BRANCH   9  10
ATOM     10  C   UNL     1      44.253   4.377   9.612  0.00  0.00    +0.000 C 
BRANCH  10  11
ATOM     11  C   UNL     1      45.171   3.555   8.738  0.00  0.00    +0.000 A 
ATOM     12  C   UNL     1      45.311   2.182   8.939  0.00  0.00    +0.000 A 
ATOM     13  C   UNL     1      46.200   1.473   8.135  0.00  0.00    +0.000 A 
ATOM     14  C   UNL     1      46.921   2.147   7.156  0.00  0.00    +0.000 A 
ATOM     15  C   UNL     1      46.726   3.510   7.022  0.00  0.00    +0.000 A 
ATOM     16  N   UNL     1      45.878   4.225   7.790  0.00  0.00    +0.000 NA
ENDBRANCH  10  11
ENDBRANCH   9  10
ENDBRANCH   6   9
ENDBRANCH   2   3
BRANCH   2  17
ATOM     17  N   UNL     1      48.668   5.920  15.123  0.00  0.00    +0.000 N 
ATOM     18  C   UNL     1      48.975   6.128  16.442  0.00  0.00    +0.000 C 
ATOM     19  O   UNL     1      48.382   6.943  17.141  0.00  0.00    +0.000 OA
ATOM     20  H   UNL     1      49.295   5.360  14.554  0.00  0.00    +0.000 HD
BRANCH  18  21
ATOM     21  C   UNL     1      50.043   5.282  16.990  0.00  0.00    +0.000 A 
ATOM     22  C   UNL     1      49.738   4.084  17.619  0.00  0.00    +0.000 A 
ATOM     23  S   UNL     1      51.113   3.243  18.181  0.00  0.00    +0.000 S 
ATOM     24  C   UNL     1      52.156   4.484  17.660  0.00  0.00    +0.000 A 
ATOM     25  N   UNL     1      53.495   4.416  17.884  0.00  0.00    +0.000 NA
ATOM     26  C   UNL     1      54.157   5.445  17.471  0.00  0.00    +0.000 A 
ATOM     27  N   UNL     1      53.603   6.532  16.842  0.00  0.00    +0.000 N 
ATOM     28  C   UNL     1      52.266   6.620  16.546  0.00  0.00    +0.000 A 
ATOM     29  O   UNL     1      51.819   7.561  15.900  0.00  0.00    +0.000 OA
ATOM     30  C   UNL     1      51.470   5.506  17.025  0.00  0.00    +0.000 A 
ATOM     31  H   UNL     1      54.181   7.292  16.518  0.00  0.00    +0.000 HD
ENDBRANCH  18  21
ENDBRANCH   2  17
TORSDOF 6
ENDMDL
MODEL 7
REMARK VINA RESULT:    -7.030      3.218      4.451
REMARK INTER + INTRA:         -10.132
REMARK INTER:                  -9.181
REMARK INTRA:                  -0.952
REMARK UNBOUND:                -0.637
REMARK  Name = 
REMARK  7 active torsions:
REMARK  status: ('A' for Active; 'I' for Inactive)
REMARK    1  A    between atoms: C_1  and  C_2
REMARK    2  A    between atoms: C_2  and  N_3
REMARK    3  A    between atoms: C_2  and  C_16
REMARK    4  A    between atoms: C_4  and  C_6
REMARK    5  A    between atoms: C_19  and  O_20
REMARK    6  A    between atoms: O_20  and  C_21
REMARK    7  A    between atoms: C_21  and  C_22
REMARK                            x       y       z     vdW  Elec       q    Type
REMARK                         _______ _______ _______ _____ _____    ______ ____
ROOT
ATOM      1  C   UNL     1      48.708   7.432  17.678  0.00  0.00    +0.000 C 
ATOM      2  C   UNL     1      48.619   6.021  17.088  0.00  0.00    +0.000 C 
ENDROOT
BRANCH   2   3
ATOM      3  C   UNL     1      48.274   6.015  15.608  0.00  0.00    +0.000 A 
ATOM      4  C   UNL     1      47.470   4.981  15.106  0.00  0.00    +0.000 A 
ATOM      5  C   UNL     1      46.986   5.022  13.797  0.00  0.00    +0.000 A 
ATOM      6  C   UNL     1      47.304   6.094  12.965  0.00  0.00    +0.000 A 
ATOM      7  C   UNL     1      48.204   7.060  13.411  0.00  0.00    +0.000 A 
ATOM      8  C   UNL     1      48.693   7.017  14.719  0.00  0.00    +0.000 A 
BRANCH   6   9
ATOM      9  O   UNL     1      46.807   6.276  11.701  0.00  0.00    +0.000 OA
BRANCH   9  10
ATOM     10  C   UNL     1      45.409   5.982  11.579  0.00  0.00    +0.000 C 
BRANCH  10  11
ATOM     11  C   UNL     1      45.180   4.893  10.556  0.00  0.00    +0.000 A 
ATOM     12  C   UNL     1      45.654   5.025   9.251  0.00  0.00    +0.000 A 
ATOM     13  C   UNL     1      45.382   4.014   8.333  0.00  0.00    +0.000 A 
ATOM     14  C   UNL     1      44.652   2.904   8.737  0.00  0.00    +0.000 A 
ATOM     15  C   UNL     1      44.216   2.849  10.049  0.00  0.00    +0.000 A 
ATOM     16  N   UNL     1      44.456   3.816  10.959  0.00  0.00    +0.000 NA
ENDBRANCH  10  11
ENDBRANCH   9  10
ENDBRANCH   6   9
ENDBRANCH   2   3
BRANCH   2  17
ATOM     17  N   UNL     1      49.846   5.294  17.321  0.00  0.00    +0.000 N 
ATOM     18  C   UNL     1      49.990   4.391  18.342  0.00  0.00    +0.000 C 
ATOM     19  O   UNL     1      49.046   4.005  19.024  0.00  0.00    +0.000 OA
ATOM     20  H   UNL     1      50.677   5.702  16.905  0.00  0.00    +0.000 HD
BRANCH  18  21
ATOM     21  C   UNL     1      51.349   3.879  18.554  0.00  0.00    +0.000 A 
ATOM     22  C   UNL     1      52.286   4.636  19.242  0.00  0.00    +0.000 A 
ATOM     23  S   UNL     1      53.803   3.867  19.392  0.00  0.00    +0.000 S 
ATOM     24  C   UNL     1      53.277   2.525  18.484  0.00  0.00    +0.000 A 
ATOM     25  N   UNL     1      54.121   1.501  18.192  0.00  0.00    +0.000 NA
ATOM     26  C   UNL     1      53.598   0.571  17.463  0.00  0.00    +0.000 A 
ATOM     27  N   UNL     1      52.302   0.567  17.012  0.00  0.00    +0.000 N 
ATOM     28  C   UNL     1      51.399   1.551  17.327  0.00  0.00    +0.000 A 
ATOM     29  O   UNL     1      50.225   1.469  16.985  0.00  0.00    +0.000 OA
ATOM     30  C   UNL     1      51.948   2.641  18.111  0.00  0.00    +0.000 A 
ATOM     31  H   UNL     1      51.946  -0.205  16.468  0.00  0.00    +0.000 HD
ENDBRANCH  18  21
ENDBRANCH   2  17
TORSDOF 6
ENDMDL
MODEL 8
REMARK VINA RESULT:    -6.799      4.306      7.132
REMARK INTER + INTRA:          -9.820
REMARK INTER:                  -8.783
REMARK INTRA:                  -1.037
REMARK UNBOUND:                -0.637
REMARK  Name = 
REMARK  7 active torsions:
REMARK  status: ('A' for Active; 'I' for Inactive)
REMARK    1  A    between atoms: C_1  and  C_2
REMARK    2  A    between atoms: C_2  and  N_3
REMARK    3  A    between atoms: C_2  and  C_16
REMARK    4  A    between atoms: C_4  and  C_6
REMARK    5  A    between atoms: C_19  and  O_20
REMARK    6  A    between atoms: O_20  and  C_21
REMARK    7  A    between atoms: C_21  and  C_22
REMARK                            x       y       z     vdW  Elec       q    Type
REMARK                         _______ _______ _______ _____ _____    ______ ____
ROOT
ATOM      1  C   UNL     1      46.858   8.856  13.792  0.00  0.00    +0.000 C 
ATOM      2  C   UNL     1      46.992   8.495  12.309  0.00  0.00    +0.000 C 
ENDROOT
BRANCH   2   3
ATOM      3  C   UNL     1      48.423   8.574  11.804  0.00  0.00    +0.000 A 
ATOM      4  C   UNL     1      48.948   9.829  11.459  0.00  0.00    +0.000 A 
ATOM      5  C   UNL     1      50.303   9.978  11.155  0.00  0.00    +0.000 A 
ATOM      6  C   UNL     1      51.154   8.875  11.182  0.00  0.00    +0.000 A 
ATOM      7  C   UNL     1      50.619   7.606  11.398  0.00  0.00    +0.000 A 
ATOM      8  C   UNL     1      49.263   7.455  11.697  0.00  0.00    +0.000 A 
BRANCH   6   9
ATOM      9  O   UNL     1      52.510   8.929  10.991  0.00  0.00    +0.000 OA
BRANCH   9  10
ATOM     10  C   UNL     1      52.898   9.087   9.620  0.00  0.00    +0.000 C 
BRANCH  10  11
ATOM     11  C   UNL     1      53.136   7.741   8.975  0.00  0.00    +0.000 A 
ATOM     12  C   UNL     1      53.757   6.710   9.679  0.00  0.00    +0.000 A 
ATOM     13  C   UNL     1      53.992   5.501   9.029  0.00  0.00    +0.000 A 
ATOM     14  C   UNL     1      53.604   5.352   7.704  0.00  0.00    +0.000 A 
ATOM     15  C   UNL     1      52.996   6.424   7.075  0.00  0.00    +0.000 A 
ATOM     16  N   UNL     1      52.761   7.610   7.676  0.00  0.00    +0.000 NA
ENDBRANCH  10  11
ENDBRANCH   9  10
ENDBRANCH   6   9
ENDBRANCH   2   3
BRANCH   2  17
ATOM     17  N   UNL     1      46.442   7.183  12.053  0.00  0.00    +0.000 N 
ATOM     18  C   UNL     1      45.179   6.994  11.557  0.00  0.00    +0.000 C 
ATOM     19  O   UNL     1      44.488   7.914  11.131  0.00  0.00    +0.000 OA
ATOM     20  H   UNL     1      46.897   6.420  12.543  0.00  0.00    +0.000 HD
BRANCH  18  21
ATOM     21  C   UNL     1      44.705   5.605  11.529  0.00  0.00    +0.000 A 
ATOM     22  C   UNL     1      44.042   5.066  12.623  0.00  0.00    +0.000 A 
ATOM     23  S   UNL     1      43.564   3.443  12.395  0.00  0.00    +0.000 S 
ATOM     24  C   UNL     1      44.286   3.386  10.854  0.00  0.00    +0.000 A 
ATOM     25  N   UNL     1      44.284   2.243  10.120  0.00  0.00    +0.000 NA
ATOM     26  C   UNL     1      44.902   2.334   8.989  0.00  0.00    +0.000 A 
ATOM     27  N   UNL     1      45.511   3.471   8.520  0.00  0.00    +0.000 N 
ATOM     28  C   UNL     1      45.492   4.663   9.201  0.00  0.00    +0.000 A 
ATOM     29  O   UNL     1      45.965   5.681   8.711  0.00  0.00    +0.000 OA
ATOM     30  C   UNL     1      44.844   4.603  10.498  0.00  0.00    +0.000 A 
ATOM     31  H   UNL     1      45.954   3.484   7.614  0.00  0.00    +0.000 HD
ENDBRANCH  18  21
ENDBRANCH   2  17
TORSDOF 6
ENDMDL
MODEL 9
REMARK VINA RESULT:    -6.636      3.340      7.302
REMARK INTER + INTRA:          -9.600
REMARK INTER:                  -8.595
REMARK INTRA:                  -1.005
REMARK UNBOUND:                -0.637
REMARK  Name = 
REMARK  7 active torsions:
REMARK  status: ('A' for Active; 'I' for Inactive)
REMARK    1  A    between atoms: C_1  and  C_2
REMARK    2  A    between atoms: C_2  and  N_3
REMARK    3  A    between atoms: C_2  and  C_16
REMARK    4  A    between atoms: C_4  and  C_6
REMARK    5  A    between atoms: C_19  and  O_20
REMARK    6  A    between atoms: O_20  and  C_21
REMARK    7  A    between atoms: C_21  and  C_22
REMARK                            x       y       z     vdW  Elec       q    Type
REMARK                         _______ _______ _______ _____ _____    ______ ____
ROOT
ATOM      1  C   UNL     1      49.022  10.218  13.727  0.00  0.00    +0.000 C 
ATOM      2  C   UNL     1      49.109   8.691  13.816  0.00  0.00    +0.000 C 
ENDROOT
BRANCH   2   3
ATOM      3  C   UNL     1      49.534   8.198  15.190  0.00  0.00    +0.000 A 
ATOM      4  C   UNL     1      48.633   8.319  16.258  0.00  0.00    +0.000 A 
ATOM      5  C   UNL     1      48.906   7.731  17.495  0.00  0.00    +0.000 A 
ATOM      6  C   UNL     1      50.088   7.017  17.685  0.00  0.00    +0.000 A 
ATOM      7  C   UNL     1      51.045   6.998  16.673  0.00  0.00    +0.000 A 
ATOM      8  C   UNL     1      50.775   7.592  15.437  0.00  0.00    +0.000 A 
BRANCH   6   9
ATOM      9  O   UNL     1      50.408   6.326  18.825  0.00  0.00    +0.000 OA
BRANCH   9  10
ATOM     10  C   UNL     1      49.377   5.438  19.274  0.00  0.00    +0.000 C 
BRANCH  10  11
ATOM     11  C   UNL     1      49.222   4.274  18.322  0.00  0.00    +0.000 A 
ATOM     12  C   UNL     1      47.996   4.003  17.716  0.00  0.00    +0.000 A 
ATOM     13  C   UNL     1      47.892   2.896  16.878  0.00  0.00    +0.000 A 
ATOM     14  C   UNL     1      49.006   2.093  16.667  0.00  0.00    +0.000 A 
ATOM     15  C   UNL     1      50.186   2.428  17.307  0.00  0.00    +0.000 A 
ATOM     16  N   UNL     1      50.315   3.490  18.130  0.00  0.00    +0.000 NA
ENDBRANCH  10  11
ENDBRANCH   9  10
ENDBRANCH   6   9
ENDBRANCH   2   3
BRANCH   2  17
ATOM     17  N   UNL     1      47.854   8.086  13.432  0.00  0.00    +0.000 N 
ATOM     18  C   UNL     1      47.771   6.822  12.907  0.00  0.00    +0.000 C 
ATOM     19  O   UNL     1      48.723   6.049  12.884  0.00  0.00    +0.000 OA
ATOM     20  H   UNL     1      47.091   8.735  13.273  0.00  0.00    +0.000 HD
BRANCH  18  21
ATOM     21  C   UNL     1      46.452   6.428  12.398  0.00  0.00    +0.000 A 
ATOM     22  C   UNL     1      45.608   7.370  11.827  0.00  0.00    +0.000 A 
ATOM     23  S   UNL     1      44.126   6.716  11.290  0.00  0.00    +0.000 S 
ATOM     24  C   UNL     1      44.535   5.165  11.864  0.00  0.00    +0.000 A 
ATOM     25  N   UNL     1      43.663   4.128  11.765  0.00  0.00    +0.000 NA
ATOM     26  C   UNL     1      44.091   3.022  12.277  0.00  0.00    +0.000 A 
ATOM     27  N   UNL     1      45.319   2.857  12.869  0.00  0.00    +0.000 N 
ATOM     28  C   UNL     1      46.252   3.860  12.942  0.00  0.00    +0.000 A 
ATOM     29  O   UNL     1      47.373   3.653  13.393  0.00  0.00    +0.000 OA
ATOM     30  C   UNL     1      45.805   5.136  12.416  0.00  0.00    +0.000 A 
ATOM     31  H   UNL     1      45.604   1.958  13.226  0.00  0.00    +0.000 HD
ENDBRANCH  18  21
ENDBRANCH   2  17
TORSDOF 6
ENDMDL
