MODEL 1
REMARK VINA RESULT:    -7.589      0.000      0.000
REMARK INTER + INTRA:         -11.591
REMARK INTER:                 -10.917
REMARK INTRA:                  -0.674
REMARK UNBOUND:                -0.674
REMARK  Name = 
REMARK  8 active torsions:
REMARK  status: ('A' for Active; 'I' for Inactive)
REMARK    1  A    between atoms: N_1  and  C_2
REMARK    2  A    between atoms: C_2  and  C_3
REMARK    3  A    between atoms: C_3  and  N_4
REMARK    4  A    between atoms: N_4  and  C_5
REMARK    5  A    between atoms: C_5  and  C_6
REMARK    6  A    between atoms: C_9  and  C_10
REMARK    7  A    between atoms: C_10  and  N_11
REMARK    8  A    between atoms: C_12  and  C_14
REMARK                            x       y       z     vdW  Elec       q    Type
REMARK                         _______ _______ _______ _____ _____    ______ ____
ROOT
ATOM      1  C   UNL     1      44.148   4.609  12.728  0.00  0.00    +0.000 C 
ENDROOT
BRANCH   1   5
ATOM      2  C   UNL     1      45.250   3.770   8.697  0.00  0.00    +0.000 A 
ATOM      3  C   UNL     1      45.586   5.006   9.250  0.00  0.00    +0.000 A 
ATOM      4  C   UNL     1      45.249   5.287  10.571  0.00  0.00    +0.000 A 
ATOM      5  C   UNL     1      44.564   4.326  11.308  0.00  0.00    +0.000 A 
ATOM      6  N   UNL     1      44.254   3.104  10.806  0.00  0.00    +0.000 NA
ATOM      7  C   UNL     1      44.606   2.856   9.525  0.00  0.00    +0.000 A 
BRANCH   2   8
ATOM      8  C   UNL     1      45.626   3.412   7.286  0.00  0.00    +0.000 C 
BRANCH   8   9
ATOM      9  N   UNL     1      47.032   3.710   6.994  0.00  0.00    +0.000 NA
ATOM     10  H   UNL     1      47.075   4.127   6.061  0.00  0.00    +0.000 HD
BRANCH   9  11
ATOM     11  C   UNL     1      47.839   2.482   6.925  0.00  0.00    +0.000 C 
BRANCH  11  12
ATOM     12  C   UNL     1      47.009   1.199   6.702  0.00  0.00    +0.000 C 
BRANCH  12  13
ATOM     13  N   UNL     1      47.245   0.211   7.759  0.00  0.00    +0.000 NA
ATOM     14  H   UNL     1      48.228   0.243   8.030  0.00  0.00    +0.000 HD
ATOM     15  H   UNL     1      47.091  -0.725   7.379  0.00  0.00    +0.000 HD
ENDBRANCH  12  13
ENDBRANCH  11  12
ENDBRANCH   9  11
ENDBRANCH   8   9
ENDBRANCH   2   8
ENDBRANCH   1   5
BRANCH   1  16
ATOM     16  N   UNL     1      45.214   5.205  13.497  0.00  0.00    +0.000 N 
ATOM     17  C   UNL     1      46.295   4.490  13.936  0.00  0.00    +0.000 C 
ATOM     18  O   UNL     1      46.417   3.287  13.709  0.00  0.00    +0.000 OA
ATOM     19  H   UNL     1      45.003   6.112  13.903  0.00  0.00    +0.000 HD
BRANCH  17  20
ATOM     20  C   UNL     1      47.345   5.248  14.627  0.00  0.00    +0.000 A 
ATOM     21  C   UNL     1      48.014   6.258  13.949  0.00  0.00    +0.000 A 
ATOM     22  S   UNL     1      49.154   7.088  14.908  0.00  0.00    +0.000 S 
ATOM     23  C   UNL     1      48.832   6.090  16.249  0.00  0.00    +0.000 A 
ATOM     24  N   UNL     1      49.503   6.259  17.419  0.00  0.00    +0.000 NA
ATOM     25  C   UNL     1      49.185   5.412  18.342  0.00  0.00    +0.000 A 
ATOM     26  N   UNL     1      48.256   4.416  18.199  0.00  0.00    +0.000 N 
ATOM     27  C   UNL     1      47.518   4.240  17.054  0.00  0.00    +0.000 A 
ATOM     28  O   UNL     1      46.640   3.389  16.987  0.00  0.00    +0.000 OA
ATOM     29  C   UNL     1      47.854   5.151  15.975  0.00  0.00    +0.000 A 
ATOM     30  H   UNL     1      48.039   3.795  18.966  0.00  0.00    +0.000 HD
ENDBRANCH  17  20
ENDBRANCH   1  16
TORSDOF 8
ENDMDL
MODEL 2
REMARK VINA RESULT:    -7.366      1.716      2.670
REMARK INTER + INTRA:         -11.270
REMARK INTER:                 -10.515
REMARK INTRA:                  -0.755
REMARK UNBOUND:                -0.674
REMARK  Name = 
REMARK  8 active torsions:
REMARK  status: ('A' for Active; 'I' for Inactive)
REMARK    1  A    between atoms: N_1  and  C_2
REMARK    2  A    between atoms: C_2  and  C_3
REMARK    3  A    between atoms: C_3  and  N_4
REMARK    4  A    between atoms: N_4  and  C_5
REMARK    5  A    between atoms: C_5  and  C_6
REMARK    6  A    between atoms: C_9  and  C_10
REMARK    7  A    between atoms: C_10  and  N_11
REMARK    8  A    between atoms: C_12  and  C_14
REMARK                            x       y       z     vdW  Elec       q    Type
REMARK                         _______ _______ _______ _____ _____    ______ ____
ROOT
ATOM      1  C   UNL     1      43.830   4.443  12.251  0.00  0.00    +0.000 C 
ENDROOT
BRANCH   1   5
ATOM      2  C   UNL     1      45.400   3.605   8.377  0.00  0.00    +0.000 A 
ATOM      3  C   UNL     1      44.678   2.616   9.047  0.00  0.00    +0.000 A 
ATOM      4  C   UNL     1      44.144   2.882  10.305  0.00  0.00    +0.000 A 
ATOM      5  C   UNL     1      44.360   4.131  10.875  0.00  0.00    +0.000 A 
ATOM      6  N   UNL     1      45.029   5.122  10.233  0.00  0.00    +0.000 NA
ATOM      7  C   UNL     1      45.524   4.838   9.008  0.00  0.00    +0.000 A 
BRANCH   2   8
ATOM      8  C   UNL     1      45.963   3.371   7.004  0.00  0.00    +0.000 C 
BRANCH   8   9
ATOM      9  N   UNL     1      47.427   3.453   6.983  0.00  0.00    +0.000 NA
ATOM     10  H   UNL     1      47.701   3.937   6.125  0.00  0.00    +0.000 HD
BRANCH   9  11
ATOM     11  C   UNL     1      48.040   2.117   6.907  0.00  0.00    +0.000 C 
BRANCH  11  12
ATOM     12  C   UNL     1      47.021   0.971   6.723  0.00  0.00    +0.000 C 
BRANCH  12  13
ATOM     13  N   UNL     1      47.137  -0.032   7.786  0.00  0.00    +0.000 NA
ATOM     14  H   UNL     1      46.217  -0.437   7.963  0.00  0.00    +0.000 HD
ATOM     15  H   UNL     1      47.408   0.435   8.654  0.00  0.00    +0.000 HD
ENDBRANCH  12  13
ENDBRANCH  11  12
ENDBRANCH   9  11
ENDBRANCH   8   9
ENDBRANCH   2   8
ENDBRANCH   1   5
BRANCH   1  16
ATOM     16  N   UNL     1      44.859   4.953  13.126  0.00  0.00    +0.000 N 
ATOM     17  C   UNL     1      45.910   4.187  13.552  0.00  0.00    +0.000 C 
ATOM     18  O   UNL     1      46.035   3.009  13.221  0.00  0.00    +0.000 OA
ATOM     19  H   UNL     1      44.634   5.821  13.602  0.00  0.00    +0.000 HD
BRANCH  17  20
ATOM     20  C   UNL     1      46.928   4.866  14.363  0.00  0.00    +0.000 A 
ATOM     21  C   UNL     1      47.166   4.434  15.661  0.00  0.00    +0.000 A 
ATOM     22  S   UNL     1      48.423   5.278  16.444  0.00  0.00    +0.000 S 
ATOM     23  C   UNL     1      48.658   6.289  15.095  0.00  0.00    +0.000 A 
ATOM     24  N   UNL     1      49.597   7.272  15.116  0.00  0.00    +0.000 NA
ATOM     25  C   UNL     1      49.645   7.986  14.040  0.00  0.00    +0.000 A 
ATOM     26  N   UNL     1      48.843   7.801  12.946  0.00  0.00    +0.000 N 
ATOM     27  C   UNL     1      47.916   6.790  12.860  0.00  0.00    +0.000 A 
ATOM     28  O   UNL     1      47.270   6.605  11.836  0.00  0.00    +0.000 OA
ATOM     29  C   UNL     1      47.804   5.972  14.053  0.00  0.00    +0.000 A 
ATOM     30  H   UNL     1      48.941   8.383  12.126  0.00  0.00    +0.000 HD
ENDBRANCH  17  20
ENDBRANCH   1  16
TORSDOF 8
ENDMDL
MODEL 3
REMARK VINA RESULT:    -7.315      1.643      2.174
REMARK INTER + INTRA:         -11.196
REMARK INTER:                 -10.286
REMARK INTRA:                  -0.910
REMARK UNBOUND:                -0.674
REMARK  Name = 
REMARK  8 active torsions:
REMARK  status: ('A' for Active; 'I' for Inactive)
REMARK    1  A    between atoms: N_1  and  C_2
REMARK    2  A    between atoms: C_2  and  C_3
REMARK    3  A    between atoms: C_3  and  N_4
REMARK    4  A    between atoms: N_4  and  C_5
REMARK    5  A    between atoms: C_5  and  C_6
REMARK    6  A    between atoms: C_9  and  C_10
REMARK    7  A    between atoms: C_10  and  N_11
REMARK    8  A    between atoms: C_12  and  C_14
REMARK                            x       y       z     vdW  Elec       q    Type
REMARK                         _______ _______ _______ _____ _____    ______ ____
ROOT
ATOM      1  C   UNL     1      45.604   6.867  11.987  0.00  0.00    +0.000 C 
ENDROOT
BRANCH   1   5
ATOM      2  C   UNL     1      45.015   3.332   9.679  0.00  0.00    +0.000 A 
ATOM      3  C   UNL     1      44.663   3.328  11.028  0.00  0.00    +0.000 A 
ATOM      4  C   UNL     1      44.832   4.481  11.790  0.00  0.00    +0.000 A 
ATOM      5  C   UNL     1      45.370   5.612  11.185  0.00  0.00    +0.000 A 
ATOM      6  N   UNL     1      45.691   5.653   9.868  0.00  0.00    +0.000 NA
ATOM      7  C   UNL     1      45.503   4.523   9.151  0.00  0.00    +0.000 A 
BRANCH   2   8
ATOM      8  C   UNL     1      44.816   2.120   8.812  0.00  0.00    +0.000 C 
BRANCH   8   9
ATOM      9  N   UNL     1      46.083   1.460   8.480  0.00  0.00    +0.000 NA
ATOM     10  H   UNL     1      46.819   1.902   9.036  0.00  0.00    +0.000 HD
BRANCH   9  11
ATOM     11  C   UNL     1      46.452   1.679   7.073  0.00  0.00    +0.000 C 
BRANCH  11  12
ATOM     12  C   UNL     1      47.816   2.380   6.885  0.00  0.00    +0.000 C 
BRANCH  12  13
ATOM     13  N   UNL     1      48.566   1.812   5.760  0.00  0.00    +0.000 NA
ATOM     14  H   UNL     1      47.969   1.806   4.933  0.00  0.00    +0.000 HD
ATOM     15  H   UNL     1      48.773   0.832   5.962  0.00  0.00    +0.000 HD
ENDBRANCH  12  13
ENDBRANCH  11  12
ENDBRANCH   9  11
ENDBRANCH   8   9
ENDBRANCH   2   8
ENDBRANCH   1   5
BRANCH   1  16
ATOM     16  N   UNL     1      46.277   6.595  13.235  0.00  0.00    +0.000 N 
ATOM     17  C   UNL     1      47.641   6.572  13.346  0.00  0.00    +0.000 C 
ATOM     18  O   UNL     1      48.378   6.774  12.382  0.00  0.00    +0.000 OA
ATOM     19  H   UNL     1      45.699   6.181  13.959  0.00  0.00    +0.000 HD
BRANCH  17  20
ATOM     20  C   UNL     1      48.184   6.374  14.695  0.00  0.00    +0.000 A 
ATOM     21  C   UNL     1      49.064   7.311  15.220  0.00  0.00    +0.000 A 
ATOM     22  S   UNL     1      49.550   6.972  16.820  0.00  0.00    +0.000 S 
ATOM     23  C   UNL     1      48.643   5.533  16.848  0.00  0.00    +0.000 A 
ATOM     24  N   UNL     1      48.641   4.733  17.947  0.00  0.00    +0.000 NA
ATOM     25  C   UNL     1      47.939   3.655  17.821  0.00  0.00    +0.000 A 
ATOM     26  N   UNL     1      47.238   3.310  16.696  0.00  0.00    +0.000 N 
ATOM     27  C   UNL     1      47.171   4.110  15.581  0.00  0.00    +0.000 A 
ATOM     28  O   UNL     1      46.472   3.808  14.622  0.00  0.00    +0.000 OA
ATOM     29  C   UNL     1      47.963   5.323  15.661  0.00  0.00    +0.000 A 
ATOM     30  H   UNL     1      46.693   2.460  16.664  0.00  0.00    +0.000 HD
ENDBRANCH  17  20
ENDBRANCH   1  16
TORSDOF 8
ENDMDL
MODEL 4
REMARK VINA RESULT:    -6.954      3.714      8.021
REMARK INTER + INTRA:         -10.677
REMARK INTER:                  -9.894
REMARK INTRA:                  -0.783
REMARK UNBOUND:                -0.674
REMARK  Name = 
REMARK  8 active torsions:
REMARK  status: ('A' for Active; 'I' for Inactive)
REMARK    1  A    between atoms: N_1  and  C_2
REMARK    2  A    between atoms: C_2  and  C_3
REMARK    3  A    between atoms: C_3  and  N_4
REMARK    4  A    between atoms: N_4  and  C_5
REMARK    5  A    between atoms: C_5  and  C_6
REMARK    6  A    between atoms: C_9  and  C_10
REMARK    7  A    between atoms: C_10  and  N_11
REMARK    8  A    between atoms: C_12  and  C_14
REMARK                            x       y       z     vdW  Elec       q    Type
REMARK                         _______ _______ _______ _____ _____    ______ ____
ROOT
ATOM      1  C   UNL     1      48.816   5.921  17.105  0.00  0.00    +0.000 C 
ENDROOT
BRANCH   1   5
ATOM      2  C   UNL     1      50.961   2.249  17.395  0.00  0.00    +0.000 A 
ATOM      3  C   UNL     1      49.579   2.216  17.206  0.00  0.00    +0.000 A 
ATOM      4  C   UNL     1      48.868   3.407  17.090  0.00  0.00    +0.000 A 
ATOM      5  C   UNL     1      49.557   4.612  17.186  0.00  0.00    +0.000 A 
ATOM      6  N   UNL     1      50.904   4.673  17.337  0.00  0.00    +0.000 NA
ATOM      7  C   UNL     1      51.568   3.500  17.433  0.00  0.00    +0.000 A 
BRANCH   2   8
ATOM      8  C   UNL     1      51.772   0.987  17.489  0.00  0.00    +0.000 C 
BRANCH   8   9
ATOM      9  N   UNL     1      52.847   1.090  18.482  0.00  0.00    +0.000 NA
ATOM     10  H   UNL     1      53.162   2.063  18.499  0.00  0.00    +0.000 HD
BRANCH   9  11
ATOM     11  C   UNL     1      54.019   0.290  18.092  0.00  0.00    +0.000 C 
BRANCH  11  12
ATOM     12  C   UNL     1      54.352   0.364  16.585  0.00  0.00    +0.000 C 
BRANCH  12  13
ATOM     13  N   UNL     1      54.200  -0.940  15.933  0.00  0.00    +0.000 NA
ATOM     14  H   UNL     1      53.992  -1.644  16.642  0.00  0.00    +0.000 HD
ATOM     15  H   UNL     1      55.096  -1.213  15.525  0.00  0.00    +0.000 HD
ENDBRANCH  12  13
ENDBRANCH  11  12
ENDBRANCH   9  11
ENDBRANCH   8   9
ENDBRANCH   2   8
ENDBRANCH   1   5
BRANCH   1  16
ATOM     16  N   UNL     1      47.892   5.954  15.996  0.00  0.00    +0.000 N 
ATOM     17  C   UNL     1      48.267   6.334  14.736  0.00  0.00    +0.000 C 
ATOM     18  O   UNL     1      49.418   6.682  14.475  0.00  0.00    +0.000 OA
ATOM     19  H   UNL     1      46.909   5.921  16.248  0.00  0.00    +0.000 HD
BRANCH  17  20
ATOM     20  C   UNL     1      47.243   6.229  13.689  0.00  0.00    +0.000 A 
ATOM     21  C   UNL     1      46.801   7.381  13.051  0.00  0.00    +0.000 A 
ATOM     22  S   UNL     1      45.664   7.084  11.815  0.00  0.00    +0.000 S 
ATOM     23  C   UNL     1      45.681   5.411  12.126  0.00  0.00    +0.000 A 
ATOM     24  N   UNL     1      44.893   4.562  11.414  0.00  0.00    +0.000 NA
ATOM     25  C   UNL     1      44.979   3.325  11.777  0.00  0.00    +0.000 A 
ATOM     26  N   UNL     1      45.784   2.863  12.784  0.00  0.00    +0.000 N 
ATOM     27  C   UNL     1      46.633   3.675  13.496  0.00  0.00    +0.000 A 
ATOM     28  O   UNL     1      47.396   3.216  14.337  0.00  0.00    +0.000 OA
ATOM     29  C   UNL     1      46.558   5.081  13.144  0.00  0.00    +0.000 A 
ATOM     30  H   UNL     1      45.820   1.879  13.009  0.00  0.00    +0.000 HD
ENDBRANCH  17  20
ENDBRANCH   1  16
TORSDOF 8
ENDMDL
MODEL 5
REMARK VINA RESULT:    -6.951      3.750      8.314
REMARK INTER + INTRA:         -10.672
REMARK INTER:                  -9.965
REMARK INTRA:                  -0.707
REMARK UNBOUND:                -0.674
REMARK  Name = 
REMARK  8 active torsions:
REMARK  status: ('A' for Active; 'I' for Inactive)
REMARK    1  A    between atoms: N_1  and  C_2
REMARK    2  A    between atoms: C_2  and  C_3
REMARK    3  A    between atoms: C_3  and  N_4
REMARK    4  A    between atoms: N_4  and  C_5
REMARK    5  A    between atoms: C_5  and  C_6
REMARK    6  A    between atoms: C_9  and  C_10
REMARK    7  A    between atoms: C_10  and  N_11
REMARK    8  A    between atoms: C_12  and  C_14
REMARK                            x       y       z     vdW  Elec       q    Type
REMARK                         _______ _______ _______ _____ _____    ______ ____
ROOT
ATOM      1  C   UNL     1      47.114   3.464  16.894  0.00  0.00    +0.000 C 
ENDROOT
BRANCH   1   5
ATOM      2  C   UNL     1      51.291   3.295  17.730  0.00  0.00    +0.000 A 
ATOM      3  C   UNL     1      50.649   2.156  17.243  0.00  0.00    +0.000 A 
ATOM      4  C   UNL     1      49.289   2.202  16.948  0.00  0.00    +0.000 A 
ATOM      5  C   UNL     1      48.595   3.388  17.165  0.00  0.00    +0.000 A 
ATOM      6  N   UNL     1      49.201   4.519  17.606  0.00  0.00    +0.000 NA
ATOM      7  C   UNL     1      50.524   4.447  17.871  0.00  0.00    +0.000 A 
BRANCH   2   8
ATOM      8  C   UNL     1      52.764   3.299  18.028  0.00  0.00    +0.000 C 
BRANCH   8   9
ATOM      9  N   UNL     1      53.167   2.155  18.853  0.00  0.00    +0.000 NA
ATOM     10  H   UNL     1      53.483   2.518  19.756  0.00  0.00    +0.000 HD
BRANCH   9  11
ATOM     11  C   UNL     1      54.322   1.453  18.272  0.00  0.00    +0.000 C 
BRANCH  11  12
ATOM     12  C   UNL     1      54.087  -0.057  18.045  0.00  0.00    +0.000 C 
BRANCH  12  13
ATOM     13  N   UNL     1      52.762  -0.474  18.516  0.00  0.00    +0.000 NA
ATOM     14  H   UNL     1      52.875  -1.207  19.217  0.00  0.00    +0.000 HD
ATOM     15  H   UNL     1      52.256  -0.906  17.741  0.00  0.00    +0.000 HD
ENDBRANCH  12  13
ENDBRANCH  11  12
ENDBRANCH   9  11
ENDBRANCH   8   9
ENDBRANCH   2   8
ENDBRANCH   1   5
BRANCH   1  16
ATOM     16  N   UNL     1      46.798   4.446  15.884  0.00  0.00    +0.000 N 
ATOM     17  C   UNL     1      46.873   4.176  14.544  0.00  0.00    +0.000 C 
ATOM     18  O   UNL     1      47.226   3.076  14.120  0.00  0.00    +0.000 OA
ATOM     19  H   UNL     1      46.760   5.407  16.209  0.00  0.00    +0.000 HD
BRANCH  17  20
ATOM     20  C   UNL     1      46.434   5.241  13.636  0.00  0.00    +0.000 A 
ATOM     21  C   UNL     1      47.293   6.296  13.356  0.00  0.00    +0.000 A 
ATOM     22  S   UNL     1      46.662   7.413  12.233  0.00  0.00    +0.000 S 
ATOM     23  C   UNL     1      45.196   6.556  12.122  0.00  0.00    +0.000 A 
ATOM     24  N   UNL     1      44.188   7.000  11.324  0.00  0.00    +0.000 NA
ATOM     25  C   UNL     1      43.120   6.273  11.361  0.00  0.00    +0.000 A 
ATOM     26  N   UNL     1      42.973   5.142  12.119  0.00  0.00    +0.000 N 
ATOM     27  C   UNL     1      43.981   4.628  12.900  0.00  0.00    +0.000 A 
ATOM     28  O   UNL     1      43.842   3.572  13.504  0.00  0.00    +0.000 OA
ATOM     29  C   UNL     1      45.196   5.421  12.914  0.00  0.00    +0.000 A 
ATOM     30  H   UNL     1      42.118   4.606  12.091  0.00  0.00    +0.000 HD
ENDBRANCH  17  20
ENDBRANCH   1  16
TORSDOF 8
ENDMDL
MODEL 6
REMARK VINA RESULT:    -6.632      2.008      3.026
REMARK INTER + INTRA:         -10.213
REMARK INTER:                  -9.285
REMARK INTRA:                  -0.929
REMARK UNBOUND:                -0.674
REMARK  Name = 
REMARK  8 active torsions:
REMARK  status: ('A' for Active; 'I' for Inactive)
REMARK    1  A    between atoms: N_1  and  C_2
REMARK    2  A    between atoms: C_2  and  C_3
REMARK    3  A    between atoms: C_3  and  N_4
REMARK    4  A    between atoms: N_4  and  C_5
REMARK    5  A    between atoms: C_5  and  C_6
REMARK    6  A    between atoms: C_9  and  C_10
REMARK    7  A    between atoms: C_10  and  N_11
REMARK    8  A    between atoms: C_12  and  C_14
REMARK                            x       y       z     vdW  Elec       q    Type
REMARK                         _______ _______ _______ _____ _____    ______ ____
ROOT
ATOM      1  C   UNL     1      46.954   7.776  13.321  0.00  0.00    +0.000 C 
ENDROOT
BRANCH   1   5
ATOM      2  C   UNL     1      44.699   5.032  10.963  0.00  0.00    +0.000 A 
ATOM      3  C   UNL     1      44.253   5.353  12.245  0.00  0.00    +0.000 A 
ATOM      4  C   UNL     1      44.969   6.261  13.020  0.00  0.00    +0.000 A 
ATOM      5  C   UNL     1      46.132   6.818  12.498  0.00  0.00    +0.000 A 
ATOM      6  N   UNL     1      46.570   6.550  11.242  0.00  0.00    +0.000 NA
ATOM      7  C   UNL     1      45.847   5.675  10.510  0.00  0.00    +0.000 A 
BRANCH   2   8
ATOM      8  C   UNL     1      43.937   4.084  10.080  0.00  0.00    +0.000 C 
BRANCH   8   9
ATOM      9  N   UNL     1      44.129   4.375   8.656  0.00  0.00    +0.000 NA
ATOM     10  H   UNL     1      43.204   4.438   8.223  0.00  0.00    +0.000 HD
BRANCH   9  11
ATOM     11  C   UNL     1      44.822   3.274   7.969  0.00  0.00    +0.000 C 
BRANCH  11  12
ATOM     12  C   UNL     1      45.024   2.018   8.846  0.00  0.00    +0.000 C 
BRANCH  12  13
ATOM     13  N   UNL     1      46.139   1.196   8.367  0.00  0.00    +0.000 NA
ATOM     14  H   UNL     1      46.337   1.438   7.396  0.00  0.00    +0.000 HD
ATOM     15  H   UNL     1      45.848   0.217   8.357  0.00  0.00    +0.000 HD
ENDBRANCH  12  13
ENDBRANCH  11  12
ENDBRANCH   9  11
ENDBRANCH   8   9
ENDBRANCH   2   8
ENDBRANCH   1   5
BRANCH   1  16
ATOM     16  N   UNL     1      47.469   7.156  14.519  0.00  0.00    +0.000 N 
ATOM     17  C   UNL     1      48.772   6.758  14.641  0.00  0.00    +0.000 C 
ATOM     18  O   UNL     1      49.585   6.897  13.728  0.00  0.00    +0.000 OA
ATOM     19  H   UNL     1      46.766   6.808  15.164  0.00  0.00    +0.000 HD
BRANCH  17  20
ATOM     20  C   UNL     1      49.175   6.229  15.950  0.00  0.00    +0.000 A 
ATOM     21  C   UNL     1      50.191   6.858  16.657  0.00  0.00    +0.000 A 
ATOM     22  S   UNL     1      50.493   6.164  18.185  0.00  0.00    +0.000 S 
ATOM     23  C   UNL     1      49.313   4.964  17.933  0.00  0.00    +0.000 A 
ATOM     24  N   UNL     1      49.076   4.012  18.875  0.00  0.00    +0.000 NA
ATOM     25  C   UNL     1      48.179   3.143  18.540  0.00  0.00    +0.000 A 
ATOM     26  N   UNL     1      47.497   3.146  17.352  0.00  0.00    +0.000 N 
ATOM     27  C   UNL     1      47.666   4.116  16.394  0.00  0.00    +0.000 A 
ATOM     28  O   UNL     1      46.984   4.132  15.377  0.00  0.00    +0.000 OA
ATOM     29  C   UNL     1      48.682   5.104  16.710  0.00  0.00    +0.000 A 
ATOM     30  H   UNL     1      46.794   2.448  17.156  0.00  0.00    +0.000 HD
ENDBRANCH  17  20
ENDBRANCH   1  16
TORSDOF 8
ENDMDL
MODEL 7
REMARK VINA RESULT:    -6.547      4.080      5.398
REMARK INTER + INTRA:         -10.092
REMARK INTER:                  -9.525
REMARK INTRA:                  -0.566
REMARK UNBOUND:                -0.674
REMARK  Name = 
REMARK  8 active torsions:
REMARK  status: ('A' for Active; 'I' for Inactive)
REMARK    1  A    between atoms: N_1  and  C_2
REMARK    2  A    between atoms: C_2  and  C_3
REMARK    3  A    between atoms: C_3  and  N_4
REMARK    4  A    between atoms: N_4  and  C_5
REMARK    5  A    between atoms: C_5  and  C_6
REMARK    6  A    between atoms: C_9  and  C_10
REMARK    7  A    between atoms: C_10  and  N_11
REMARK    8  A    between atoms: C_12  and  C_14
REMARK                            x       y       z     vdW  Elec       q    Type
REMARK                         _______ _______ _______ _____ _____    ______ ____
ROOT
ATOM      1  C   UNL     1      46.386   4.202  14.174  0.00  0.00    +0.000 C 
ENDROOT
BRANCH   1   5
ATOM      2  C   UNL     1      45.129   7.620  11.959  0.00  0.00    +0.000 A 
ATOM      3  C   UNL     1      46.492   7.418  12.181  0.00  0.00    +0.000 A 
ATOM      4  C   UNL     1      46.918   6.296  12.887  0.00  0.00    +0.000 A 
ATOM      5  C   UNL     1      45.965   5.407  13.372  0.00  0.00    +0.000 A 
ATOM      6  N   UNL     1      44.637   5.562  13.143  0.00  0.00    +0.000 NA
ATOM      7  C   UNL     1      44.255   6.653  12.443  0.00  0.00    +0.000 A 
BRANCH   2   8
ATOM      8  C   UNL     1      44.629   8.799  11.172  0.00  0.00    +0.000 C 
BRANCH   8   9
ATOM      9  N   UNL     1      43.178   8.754  10.966  0.00  0.00    +0.000 NA
ATOM     10  H   UNL     1      42.983   8.020  10.281  0.00  0.00    +0.000 HD
BRANCH   9  11
ATOM     11  C   UNL     1      42.678  10.004  10.373  0.00  0.00    +0.000 C 
BRANCH  11  12
ATOM     12  C   UNL     1      41.206  10.317  10.720  0.00  0.00    +0.000 C 
BRANCH  12  13
ATOM     13  N   UNL     1      40.582   9.220  11.468  0.00  0.00    +0.000 NA
ATOM     14  H   UNL     1      40.029   8.653  10.825  0.00  0.00    +0.000 HD
ATOM     15  H   UNL     1      39.917   9.613  12.137  0.00  0.00    +0.000 HD
ENDBRANCH  12  13
ENDBRANCH  11  12
ENDBRANCH   9  11
ENDBRANCH   8   9
ENDBRANCH   2   8
ENDBRANCH   1   5
BRANCH   1  16
ATOM     16  N   UNL     1      47.439   4.514  15.110  0.00  0.00    +0.000 N 
ATOM     17  C   UNL     1      47.444   4.048  16.396  0.00  0.00    +0.000 C 
ATOM     18  O   UNL     1      46.541   3.338  16.837  0.00  0.00    +0.000 OA
ATOM     19  H   UNL     1      48.039   5.290  14.846  0.00  0.00    +0.000 HD
BRANCH  17  20
ATOM     20  C   UNL     1      48.626   4.371  17.205  0.00  0.00    +0.000 A 
ATOM     21  C   UNL     1      48.663   5.567  17.910  0.00  0.00    +0.000 A 
ATOM     22  S   UNL     1      50.070   5.762  18.853  0.00  0.00    +0.000 S 
ATOM     23  C   UNL     1      50.705   4.279  18.310  0.00  0.00    +0.000 A 
ATOM     24  N   UNL     1      51.924   3.848  18.730  0.00  0.00    +0.000 NA
ATOM     25  C   UNL     1      52.299   2.724  18.214  0.00  0.00    +0.000 A 
ATOM     26  N   UNL     1      51.563   1.994  17.319  0.00  0.00    +0.000 N 
ATOM     27  C   UNL     1      50.305   2.365  16.906  0.00  0.00    +0.000 A 
ATOM     28  O   UNL     1      49.642   1.649  16.166  0.00  0.00    +0.000 OA
ATOM     29  C   UNL     1      49.846   3.634  17.438  0.00  0.00    +0.000 A 
ATOM     30  H   UNL     1      51.903   1.112  16.964  0.00  0.00    +0.000 HD
ENDBRANCH  17  20
ENDBRANCH   1  16
TORSDOF 8
ENDMDL
MODEL 8
REMARK VINA RESULT:    -6.334      2.314      3.501
REMARK INTER + INTRA:          -9.785
REMARK INTER:                  -9.203
REMARK INTRA:                  -0.583
REMARK UNBOUND:                -0.674
REMARK  Name = 
REMARK  8 active torsions:
REMARK  status: ('A' for Active; 'I' for Inactive)
REMARK    1  A    between atoms: N_1  and  C_2
REMARK    2  A    between atoms: C_2  and  C_3
REMARK    3  A    between atoms: C_3  and  N_4
REMARK    4  A    between atoms: N_4  and  C_5
REMARK    5  A    between atoms: C_5  and  C_6
REMARK    6  A    between atoms: C_9  and  C_10
REMARK    7  A    between atoms: C_10  and  N_11
REMARK    8  A    between atoms: C_12  and  C_14
REMARK                            x       y       z     vdW  Elec       q    Type
REMARK                         _______ _______ _______ _____ _____    ______ ____
ROOT
ATOM      1  C   UNL     1      48.093   6.572  13.366  0.00  0.00    +0.000 C 
ENDROOT
BRANCH   1   5
ATOM      2  C   UNL     1      44.803   4.560  11.549  0.00  0.00    +0.000 A 
ATOM      3  C   UNL     1      45.251   5.763  11.002  0.00  0.00    +0.000 A 
ATOM      4  C   UNL     1      46.336   6.421  11.573  0.00  0.00    +0.000 A 
ATOM      5  C   UNL     1      46.941   5.868  12.697  0.00  0.00    +0.000 A 
ATOM      6  N   UNL     1      46.547   4.684  13.230  0.00  0.00    +0.000 NA
ATOM      7  C   UNL     1      45.500   4.062  12.646  0.00  0.00    +0.000 A 
BRANCH   2   8
ATOM      8  C   UNL     1      43.658   3.799  10.943  0.00  0.00    +0.000 C 
BRANCH   8   9
ATOM      9  N   UNL     1      44.048   2.448  10.525  0.00  0.00    +0.000 NA
ATOM     10  H   UNL     1      44.531   2.006  11.311  0.00  0.00    +0.000 HD
BRANCH   9  11
ATOM     11  C   UNL     1      45.020   2.485   9.421  0.00  0.00    +0.000 C 
BRANCH  11  12
ATOM     12  C   UNL     1      44.618   3.427   8.265  0.00  0.00    +0.000 C 
BRANCH  12  13
ATOM     13  N   UNL     1      45.792   4.006   7.604  0.00  0.00    +0.000 NA
ATOM     14  H   UNL     1      46.543   3.315   7.598  0.00  0.00    +0.000 HD
ATOM     15  H   UNL     1      46.137   4.787   8.166  0.00  0.00    +0.000 HD
ENDBRANCH  12  13
ENDBRANCH  11  12
ENDBRANCH   9  11
ENDBRANCH   8   9
ENDBRANCH   2   8
ENDBRANCH   1   5
BRANCH   1  16
ATOM     16  N   UNL     1      47.974   6.560  14.805  0.00  0.00    +0.000 N 
ATOM     17  C   UNL     1      49.055   6.685  15.635  0.00  0.00    +0.000 C 
ATOM     18  O   UNL     1      50.200   6.805  15.201  0.00  0.00    +0.000 OA
ATOM     19  H   UNL     1      47.092   6.209  15.164  0.00  0.00    +0.000 HD
BRANCH  17  20
ATOM     20  C   UNL     1      48.771   6.748  17.073  0.00  0.00    +0.000 A 
ATOM     21  C   UNL     1      48.377   7.954  17.638  0.00  0.00    +0.000 A 
ATOM     22  S   UNL     1      48.019   7.845  19.302  0.00  0.00    +0.000 S 
ATOM     23  C   UNL     1      48.431   6.195  19.339  0.00  0.00    +0.000 A 
ATOM     24  N   UNL     1      48.365   5.486  20.497  0.00  0.00    +0.000 NA
ATOM     25  C   UNL     1      48.738   4.253  20.390  0.00  0.00    +0.000 A 
ATOM     26  N   UNL     1      49.167   3.668  19.228  0.00  0.00    +0.000 N 
ATOM     27  C   UNL     1      49.201   4.330  18.025  0.00  0.00    +0.000 A 
ATOM     28  O   UNL     1      49.516   3.755  16.991  0.00  0.00    +0.000 OA
ATOM     29  C   UNL     1      48.815   5.727  18.094  0.00  0.00    +0.000 A 
ATOM     30  H   UNL     1      49.429   2.693  19.205  0.00  0.00    +0.000 HD
ENDBRANCH  17  20
ENDBRANCH   1  16
TORSDOF 8
ENDMDL
MODEL 9
REMARK VINA RESULT:    -6.260      2.685      3.862
REMARK INTER + INTRA:          -9.679
REMARK INTER:                  -8.703
REMARK INTRA:                  -0.976
REMARK UNBOUND:                -0.674
REMARK  Name = 
REMARK  8 active torsions:
REMARK  status: ('A' for Active; 'I' for Inactive)
REMARK    1  A    between atoms: N_1  and  C_2
REMARK    2  A    between atoms: C_2  and  C_3
REMARK    3  A    between atoms: C_3  and  N_4
REMARK    4  A    between atoms: N_4  and  C_5
REMARK    5  A    between atoms: C_5  and  C_6
REMARK    6  A    between atoms: C_9  and  C_10
REMARK    7  A    between atoms: C_10  and  N_11
REMARK    8  A    between atoms: C_12  and  C_14
REMARK                            x       y       z     vdW  Elec       q    Type
REMARK                         _______ _______ _______ _____ _____    ______ ____
ROOT
ATOM      1  C   UNL     1      46.986   4.384  14.884  0.00  0.00    +0.000 C 
ENDROOT
BRANCH   1   5
ATOM      2  C   UNL     1      44.903   4.507  11.167  0.00  0.00    +0.000 A 
ATOM      3  C   UNL     1      45.543   5.659  11.626  0.00  0.00    +0.000 A 
ATOM      4  C   UNL     1      46.243   5.629  12.829  0.00  0.00    +0.000 A 
ATOM      5  C   UNL     1      46.272   4.445  13.559  0.00  0.00    +0.000 A 
ATOM      6  N   UNL     1      45.686   3.302  13.120  0.00  0.00    +0.000 NA
ATOM      7  C   UNL     1      45.026   3.359  11.943  0.00  0.00    +0.000 A 
BRANCH   2   8
ATOM      8  C   UNL     1      44.167   4.487   9.857  0.00  0.00    +0.000 C 
BRANCH   8   9
ATOM      9  N   UNL     1      45.060   4.701   8.714  0.00  0.00    +0.000 NA
ATOM     10  H   UNL     1      44.691   5.486   8.172  0.00  0.00    +0.000 HD
BRANCH   9  11
ATOM     11  C   UNL     1      45.057   3.545   7.804  0.00  0.00    +0.000 C 
BRANCH  11  12
ATOM     12  C   UNL     1      46.075   2.447   8.184  0.00  0.00    +0.000 C 
BRANCH  12  13
ATOM     13  N   UNL     1      45.425   1.314   8.851  0.00  0.00    +0.000 NA
ATOM     14  H   UNL     1      44.415   1.449   8.825  0.00  0.00    +0.000 HD
ATOM     15  H   UNL     1      45.682   1.321   9.840  0.00  0.00    +0.000 HD
ENDBRANCH  12  13
ENDBRANCH  11  12
ENDBRANCH   9  11
ENDBRANCH   8   9
ENDBRANCH   2   8
ENDBRANCH   1   5
BRANCH   1  16
ATOM     16  N   UNL     1      47.639   5.631  15.206  0.00  0.00    +0.000 N 
ATOM     17  C   UNL     1      48.675   5.712  16.096  0.00  0.00    +0.000 C 
ATOM     18  O   UNL     1      49.108   4.722  16.686  0.00  0.00    +0.000 OA
ATOM     19  H   UNL     1      47.135   6.468  14.931  0.00  0.00    +0.000 HD
BRANCH  17  20
ATOM     20  C   UNL     1      49.301   7.030  16.254  0.00  0.00    +0.000 A 
ATOM     21  C   UNL     1      49.427   7.578  17.524  0.00  0.00    +0.000 A 
ATOM     22  S   UNL     1      50.235   9.079  17.545  0.00  0.00    +0.000 S 
ATOM     23  C   UNL     1      50.398   9.077  15.851  0.00  0.00    +0.000 A 
ATOM     24  N   UNL     1      50.997  10.114  15.207  0.00  0.00    +0.000 NA
ATOM     25  C   UNL     1      51.023   9.999  13.920  0.00  0.00    +0.000 A 
ATOM     26  N   UNL     1      50.507   8.939  13.223  0.00  0.00    +0.000 N 
ATOM     27  C   UNL     1      49.939   7.847  13.832  0.00  0.00    +0.000 A 
ATOM     28  O   UNL     1      49.558   6.882  13.182  0.00  0.00    +0.000 OA
ATOM     29  C   UNL     1      49.862   7.936  15.279  0.00  0.00    +0.000 A 
ATOM     30  H   UNL     1      50.573   8.899  12.215  0.00  0.00    +0.000 HD
ENDBRANCH  17  20
ENDBRANCH   1  16
TORSDOF 8
ENDMDL
