MODEL 1
REMARK VINA RESULT:    -8.917      0.000      0.000
REMARK INTER + INTRA:         -11.571
REMARK INTER:                 -11.002
REMARK INTRA:                  -0.569
REMARK UNBOUND:                -0.569
REMARK  Name = 
REMARK  4 active torsions:
REMARK  status: ('A' for Active; 'I' for Inactive)
REMARK    1  A    between atoms: C_2  and  C_4
REMARK    2  A    between atoms: N_8  and  C_9
REMARK    3  A    between atoms: C_9  and  C_10
REMARK    4  A    between atoms: C_14  and  C_15
REMARK                            x       y       z     vdW  Elec       q    Type
REMARK                         _______ _______ _______ _____ _____    ______ ____
ROOT
ATOM      1  C   UNL     1      43.521   3.715  11.178  0.00  0.00    +0.000 C 
ENDROOT
BRANCH   1   6
ATOM      2  C   UNL     1      46.587   2.524   7.191  0.00  0.00    +0.000 A 
ATOM      3  C   UNL     1      45.996   3.731   7.544  0.00  0.00    +0.000 A 
ATOM      4  C   UNL     1      45.190   3.786   8.681  0.00  0.00    +0.000 A 
ATOM      5  C   UNL     1      44.977   2.641   9.438  0.00  0.00    +0.000 A 
ATOM      6  N   UNL     1      44.274   2.624  10.609  0.00  0.00    +0.000 N 
ATOM      7  N   UNL     1      45.513   1.456   9.079  0.00  0.00    +0.000 NA
ATOM      8  C   UNL     1      46.294   1.415   7.967  0.00  0.00    +0.000 A 
ATOM      9  H   UNL     1      44.123   1.686  10.958  0.00  0.00    +0.000 HD
BRANCH   2  11
ATOM     10  N   UNL     1      47.333   3.283   5.010  0.00  0.00    +0.000 N 
ATOM     11  C   UNL     1      47.492   2.386   6.033  0.00  0.00    +0.000 C 
ATOM     12  O   UNL     1      48.373   1.538   6.003  0.00  0.00    +0.000 OA
ATOM     13  H   UNL     1      48.024   3.249   4.270  0.00  0.00    +0.000 HD
ATOM     14  H   UNL     1      46.802   4.135   5.111  0.00  0.00    +0.000 HD
ENDBRANCH   2  11
ENDBRANCH   1   6
BRANCH   1  15
ATOM     15  C   UNL     1      44.426   4.790  11.729  0.00  0.00    +0.000 A 
ATOM     16  C   UNL     1      44.415   6.084  11.194  0.00  0.00    +0.000 A 
ATOM     17  C   UNL     1      45.262   7.062  11.709  0.00  0.00    +0.000 A 
ATOM     18  C   UNL     1      46.123   6.759  12.766  0.00  0.00    +0.000 A 
ATOM     19  C   UNL     1      46.154   5.476  13.339  0.00  0.00    +0.000 A 
ATOM     20  C   UNL     1      45.300   4.502  12.791  0.00  0.00    +0.000 A 
BRANCH  19  21
ATOM     21  C   UNL     1      47.020   5.166  14.494  0.00  0.00    +0.000 A 
ATOM     22  C   UNL     1      48.038   6.034  14.910  0.00  0.00    +0.000 A 
ATOM     23  N   UNL     1      48.860   5.828  15.971  0.00  0.00    +0.000 NA
ATOM     24  C   UNL     1      48.653   4.696  16.677  0.00  0.00    +0.000 A 
ATOM     25  C   UNL     1      47.676   3.773  16.361  0.00  0.00    +0.000 A 
ATOM     26  F   UNL     1      47.511   2.671  17.104  0.00  0.00    +0.000 F 
ATOM     27  C   UNL     1      46.857   4.002  15.261  0.00  0.00    +0.000 A 
ENDBRANCH  19  21
ENDBRANCH   1  15
TORSDOF 4
ENDMDL
MODEL 2
REMARK VINA RESULT:    -8.617      3.070      4.413
REMARK INTER + INTRA:         -11.201
REMARK INTER:                 -10.587
REMARK INTRA:                  -0.614
REMARK UNBOUND:                -0.569
REMARK  Name = 
REMARK  4 active torsions:
REMARK  status: ('A' for Active; 'I' for Inactive)
REMARK    1  A    between atoms: C_2  and  C_4
REMARK    2  A    between atoms: N_8  and  C_9
REMARK    3  A    between atoms: C_9  and  C_10
REMARK    4  A    between atoms: C_14  and  C_15
REMARK                            x       y       z     vdW  Elec       q    Type
REMARK                         _______ _______ _______ _____ _____    ______ ____
ROOT
ATOM      1  C   UNL     1      43.437   3.658  11.261  0.00  0.00    +0.000 C 
ENDROOT
BRANCH   1   6
ATOM      2  C   UNL     1      46.580   2.500   7.324  0.00  0.00    +0.000 A 
ATOM      3  C   UNL     1      46.078   3.725   7.747  0.00  0.00    +0.000 A 
ATOM      4  C   UNL     1      45.226   3.767   8.849  0.00  0.00    +0.000 A 
ATOM      5  C   UNL     1      44.877   2.591   9.504  0.00  0.00    +0.000 A 
ATOM      6  N   UNL     1      44.120   2.549  10.640  0.00  0.00    +0.000 N 
ATOM      7  N   UNL     1      45.326   1.394   9.076  0.00  0.00    +0.000 NA
ATOM      8  C   UNL     1      46.154   1.367   7.998  0.00  0.00    +0.000 A 
ATOM      9  H   UNL     1      43.872   1.605  10.906  0.00  0.00    +0.000 HD
BRANCH   2  11
ATOM     10  N   UNL     1      47.287   3.144   5.094  0.00  0.00    +0.000 N 
ATOM     11  C   UNL     1      47.525   2.369   6.198  0.00  0.00    +0.000 C 
ATOM     12  O   UNL     1      48.500   1.635   6.261  0.00  0.00    +0.000 OA
ATOM     13  H   UNL     1      47.996   3.127   4.371  0.00  0.00    +0.000 HD
ATOM     14  H   UNL     1      46.655   3.931   5.108  0.00  0.00    +0.000 HD
ENDBRANCH   2  11
ENDBRANCH   1   6
BRANCH   1  15
ATOM     15  C   UNL     1      44.405   4.624  11.900  0.00  0.00    +0.000 A 
ATOM     16  C   UNL     1      45.404   4.172  12.770  0.00  0.00    +0.000 A 
ATOM     17  C   UNL     1      46.284   5.077  13.357  0.00  0.00    +0.000 A 
ATOM     18  C   UNL     1      46.177   6.442  13.077  0.00  0.00    +0.000 A 
ATOM     19  C   UNL     1      45.196   6.933  12.199  0.00  0.00    +0.000 A 
ATOM     20  C   UNL     1      44.311   6.000  11.631  0.00  0.00    +0.000 A 
BRANCH  19  21
ATOM     21  C   UNL     1      45.115   8.366  11.854  0.00  0.00    +0.000 A 
ATOM     22  C   UNL     1      46.078   9.287  12.285  0.00  0.00    +0.000 A 
ATOM     23  N   UNL     1      46.084  10.613  11.994  0.00  0.00    +0.000 NA
ATOM     24  C   UNL     1      45.077  11.057  11.211  0.00  0.00    +0.000 A 
ATOM     25  C   UNL     1      44.077  10.238  10.725  0.00  0.00    +0.000 A 
ATOM     26  F   UNL     1      43.108  10.733   9.944  0.00  0.00    +0.000 F 
ATOM     27  C   UNL     1      44.089   8.887  11.050  0.00  0.00    +0.000 A 
ENDBRANCH  19  21
ENDBRANCH   1  15
TORSDOF 4
ENDMDL
MODEL 3
REMARK VINA RESULT:    -8.363      2.859      4.013
REMARK INTER + INTRA:         -10.888
REMARK INTER:                 -10.243
REMARK INTRA:                  -0.644
REMARK UNBOUND:                -0.569
REMARK  Name = 
REMARK  4 active torsions:
REMARK  status: ('A' for Active; 'I' for Inactive)
REMARK    1  A    between atoms: C_2  and  C_4
REMARK    2  A    between atoms: N_8  and  C_9
REMARK    3  A    between atoms: C_9  and  C_10
REMARK    4  A    between atoms: C_14  and  C_15
REMARK                            x       y       z     vdW  Elec       q    Type
REMARK                         _______ _______ _______ _____ _____    ______ ____
ROOT
ATOM      1  C   UNL     1      43.664   3.840  11.325  0.00  0.00    +0.000 C 
ENDROOT
BRANCH   1   6
ATOM      2  C   UNL     1      46.603   2.506   7.287  0.00  0.00    +0.000 A 
ATOM      3  C   UNL     1      46.210   3.759   7.741  0.00  0.00    +0.000 A 
ATOM      4  C   UNL     1      45.392   3.849   8.867  0.00  0.00    +0.000 A 
ATOM      5  C   UNL     1      44.971   2.694   9.514  0.00  0.00    +0.000 A 
ATOM      6  N   UNL     1      44.242   2.692  10.670  0.00  0.00    +0.000 N 
ATOM      7  N   UNL     1      45.314   1.473   9.057  0.00  0.00    +0.000 NA
ATOM      8  C   UNL     1      46.109   1.399   7.957  0.00  0.00    +0.000 A 
ATOM      9  H   UNL     1      43.929   1.766  10.929  0.00  0.00    +0.000 HD
BRANCH   2  11
ATOM     10  N   UNL     1      47.373   3.202   5.094  0.00  0.00    +0.000 N 
ATOM     11  C   UNL     1      47.506   2.321   6.135  0.00  0.00    +0.000 C 
ATOM     12  O   UNL     1      48.362   1.448   6.123  0.00  0.00    +0.000 OA
ATOM     13  H   UNL     1      48.063   3.134   4.356  0.00  0.00    +0.000 HD
ATOM     14  H   UNL     1      46.866   4.070   5.178  0.00  0.00    +0.000 HD
ENDBRANCH   2  11
ENDBRANCH   1   6
BRANCH   1  15
ATOM     15  C   UNL     1      44.703   4.640  12.072  0.00  0.00    +0.000 A 
ATOM     16  C   UNL     1      45.584   4.020  12.965  0.00  0.00    +0.000 A 
ATOM     17  C   UNL     1      46.531   4.773  13.653  0.00  0.00    +0.000 A 
ATOM     18  C   UNL     1      46.612   6.153  13.449  0.00  0.00    +0.000 A 
ATOM     19  C   UNL     1      45.755   6.811  12.551  0.00  0.00    +0.000 A 
ATOM     20  C   UNL     1      44.797   6.029  11.881  0.00  0.00    +0.000 A 
BRANCH  19  21
ATOM     21  C   UNL     1      45.874   8.259  12.288  0.00  0.00    +0.000 A 
ATOM     22  C   UNL     1      44.753   9.100  12.262  0.00  0.00    +0.000 A 
ATOM     23  N   UNL     1      44.782  10.440  12.047  0.00  0.00    +0.000 NA
ATOM     24  C   UNL     1      46.002  10.990  11.862  0.00  0.00    +0.000 A 
ATOM     25  C   UNL     1      47.173  10.258  11.874  0.00  0.00    +0.000 A 
ATOM     26  F   UNL     1      48.356  10.858  11.693  0.00  0.00    +0.000 F 
ATOM     27  C   UNL     1      47.112   8.885  12.082  0.00  0.00    +0.000 A 
ENDBRANCH  19  21
ENDBRANCH   1  15
TORSDOF 4
ENDMDL
MODEL 4
REMARK VINA RESULT:    -7.924      3.624      7.203
REMARK INTER + INTRA:         -10.346
REMARK INTER:                  -9.601
REMARK INTRA:                  -0.745
REMARK UNBOUND:                -0.569
REMARK  Name = 
REMARK  4 active torsions:
REMARK  status: ('A' for Active; 'I' for Inactive)
REMARK    1  A    between atoms: C_2  and  C_4
REMARK    2  A    between atoms: N_8  and  C_9
REMARK    3  A    between atoms: C_9  and  C_10
REMARK    4  A    between atoms: C_14  and  C_15
REMARK                            x       y       z     vdW  Elec       q    Type
REMARK                         _______ _______ _______ _____ _____    ______ ____
ROOT
ATOM      1  C   UNL     1      44.680   6.399  12.660  0.00  0.00    +0.000 C 
ENDROOT
BRANCH   1   6
ATOM      2  C   UNL     1      49.647   7.820  12.498  0.00  0.00    +0.000 A 
ATOM      3  C   UNL     1      48.628   8.000  11.571  0.00  0.00    +0.000 A 
ATOM      4  C   UNL     1      47.356   7.504  11.854  0.00  0.00    +0.000 A 
ATOM      5  C   UNL     1      47.123   6.829  13.047  0.00  0.00    +0.000 A 
ATOM      6  N   UNL     1      45.892   6.387  13.442  0.00  0.00    +0.000 N 
ATOM      7  N   UNL     1      48.116   6.615  13.933  0.00  0.00    +0.000 NA
ATOM      8  C   UNL     1      49.352   7.100  13.644  0.00  0.00    +0.000 A 
ATOM      9  H   UNL     1      45.935   5.818  14.278  0.00  0.00    +0.000 HD
BRANCH   2  11
ATOM     10  N   UNL     1      51.939   8.051  13.259  0.00  0.00    +0.000 N 
ATOM     11  C   UNL     1      51.009   8.354  12.301  0.00  0.00    +0.000 C 
ATOM     12  O   UNL     1      51.308   9.003  11.309  0.00  0.00    +0.000 OA
ATOM     13  H   UNL     1      52.893   8.331  13.065  0.00  0.00    +0.000 HD
ATOM     14  H   UNL     1      51.799   7.322  13.943  0.00  0.00    +0.000 HD
ENDBRANCH   2  11
ENDBRANCH   1   6
BRANCH   1  15
ATOM     15  C   UNL     1      44.420   5.060  12.012  0.00  0.00    +0.000 A 
ATOM     16  C   UNL     1      43.526   4.147  12.581  0.00  0.00    +0.000 A 
ATOM     17  C   UNL     1      43.303   2.913  11.975  0.00  0.00    +0.000 A 
ATOM     18  C   UNL     1      43.969   2.582  10.793  0.00  0.00    +0.000 A 
ATOM     19  C   UNL     1      44.865   3.477  10.183  0.00  0.00    +0.000 A 
ATOM     20  C   UNL     1      45.083   4.710  10.823  0.00  0.00    +0.000 A 
BRANCH  19  21
ATOM     21  C   UNL     1      45.528   3.157   8.904  0.00  0.00    +0.000 A 
ATOM     22  C   UNL     1      45.851   4.149   7.969  0.00  0.00    +0.000 A 
ATOM     23  N   UNL     1      46.476   3.938   6.782  0.00  0.00    +0.000 NA
ATOM     24  C   UNL     1      46.819   2.661   6.507  0.00  0.00    +0.000 A 
ATOM     25  C   UNL     1      46.555   1.605   7.357  0.00  0.00    +0.000 A 
ATOM     26  F   UNL     1      46.927   0.359   7.035  0.00  0.00    +0.000 F 
ATOM     27  C   UNL     1      45.901   1.849   8.559  0.00  0.00    +0.000 A 
ENDBRANCH  19  21
ENDBRANCH   1  15
TORSDOF 4
ENDMDL
MODEL 5
REMARK VINA RESULT:    -7.361      4.084      7.261
REMARK INTER + INTRA:          -9.651
REMARK INTER:                  -9.398
REMARK INTRA:                  -0.253
REMARK UNBOUND:                -0.569
REMARK  Name = 
REMARK  4 active torsions:
REMARK  status: ('A' for Active; 'I' for Inactive)
REMARK    1  A    between atoms: C_2  and  C_4
REMARK    2  A    between atoms: N_8  and  C_9
REMARK    3  A    between atoms: C_9  and  C_10
REMARK    4  A    between atoms: C_14  and  C_15
REMARK                            x       y       z     vdW  Elec       q    Type
REMARK                         _______ _______ _______ _____ _____    ______ ____
ROOT
ATOM      1  C   UNL     1      43.305   6.530  10.808  0.00  0.00    +0.000 C 
ENDROOT
BRANCH   1   6
ATOM      2  C   UNL     1      48.099   7.294  12.584  0.00  0.00    +0.000 A 
ATOM      3  C   UNL     1      47.657   6.678  11.419  0.00  0.00    +0.000 A 
ATOM      4  C   UNL     1      46.287   6.590  11.175  0.00  0.00    +0.000 A 
ATOM      5  C   UNL     1      45.382   7.104  12.096  0.00  0.00    +0.000 A 
ATOM      6  N   UNL     1      44.030   7.137  11.897  0.00  0.00    +0.000 N 
ATOM      7  N   UNL     1      45.801   7.667  13.247  0.00  0.00    +0.000 NA
ATOM      8  C   UNL     1      47.139   7.744  13.475  0.00  0.00    +0.000 A 
ATOM      9  H   UNL     1      43.524   7.438  12.720  0.00  0.00    +0.000 HD
BRANCH   2  11
ATOM     10  N   UNL     1      50.391   7.573  11.838  0.00  0.00    +0.000 N 
ATOM     11  C   UNL     1      49.530   7.474  12.898  0.00  0.00    +0.000 C 
ATOM     12  O   UNL     1      49.926   7.573  14.051  0.00  0.00    +0.000 OA
ATOM     13  H   UNL     1      51.352   7.801  12.059  0.00  0.00    +0.000 HD
ATOM     14  H   UNL     1      50.076   7.751  10.896  0.00  0.00    +0.000 HD
ENDBRANCH   2  11
ENDBRANCH   1   6
BRANCH   1  15
ATOM     15  C   UNL     1      43.582   5.050  10.709  0.00  0.00    +0.000 A 
ATOM     16  C   UNL     1      43.012   4.148  11.615  0.00  0.00    +0.000 A 
ATOM     17  C   UNL     1      43.284   2.787  11.515  0.00  0.00    +0.000 A 
ATOM     18  C   UNL     1      44.125   2.312  10.505  0.00  0.00    +0.000 A 
ATOM     19  C   UNL     1      44.706   3.183   9.568  0.00  0.00    +0.000 A 
ATOM     20  C   UNL     1      44.427   4.555   9.700  0.00  0.00    +0.000 A 
BRANCH  19  21
ATOM     21  C   UNL     1      45.549   2.682   8.464  0.00  0.00    +0.000 A 
ATOM     22  C   UNL     1      46.061   1.378   8.458  0.00  0.00    +0.000 A 
ATOM     23  N   UNL     1      46.824   0.838   7.473  0.00  0.00    +0.000 NA
ATOM     24  C   UNL     1      47.087   1.636   6.416  0.00  0.00    +0.000 A 
ATOM     25  C   UNL     1      46.629   2.935   6.314  0.00  0.00    +0.000 A 
ATOM     26  F   UNL     1      46.914   3.677   5.237  0.00  0.00    +0.000 F 
ATOM     27  C   UNL     1      45.861   3.466   7.344  0.00  0.00    +0.000 A 
ENDBRANCH  19  21
ENDBRANCH   1  15
TORSDOF 4
ENDMDL
MODEL 6
REMARK VINA RESULT:    -7.069      3.890      7.154
REMARK INTER + INTRA:          -9.291
REMARK INTER:                  -8.717
REMARK INTRA:                  -0.574
REMARK UNBOUND:                -0.569
REMARK  Name = 
REMARK  4 active torsions:
REMARK  status: ('A' for Active; 'I' for Inactive)
REMARK    1  A    between atoms: C_2  and  C_4
REMARK    2  A    between atoms: N_8  and  C_9
REMARK    3  A    between atoms: C_9  and  C_10
REMARK    4  A    between atoms: C_14  and  C_15
REMARK                            x       y       z     vdW  Elec       q    Type
REMARK                         _______ _______ _______ _____ _____    ______ ____
ROOT
ATOM      1  C   UNL     1      45.700   4.929  13.940  0.00  0.00    +0.000 C 
ENDROOT
BRANCH   1   6
ATOM      2  C   UNL     1      48.788   8.588  11.990  0.00  0.00    +0.000 A 
ATOM      3  C   UNL     1      47.410   8.572  12.168  0.00  0.00    +0.000 A 
ATOM      4  C   UNL     1      46.808   7.440  12.715  0.00  0.00    +0.000 A 
ATOM      5  C   UNL     1      47.583   6.340  13.064  0.00  0.00    +0.000 A 
ATOM      6  N   UNL     1      47.088   5.226  13.682  0.00  0.00    +0.000 N 
ATOM      7  N   UNL     1      48.915   6.330  12.856  0.00  0.00    +0.000 NA
ATOM      8  C   UNL     1      49.489   7.439  12.319  0.00  0.00    +0.000 A 
ATOM      9  H   UNL     1      47.773   4.485  13.751  0.00  0.00    +0.000 HD
BRANCH   2  11
ATOM     10  N   UNL     1      50.880   9.693  11.456  0.00  0.00    +0.000 N 
ATOM     11  C   UNL     1      49.512   9.761  11.464  0.00  0.00    +0.000 C 
ATOM     12  O   UNL     1      48.921  10.734  11.018  0.00  0.00    +0.000 OA
ATOM     13  H   UNL     1      51.365  10.456  10.998  0.00  0.00    +0.000 HD
ATOM     14  H   UNL     1      51.383   8.826  11.574  0.00  0.00    +0.000 HD
ENDBRANCH   2  11
ENDBRANCH   1   6
BRANCH   1  15
ATOM     15  C   UNL     1      44.909   4.801  12.660  0.00  0.00    +0.000 A 
ATOM     16  C   UNL     1      43.625   5.346  12.550  0.00  0.00    +0.000 A 
ATOM     17  C   UNL     1      42.905   5.212  11.366  0.00  0.00    +0.000 A 
ATOM     18  C   UNL     1      43.464   4.537  10.279  0.00  0.00    +0.000 A 
ATOM     19  C   UNL     1      44.756   3.987  10.344  0.00  0.00    +0.000 A 
ATOM     20  C   UNL     1      45.455   4.123  11.557  0.00  0.00    +0.000 A 
BRANCH  19  21
ATOM     21  C   UNL     1      45.374   3.323   9.180  0.00  0.00    +0.000 A 
ATOM     22  C   UNL     1      45.506   1.930   9.106  0.00  0.00    +0.000 A 
ATOM     23  N   UNL     1      46.044   1.246   8.065  0.00  0.00    +0.000 NA
ATOM     24  C   UNL     1      46.466   1.987   7.017  0.00  0.00    +0.000 A 
ATOM     25  C   UNL     1      46.380   3.365   6.980  0.00  0.00    +0.000 A 
ATOM     26  F   UNL     1      46.807   4.047   5.910  0.00  0.00    +0.000 F 
ATOM     27  C   UNL     1      45.838   4.040   8.067  0.00  0.00    +0.000 A 
ENDBRANCH  19  21
ENDBRANCH   1  15
TORSDOF 4
ENDMDL
MODEL 7
REMARK VINA RESULT:    -6.690      3.999      8.338
REMARK INTER + INTRA:          -8.823
REMARK INTER:                  -8.353
REMARK INTRA:                  -0.470
REMARK UNBOUND:                -0.569
REMARK  Name = 
REMARK  4 active torsions:
REMARK  status: ('A' for Active; 'I' for Inactive)
REMARK    1  A    between atoms: C_2  and  C_4
REMARK    2  A    between atoms: N_8  and  C_9
REMARK    3  A    between atoms: C_9  and  C_10
REMARK    4  A    between atoms: C_14  and  C_15
REMARK                            x       y       z     vdW  Elec       q    Type
REMARK                         _______ _______ _______ _____ _____    ______ ____
ROOT
ATOM      1  C   UNL     1      45.308   4.290  13.890  0.00  0.00    +0.000 C 
ENDROOT
BRANCH   1   6
ATOM      2  C   UNL     1      49.270   4.927  17.148  0.00  0.00    +0.000 A 
ATOM      3  C   UNL     1      48.252   3.981  17.141  0.00  0.00    +0.000 A 
ATOM      4  C   UNL     1      47.282   4.034  16.141  0.00  0.00    +0.000 A 
ATOM      5  C   UNL     1      47.333   5.031  15.174  0.00  0.00    +0.000 A 
ATOM      6  N   UNL     1      46.475   5.107  14.113  0.00  0.00    +0.000 N 
ATOM      7  N   UNL     1      48.293   5.978  15.198  0.00  0.00    +0.000 NA
ATOM      8  C   UNL     1      49.231   5.917  16.180  0.00  0.00    +0.000 A 
ATOM      9  H   UNL     1      46.589   5.961  13.583  0.00  0.00    +0.000 HD
BRANCH   2  11
ATOM     10  N   UNL     1      51.598   5.323  17.705  0.00  0.00    +0.000 N 
ATOM     11  C   UNL     1      50.364   4.916  18.138  0.00  0.00    +0.000 C 
ATOM     12  O   UNL     1      50.172   4.598  19.303  0.00  0.00    +0.000 OA
ATOM     13  H   UNL     1      52.316   5.413  18.413  0.00  0.00    +0.000 HD
ATOM     14  H   UNL     1      51.733   5.824  16.840  0.00  0.00    +0.000 HD
ENDBRANCH   2  11
ENDBRANCH   1   6
BRANCH   1  15
ATOM     15  C   UNL     1      44.761   4.467  12.494  0.00  0.00    +0.000 A 
ATOM     16  C   UNL     1      43.695   5.337  12.244  0.00  0.00    +0.000 A 
ATOM     17  C   UNL     1      43.196   5.483  10.952  0.00  0.00    +0.000 A 
ATOM     18  C   UNL     1      43.763   4.764   9.897  0.00  0.00    +0.000 A 
ATOM     19  C   UNL     1      44.843   3.890  10.104  0.00  0.00    +0.000 A 
ATOM     20  C   UNL     1      45.317   3.749  11.421  0.00  0.00    +0.000 A 
BRANCH  19  21
ATOM     21  C   UNL     1      45.483   3.171   8.985  0.00  0.00    +0.000 A 
ATOM     22  C   UNL     1      45.693   1.786   9.018  0.00  0.00    +0.000 A 
ATOM     23  N   UNL     1      46.255   1.052   8.024  0.00  0.00    +0.000 NA
ATOM     24  C   UNL     1      46.621   1.731   6.915  0.00  0.00    +0.000 A 
ATOM     25  C   UNL     1      46.456   3.094   6.771  0.00  0.00    +0.000 A 
ATOM     26  F   UNL     1      46.829   3.712   5.643  0.00  0.00    +0.000 F 
ATOM     27  C   UNL     1      45.890   3.822   7.811  0.00  0.00    +0.000 A 
ENDBRANCH  19  21
ENDBRANCH   1  15
TORSDOF 4
ENDMDL
MODEL 8
REMARK VINA RESULT:    -6.321      4.753      8.467
REMARK INTER + INTRA:          -8.368
REMARK INTER:                  -7.704
REMARK INTRA:                  -0.664
REMARK UNBOUND:                -0.569
REMARK  Name = 
REMARK  4 active torsions:
REMARK  status: ('A' for Active; 'I' for Inactive)
REMARK    1  A    between atoms: C_2  and  C_4
REMARK    2  A    between atoms: N_8  and  C_9
REMARK    3  A    between atoms: C_9  and  C_10
REMARK    4  A    between atoms: C_14  and  C_15
REMARK                            x       y       z     vdW  Elec       q    Type
REMARK                         _______ _______ _______ _____ _____    ______ ____
ROOT
ATOM      1  C   UNL     1      49.212   7.903  12.589  0.00  0.00    +0.000 C 
ENDROOT
BRANCH   1   6
ATOM      2  C   UNL     1      49.081   7.440  17.735  0.00  0.00    +0.000 A 
ATOM      3  C   UNL     1      48.575   8.434  16.907  0.00  0.00    +0.000 A 
ATOM      4  C   UNL     1      48.755   8.327  15.528  0.00  0.00    +0.000 A 
ATOM      5  C   UNL     1      49.446   7.243  14.999  0.00  0.00    +0.000 A 
ATOM      6  N   UNL     1      49.594   7.016  13.660  0.00  0.00    +0.000 N 
ATOM      7  N   UNL     1      49.976   6.296  15.799  0.00  0.00    +0.000 NA
ATOM      8  C   UNL     1      49.795   6.413  17.141  0.00  0.00    +0.000 A 
ATOM      9  H   UNL     1      50.222   6.247  13.465  0.00  0.00    +0.000 HD
BRANCH   2  11
ATOM     10  N   UNL     1      47.610   7.325  19.661  0.00  0.00    +0.000 N 
ATOM     11  C   UNL     1      48.894   7.448  19.199  0.00  0.00    +0.000 C 
ATOM     12  O   UNL     1      49.842   7.520  19.968  0.00  0.00    +0.000 OA
ATOM     13  H   UNL     1      47.500   7.226  20.663  0.00  0.00    +0.000 HD
ATOM     14  H   UNL     1      46.849   7.013  19.077  0.00  0.00    +0.000 HD
ENDBRANCH   2  11
ENDBRANCH   1   6
BRANCH   1  15
ATOM     15  C   UNL     1      47.722   7.881  12.349  0.00  0.00    +0.000 A 
ATOM     16  C   UNL     1      46.996   9.071  12.222  0.00  0.00    +0.000 A 
ATOM     17  C   UNL     1      45.620   9.033  12.009  0.00  0.00    +0.000 A 
ATOM     18  C   UNL     1      44.959   7.806  11.916  0.00  0.00    +0.000 A 
ATOM     19  C   UNL     1      45.654   6.590  12.025  0.00  0.00    +0.000 A 
ATOM     20  C   UNL     1      47.040   6.656  12.255  0.00  0.00    +0.000 A 
BRANCH  19  21
ATOM     21  C   UNL     1      44.970   5.291  11.870  0.00  0.00    +0.000 A 
ATOM     22  C   UNL     1      44.398   4.621  12.960  0.00  0.00    +0.000 A 
ATOM     23  N   UNL     1      43.737   3.437  12.896  0.00  0.00    +0.000 NA
ATOM     24  C   UNL     1      43.621   2.884  11.669  0.00  0.00    +0.000 A 
ATOM     25  C   UNL     1      44.140   3.458  10.526  0.00  0.00    +0.000 A 
ATOM     26  F   UNL     1      43.985   2.868   9.334  0.00  0.00    +0.000 F 
ATOM     27  C   UNL     1      44.824   4.664  10.624  0.00  0.00    +0.000 A 
ENDBRANCH  19  21
ENDBRANCH   1  15
TORSDOF 4
ENDMDL
