MODEL 1
REMARK VINA RESULT:    -7.559      0.000      0.000
REMARK INTER + INTRA:         -12.208
REMARK INTER:                 -11.315
REMARK INTRA:                  -0.893
REMARK UNBOUND:                -0.893
REMARK  Name = 
REMARK  11 active torsions:
REMARK  status: ('A' for Active; 'I' for Inactive)
REMARK    1  A    between atoms: C_1  and  C_2
REMARK    2  A    between atoms: C_2  and  N_3
REMARK    3  A    between atoms: N_3  and  C_4
REMARK    4  A    between atoms: C_4  and  C_5
REMARK    5  A    between atoms: N_8  and  C_9
REMARK    6  A    between atoms: C_9  and  C_10
REMARK    7  A    between atoms: C_13  and  C_14
REMARK    8  A    between atoms: C_14  and  O_15
REMARK    9  A    between atoms: C_14  and  C_16
REMARK   10  A    between atoms: C_16  and  O_17
REMARK   11  A    between atoms: O_17  and  C_18
REMARK                            x       y       z     vdW  Elec       q    Type
REMARK                         _______ _______ _______ _____ _____    ______ ____
ROOT
ATOM      1  C   UNL     1      46.901   6.092  13.648  0.00  0.00    +0.000 A 
ATOM      2  C   UNL     1      46.467   4.809  13.954  0.00  0.00    +0.000 A 
ATOM      3  N   UNL     1      45.244   4.345  13.601  0.00  0.00    +0.000 NA
ATOM      4  C   UNL     1      44.439   5.218  12.937  0.00  0.00    +0.000 A 
ATOM      5  C   UNL     1      44.865   6.512  12.662  0.00  0.00    +0.000 A 
ATOM      6  N   UNL     1      46.090   6.979  13.014  0.00  0.00    +0.000 NA
ENDROOT
BRANCH   1   7
ATOM      7  C   UNL     1      48.284   6.541  14.027  0.00  0.00    +0.000 C 
BRANCH   7  11
ATOM      8  N   UNL     1      48.823   6.932  17.653  0.00  0.00    +0.000 N 
ATOM      9  C   UNL     1      48.764   6.289  16.416  0.00  0.00    +0.000 C 
ATOM     10  O   UNL     1      49.116   5.124  16.247  0.00  0.00    +0.000 OA
ATOM     11  N   UNL     1      48.340   7.066  15.374  0.00  0.00    +0.000 N 
ATOM     12  H   UNL     1      47.686   7.807  15.567  0.00  0.00    +0.000 HD
BRANCH   8  14
ATOM     13  C   UNL     1      50.847   6.635  19.074  0.00  0.00    +0.000 C 
ATOM     14  C   UNL     1      49.431   6.181  18.756  0.00  0.00    +0.000 C 
ENDBRANCH   8  14
BRANCH   8  15
ATOM     15  C   UNL     1      48.431   8.337  17.827  0.00  0.00    +0.000 C 
ATOM     16  C   UNL     1      47.444   8.687  18.928  0.00  0.00    +0.000 C 
ENDBRANCH   8  15
ENDBRANCH   7  11
ENDBRANCH   1   7
BRANCH   4  17
ATOM     17  C   UNL     1      43.089   4.741  12.447  0.00  0.00    +0.000 C 
BRANCH  17  18
ATOM     18  O   UNL     1      42.322   5.889  12.055  0.00  0.00    +0.000 OA
ATOM     19  H   UNL     1      41.900   6.239  12.860  0.00  0.00    +0.000 HD
ENDBRANCH  17  18
BRANCH  17  20
ATOM     20  C   UNL     1      43.219   3.743  11.281  0.00  0.00    +0.000 C 
BRANCH  20  21
ATOM     21  O   UNL     1      43.616   4.431  10.090  0.00  0.00    +0.000 OA
BRANCH  21  22
ATOM     22  C   UNL     1      44.540   3.795   9.303  0.00  0.00    +0.000 A 
ATOM     23  C   UNL     1      45.399   4.411   8.388  0.00  0.00    +0.000 A 
ATOM     24  C   UNL     1      46.316   3.647   7.657  0.00  0.00    +0.000 A 
ATOM     25  C   UNL     1      46.371   2.268   7.837  0.00  0.00    +0.000 A 
ATOM     26 CL   UNL     1      47.509   1.335   6.947  0.00  0.00    +0.000 Cl
ATOM     27  C   UNL     1      45.511   1.643   8.737  0.00  0.00    +0.000 A 
ATOM     28  C   UNL     1      44.596   2.408   9.465  0.00  0.00    +0.000 A 
ENDBRANCH  21  22
ENDBRANCH  20  21
ENDBRANCH  17  20
ENDBRANCH   4  17
TORSDOF 9
ENDMDL
MODEL 2
REMARK VINA RESULT:    -6.929      1.357      2.077
REMARK INTER + INTRA:         -11.266
REMARK INTER:                 -10.319
REMARK INTRA:                  -0.947
REMARK UNBOUND:                -0.893
REMARK  Name = 
REMARK  11 active torsions:
REMARK  status: ('A' for Active; 'I' for Inactive)
REMARK    1  A    between atoms: C_1  and  C_2
REMARK    2  A    between atoms: C_2  and  N_3
REMARK    3  A    between atoms: N_3  and  C_4
REMARK    4  A    between atoms: C_4  and  C_5
REMARK    5  A    between atoms: N_8  and  C_9
REMARK    6  A    between atoms: C_9  and  C_10
REMARK    7  A    between atoms: C_13  and  C_14
REMARK    8  A    between atoms: C_14  and  O_15
REMARK    9  A    between atoms: C_14  and  C_16
REMARK   10  A    between atoms: C_16  and  O_17
REMARK   11  A    between atoms: O_17  and  C_18
REMARK                            x       y       z     vdW  Elec       q    Type
REMARK                         _______ _______ _______ _____ _____    ______ ____
ROOT
ATOM      1  C   UNL     1      47.420   6.353  13.462  0.00  0.00    +0.000 A 
ATOM      2  C   UNL     1      46.401   7.139  12.943  0.00  0.00    +0.000 A 
ATOM      3  N   UNL     1      45.168   6.651  12.666  0.00  0.00    +0.000 NA
ATOM      4  C   UNL     1      44.979   5.325  12.906  0.00  0.00    +0.000 A 
ATOM      5  C   UNL     1      46.012   4.535  13.395  0.00  0.00    +0.000 A 
ATOM      6  N   UNL     1      47.248   5.021  13.674  0.00  0.00    +0.000 NA
ENDROOT
BRANCH   1   7
ATOM      7  C   UNL     1      48.758   6.955  13.791  0.00  0.00    +0.000 C 
BRANCH   7  11
ATOM      8  N   UNL     1      49.029   7.891  17.347  0.00  0.00    +0.000 N 
ATOM      9  C   UNL     1      48.778   8.049  15.983  0.00  0.00    +0.000 C 
ATOM     10  O   UNL     1      48.313   9.078  15.500  0.00  0.00    +0.000 OA
ATOM     11  N   UNL     1      49.027   6.947  15.212  0.00  0.00    +0.000 N 
ATOM     12  H   UNL     1      49.760   6.319  15.501  0.00  0.00    +0.000 HD
BRANCH   8  14
ATOM     13  C   UNL     1      49.790   9.800  18.754  0.00  0.00    +0.000 C 
ATOM     14  C   UNL     1      48.616   8.992  18.223  0.00  0.00    +0.000 C 
ENDBRANCH   8  14
BRANCH   8  15
ATOM     15  C   UNL     1      49.552   6.639  17.909  0.00  0.00    +0.000 C 
ATOM     16  C   UNL     1      48.637   5.790  18.775  0.00  0.00    +0.000 C 
ENDBRANCH   8  15
ENDBRANCH   7  11
ENDBRANCH   1   7
BRANCH   4  17
ATOM     17  C   UNL     1      43.603   4.731  12.690  0.00  0.00    +0.000 C 
BRANCH  17  18
ATOM     18  O   UNL     1      42.650   5.534  13.402  0.00  0.00    +0.000 OA
ATOM     19  H   UNL     1      42.983   5.632  14.312  0.00  0.00    +0.000 HD
ENDBRANCH  17  18
BRANCH  17  20
ATOM     20  C   UNL     1      43.242   4.645  11.194  0.00  0.00    +0.000 C 
BRANCH  20  21
ATOM     21  O   UNL     1      43.393   3.298  10.732  0.00  0.00    +0.000 OA
BRANCH  21  22
ATOM     22  C   UNL     1      44.331   3.096   9.755  0.00  0.00    +0.000 A 
ATOM     23  C   UNL     1      44.826   1.856   9.339  0.00  0.00    +0.000 A 
ATOM     24  C   UNL     1      45.772   1.784   8.311  0.00  0.00    +0.000 A 
ATOM     25  C   UNL     1      46.226   2.950   7.700  0.00  0.00    +0.000 A 
ATOM     26 CL   UNL     1      47.378   2.855   6.427  0.00  0.00    +0.000 Cl
ATOM     27  C   UNL     1      45.748   4.191   8.115  0.00  0.00    +0.000 A 
ATOM     28  C   UNL     1      44.804   4.260   9.143  0.00  0.00    +0.000 A 
ENDBRANCH  21  22
ENDBRANCH  20  21
ENDBRANCH  17  20
ENDBRANCH   4  17
TORSDOF 9
ENDMDL
MODEL 3
REMARK VINA RESULT:    -6.847      3.722      9.007
REMARK INTER + INTRA:         -11.142
REMARK INTER:                 -10.509
REMARK INTRA:                  -0.633
REMARK UNBOUND:                -0.893
REMARK  Name = 
REMARK  11 active torsions:
REMARK  status: ('A' for Active; 'I' for Inactive)
REMARK    1  A    between atoms: C_1  and  C_2
REMARK    2  A    between atoms: C_2  and  N_3
REMARK    3  A    between atoms: N_3  and  C_4
REMARK    4  A    between atoms: C_4  and  C_5
REMARK    5  A    between atoms: N_8  and  C_9
REMARK    6  A    between atoms: C_9  and  C_10
REMARK    7  A    between atoms: C_13  and  C_14
REMARK    8  A    between atoms: C_14  and  O_15
REMARK    9  A    between atoms: C_14  and  C_16
REMARK   10  A    between atoms: C_16  and  O_17
REMARK   11  A    between atoms: O_17  and  C_18
REMARK                            x       y       z     vdW  Elec       q    Type
REMARK                         _______ _______ _______ _____ _____    ______ ____
ROOT
ATOM      1  C   UNL     1      45.316   4.402  11.843  0.00  0.00    +0.000 A 
ATOM      2  C   UNL     1      45.746   3.309  12.585  0.00  0.00    +0.000 A 
ATOM      3  N   UNL     1      46.515   3.433  13.693  0.00  0.00    +0.000 NA
ATOM      4  C   UNL     1      46.871   4.699  14.039  0.00  0.00    +0.000 A 
ATOM      5  C   UNL     1      46.466   5.787  13.275  0.00  0.00    +0.000 A 
ATOM      6  N   UNL     1      45.694   5.667  12.165  0.00  0.00    +0.000 NA
ENDROOT
BRANCH   1   7
ATOM      7  C   UNL     1      44.428   4.210  10.645  0.00  0.00    +0.000 C 
BRANCH   7  11
ATOM      8  N   UNL     1      46.236   2.572   7.881  0.00  0.00    +0.000 N 
ATOM      9  C   UNL     1      45.741   3.616   8.665  0.00  0.00    +0.000 C 
ATOM     10  O   UNL     1      46.024   4.795   8.469  0.00  0.00    +0.000 OA
ATOM     11  N   UNL     1      44.959   3.234   9.720  0.00  0.00    +0.000 N 
ATOM     12  H   UNL     1      44.410   2.395   9.627  0.00  0.00    +0.000 HD
BRANCH   8  14
ATOM     13  C   UNL     1      46.600   2.999   5.454  0.00  0.00    +0.000 C 
ATOM     14  C   UNL     1      47.210   2.932   6.846  0.00  0.00    +0.000 C 
ENDBRANCH   8  14
BRANCH   8  15
ATOM     15  C   UNL     1      45.914   1.165   8.154  0.00  0.00    +0.000 C 
ATOM     16  C   UNL     1      46.828   0.087   7.597  0.00  0.00    +0.000 C 
ENDBRANCH   8  15
ENDBRANCH   7  11
ENDBRANCH   1   7
BRANCH   4  17
ATOM     17  C   UNL     1      47.667   4.915  15.308  0.00  0.00    +0.000 C 
BRANCH  17  18
ATOM     18  O   UNL     1      47.804   6.329  15.518  0.00  0.00    +0.000 OA
ATOM     19  H   UNL     1      48.742   6.498  15.715  0.00  0.00    +0.000 HD
ENDBRANCH  17  18
BRANCH  17  20
ATOM     20  C   UNL     1      47.005   4.240  16.525  0.00  0.00    +0.000 C 
BRANCH  20  21
ATOM     21  O   UNL     1      47.669   3.007  16.821  0.00  0.00    +0.000 OA
BRANCH  21  22
ATOM     22  C   UNL     1      48.968   3.106  17.245  0.00  0.00    +0.000 A 
ATOM     23  C   UNL     1      49.506   4.155  17.997  0.00  0.00    +0.000 A 
ATOM     24  C   UNL     1      50.850   4.127  18.386  0.00  0.00    +0.000 A 
ATOM     25  C   UNL     1      51.657   3.052  18.020  0.00  0.00    +0.000 A 
ATOM     26 CL   UNL     1      53.304   3.015  18.513  0.00  0.00    +0.000 Cl
ATOM     27  C   UNL     1      51.134   2.008  17.261  0.00  0.00    +0.000 A 
ATOM     28  C   UNL     1      49.792   2.040  16.873  0.00  0.00    +0.000 A 
ENDBRANCH  21  22
ENDBRANCH  20  21
ENDBRANCH  17  20
ENDBRANCH   4  17
TORSDOF 9
ENDMDL
MODEL 4
REMARK VINA RESULT:    -6.415      2.217      2.779
REMARK INTER + INTRA:         -10.495
REMARK INTER:                  -9.777
REMARK INTRA:                  -0.718
REMARK UNBOUND:                -0.893
REMARK  Name = 
REMARK  11 active torsions:
REMARK  status: ('A' for Active; 'I' for Inactive)
REMARK    1  A    between atoms: C_1  and  C_2
REMARK    2  A    between atoms: C_2  and  N_3
REMARK    3  A    between atoms: N_3  and  C_4
REMARK    4  A    between atoms: C_4  and  C_5
REMARK    5  A    between atoms: N_8  and  C_9
REMARK    6  A    between atoms: C_9  and  C_10
REMARK    7  A    between atoms: C_13  and  C_14
REMARK    8  A    between atoms: C_14  and  O_15
REMARK    9  A    between atoms: C_14  and  C_16
REMARK   10  A    between atoms: C_16  and  O_17
REMARK   11  A    between atoms: O_17  and  C_18
REMARK                            x       y       z     vdW  Elec       q    Type
REMARK                         _______ _______ _______ _____ _____    ______ ____
ROOT
ATOM      1  C   UNL     1      46.961   6.801  12.395  0.00  0.00    +0.000 A 
ATOM      2  C   UNL     1      46.773   5.876  13.414  0.00  0.00    +0.000 A 
ATOM      3  N   UNL     1      46.049   4.743  13.250  0.00  0.00    +0.000 NA
ATOM      4  C   UNL     1      45.487   4.561  12.024  0.00  0.00    +0.000 A 
ATOM      5  C   UNL     1      45.651   5.505  11.018  0.00  0.00    +0.000 A 
ATOM      6  N   UNL     1      46.377   6.641  11.179  0.00  0.00    +0.000 NA
ENDROOT
BRANCH   1   7
ATOM      7  C   UNL     1      47.810   8.021  12.619  0.00  0.00    +0.000 C 
BRANCH   7  11
ATOM      8  N   UNL     1      50.745   7.846  14.843  0.00  0.00    +0.000 N 
ATOM      9  C   UNL     1      50.032   7.933  13.647  0.00  0.00    +0.000 C 
ATOM     10  O   UNL     1      50.570   8.098  12.554  0.00  0.00    +0.000 OA
ATOM     11  N   UNL     1      48.672   7.885  13.773  0.00  0.00    +0.000 N 
ATOM     12  H   UNL     1      48.281   7.350  14.532  0.00  0.00    +0.000 HD
BRANCH   8  14
ATOM     13  C   UNL     1      52.983   7.130  15.671  0.00  0.00    +0.000 C 
ATOM     14  C   UNL     1      52.193   8.062  14.763  0.00  0.00    +0.000 C 
ENDBRANCH   8  14
BRANCH   8  15
ATOM     15  C   UNL     1      50.080   7.685  16.143  0.00  0.00    +0.000 C 
ATOM     16  C   UNL     1      49.732   6.284  16.615  0.00  0.00    +0.000 C 
ENDBRANCH   8  15
ENDBRANCH   7  11
ENDBRANCH   1   7
BRANCH   4  17
ATOM     17  C   UNL     1      44.728   3.281  11.750  0.00  0.00    +0.000 C 
BRANCH  17  18
ATOM     18  O   UNL     1      43.755   3.104  12.790  0.00  0.00    +0.000 OA
ATOM     19  H   UNL     1      43.250   2.300  12.574  0.00  0.00    +0.000 HD
ENDBRANCH  17  18
BRANCH  17  20
ATOM     20  C   UNL     1      44.056   3.296  10.364  0.00  0.00    +0.000 C 
BRANCH  20  21
ATOM     21  O   UNL     1      44.290   2.052   9.693  0.00  0.00    +0.000 OA
BRANCH  21  22
ATOM     22  C   UNL     1      45.214   2.076   8.682  0.00  0.00    +0.000 A 
ATOM     23  C   UNL     1      46.053   1.020   8.314  0.00  0.00    +0.000 A 
ATOM     24  C   UNL     1      46.943   1.166   7.244  0.00  0.00    +0.000 A 
ATOM     25  C   UNL     1      46.996   2.368   6.544  0.00  0.00    +0.000 A 
ATOM     26 CL   UNL     1      48.081   2.537   5.220  0.00  0.00    +0.000 Cl
ATOM     27  C   UNL     1      46.173   3.430   6.909  0.00  0.00    +0.000 A 
ATOM     28  C   UNL     1      45.286   3.282   7.979  0.00  0.00    +0.000 A 
ENDBRANCH  21  22
ENDBRANCH  20  21
ENDBRANCH  17  20
ENDBRANCH   4  17
TORSDOF 9
ENDMDL
MODEL 5
REMARK VINA RESULT:    -6.117      1.770      2.304
REMARK INTER + INTRA:         -10.050
REMARK INTER:                  -9.421
REMARK INTRA:                  -0.629
REMARK UNBOUND:                -0.893
REMARK  Name = 
REMARK  11 active torsions:
REMARK  status: ('A' for Active; 'I' for Inactive)
REMARK    1  A    between atoms: C_1  and  C_2
REMARK    2  A    between atoms: C_2  and  N_3
REMARK    3  A    between atoms: N_3  and  C_4
REMARK    4  A    between atoms: C_4  and  C_5
REMARK    5  A    between atoms: N_8  and  C_9
REMARK    6  A    between atoms: C_9  and  C_10
REMARK    7  A    between atoms: C_13  and  C_14
REMARK    8  A    between atoms: C_14  and  O_15
REMARK    9  A    between atoms: C_14  and  C_16
REMARK   10  A    between atoms: C_16  and  O_17
REMARK   11  A    between atoms: O_17  and  C_18
REMARK                            x       y       z     vdW  Elec       q    Type
REMARK                         _______ _______ _______ _____ _____    ______ ____
ROOT
ATOM      1  C   UNL     1      48.236   7.136  14.186  0.00  0.00    +0.000 A 
ATOM      2  C   UNL     1      47.558   8.177  13.566  0.00  0.00    +0.000 A 
ATOM      3  N   UNL     1      46.630   7.973  12.600  0.00  0.00    +0.000 NA
ATOM      4  C   UNL     1      46.404   6.680  12.247  0.00  0.00    +0.000 A 
ATOM      5  C   UNL     1      47.108   5.643  12.847  0.00  0.00    +0.000 A 
ATOM      6  N   UNL     1      48.038   5.844  13.815  0.00  0.00    +0.000 NA
ENDROOT
BRANCH   1   7
ATOM      7  C   UNL     1      49.226   7.415  15.282  0.00  0.00    +0.000 C 
BRANCH   7  11
ATOM      8  N   UNL     1      48.639   5.594  18.434  0.00  0.00    +0.000 N 
ATOM      9  C   UNL     1      49.145   5.839  17.156  0.00  0.00    +0.000 C 
ATOM     10  O   UNL     1      49.946   5.095  16.596  0.00  0.00    +0.000 OA
ATOM     11  N   UNL     1      48.735   7.010  16.581  0.00  0.00    +0.000 N 
ATOM     12  H   UNL     1      47.822   7.364  16.817  0.00  0.00    +0.000 HD
BRANCH   8  14
ATOM     13  C   UNL     1      48.445   3.144  18.836  0.00  0.00    +0.000 C 
ATOM     14  C   UNL     1      49.187   4.435  19.146  0.00  0.00    +0.000 C 
ENDBRANCH   8  14
BRANCH   8  15
ATOM     15  C   UNL     1      47.710   6.516  19.100  0.00  0.00    +0.000 C 
ATOM     16  C   UNL     1      47.430   6.324  20.581  0.00  0.00    +0.000 C 
ENDBRANCH   8  15
ENDBRANCH   7  11
ENDBRANCH   1   7
BRANCH   4  17
ATOM     17  C   UNL     1      45.326   6.377  11.228  0.00  0.00    +0.000 C 
BRANCH  17  18
ATOM     18  O   UNL     1      44.539   7.563  11.040  0.00  0.00    +0.000 OA
ATOM     19  H   UNL     1      43.752   7.476  11.607  0.00  0.00    +0.000 HD
ENDBRANCH  17  18
BRANCH  17  20
ATOM     20  C   UNL     1      45.918   5.892   9.891  0.00  0.00    +0.000 C 
BRANCH  20  21
ATOM     21  O   UNL     1      44.963   5.078   9.200  0.00  0.00    +0.000 OA
BRANCH  21  22
ATOM     22  C   UNL     1      45.428   3.891   8.701  0.00  0.00    +0.000 A 
ATOM     23  C   UNL     1      46.396   3.745   7.702  0.00  0.00    +0.000 A 
ATOM     24  C   UNL     1      46.802   2.470   7.294  0.00  0.00    +0.000 A 
ATOM     25  C   UNL     1      46.238   1.340   7.881  0.00  0.00    +0.000 A 
ATOM     26 CL   UNL     1      46.752  -0.225   7.386  0.00  0.00    +0.000 Cl
ATOM     27  C   UNL     1      45.265   1.474   8.869  0.00  0.00    +0.000 A 
ATOM     28  C   UNL     1      44.861   2.749   9.274  0.00  0.00    +0.000 A 
ENDBRANCH  21  22
ENDBRANCH  20  21
ENDBRANCH  17  20
ENDBRANCH   4  17
TORSDOF 9
ENDMDL
MODEL 6
REMARK VINA RESULT:    -5.753      2.923      3.826
REMARK INTER + INTRA:          -9.505
REMARK INTER:                  -8.747
REMARK INTRA:                  -0.757
REMARK UNBOUND:                -0.893
REMARK  Name = 
REMARK  11 active torsions:
REMARK  status: ('A' for Active; 'I' for Inactive)
REMARK    1  A    between atoms: C_1  and  C_2
REMARK    2  A    between atoms: C_2  and  N_3
REMARK    3  A    between atoms: N_3  and  C_4
REMARK    4  A    between atoms: C_4  and  C_5
REMARK    5  A    between atoms: N_8  and  C_9
REMARK    6  A    between atoms: C_9  and  C_10
REMARK    7  A    between atoms: C_13  and  C_14
REMARK    8  A    between atoms: C_14  and  O_15
REMARK    9  A    between atoms: C_14  and  C_16
REMARK   10  A    between atoms: C_16  and  O_17
REMARK   11  A    between atoms: O_17  and  C_18
REMARK                            x       y       z     vdW  Elec       q    Type
REMARK                         _______ _______ _______ _____ _____    ______ ____
ROOT
ATOM      1  C   UNL     1      45.420   6.984  12.382  0.00  0.00    +0.000 A 
ATOM      2  C   UNL     1      44.624   6.255  13.256  0.00  0.00    +0.000 A 
ATOM      3  N   UNL     1      44.239   4.980  13.006  0.00  0.00    +0.000 NA
ATOM      4  C   UNL     1      44.659   4.446  11.828  0.00  0.00    +0.000 A 
ATOM      5  C   UNL     1      45.428   5.190  10.941  0.00  0.00    +0.000 A 
ATOM      6  N   UNL     1      45.816   6.467  11.190  0.00  0.00    +0.000 NA
ENDROOT
BRANCH   1   7
ATOM      7  C   UNL     1      45.853   8.381  12.729  0.00  0.00    +0.000 C 
BRANCH   7  11
ATOM      8  N   UNL     1      49.411   9.344  12.820  0.00  0.00    +0.000 N 
ATOM      9  C   UNL     1      48.084   9.333  12.386  0.00  0.00    +0.000 C 
ATOM     10  O   UNL     1      47.654  10.090  11.519  0.00  0.00    +0.000 OA
ATOM     11  N   UNL     1      47.264   8.456  13.040  0.00  0.00    +0.000 N 
ATOM     12  H   UNL     1      47.664   7.603  13.396  0.00  0.00    +0.000 HD
BRANCH   8  14
ATOM     13  C   UNL     1      51.154   9.881  11.124  0.00  0.00    +0.000 C 
ATOM     14  C   UNL     1      50.277  10.386  12.259  0.00  0.00    +0.000 C 
ENDBRANCH   8  14
BRANCH   8  15
ATOM     15  C   UNL     1      49.896   8.455  13.883  0.00  0.00    +0.000 C 
ATOM     16  C   UNL     1      49.839   8.940  15.321  0.00  0.00    +0.000 C 
ENDBRANCH   8  15
ENDBRANCH   7  11
ENDBRANCH   1   7
BRANCH   4  17
ATOM     17  C   UNL     1      44.329   3.001  11.520  0.00  0.00    +0.000 C 
BRANCH  17  18
ATOM     18  O   UNL     1      43.194   2.621  12.312  0.00  0.00    +0.000 OA
ATOM     19  H   UNL     1      43.467   1.860  12.854  0.00  0.00    +0.000 HD
ENDBRANCH  17  18
BRANCH  17  20
ATOM     20  C   UNL     1      44.050   2.782  10.020  0.00  0.00    +0.000 C 
BRANCH  20  21
ATOM     21  O   UNL     1      44.874   1.722   9.520  0.00  0.00    +0.000 OA
BRANCH  21  22
ATOM     22  C   UNL     1      45.615   2.008   8.405  0.00  0.00    +0.000 A 
ATOM     23  C   UNL     1      45.624   3.224   7.716  0.00  0.00    +0.000 A 
ATOM     24  C   UNL     1      46.446   3.396   6.597  0.00  0.00    +0.000 A 
ATOM     25  C   UNL     1      47.257   2.350   6.164  0.00  0.00    +0.000 A 
ATOM     26 CL   UNL     1      48.277   2.571   4.797  0.00  0.00    +0.000 Cl
ATOM     27  C   UNL     1      47.248   1.131   6.836  0.00  0.00    +0.000 A 
ATOM     28  C   UNL     1      46.425   0.962   7.953  0.00  0.00    +0.000 A 
ENDBRANCH  21  22
ENDBRANCH  20  21
ENDBRANCH  17  20
ENDBRANCH   4  17
TORSDOF 9
ENDMDL
MODEL 7
REMARK VINA RESULT:    -5.609      3.853      9.344
REMARK INTER + INTRA:          -9.290
REMARK INTER:                  -8.892
REMARK INTRA:                  -0.398
REMARK UNBOUND:                -0.893
REMARK  Name = 
REMARK  11 active torsions:
REMARK  status: ('A' for Active; 'I' for Inactive)
REMARK    1  A    between atoms: C_1  and  C_2
REMARK    2  A    between atoms: C_2  and  N_3
REMARK    3  A    between atoms: N_3  and  C_4
REMARK    4  A    between atoms: C_4  and  C_5
REMARK    5  A    between atoms: N_8  and  C_9
REMARK    6  A    between atoms: C_9  and  C_10
REMARK    7  A    between atoms: C_13  and  C_14
REMARK    8  A    between atoms: C_14  and  O_15
REMARK    9  A    between atoms: C_14  and  C_16
REMARK   10  A    between atoms: C_16  and  O_17
REMARK   11  A    between atoms: O_17  and  C_18
REMARK                            x       y       z     vdW  Elec       q    Type
REMARK                         _______ _______ _______ _____ _____    ______ ____
ROOT
ATOM      1  C   UNL     1      45.584   5.511  12.240  0.00  0.00    +0.000 A 
ATOM      2  C   UNL     1      44.884   4.729  13.149  0.00  0.00    +0.000 A 
ATOM      3  N   UNL     1      45.426   4.297  14.313  0.00  0.00    +0.000 NA
ATOM      4  C   UNL     1      46.718   4.655  14.544  0.00  0.00    +0.000 A 
ATOM      5  C   UNL     1      47.425   5.410  13.617  0.00  0.00    +0.000 A 
ATOM      6  N   UNL     1      46.885   5.845  12.450  0.00  0.00    +0.000 NA
ENDROOT
BRANCH   1   7
ATOM      7  C   UNL     1      44.921   5.998  10.982  0.00  0.00    +0.000 C 
BRANCH   7  11
ATOM      8  N   UNL     1      45.517   3.863   8.036  0.00  0.00    +0.000 N 
ATOM      9  C   UNL     1      45.676   4.945   8.903  0.00  0.00    +0.000 C 
ATOM     10  O   UNL     1      46.548   5.799   8.759  0.00  0.00    +0.000 OA
ATOM     11  N   UNL     1      44.828   4.964   9.975  0.00  0.00    +0.000 N 
ATOM     12  H   UNL     1      43.911   4.561   9.865  0.00  0.00    +0.000 HD
BRANCH   8  14
ATOM     13  C   UNL     1      47.363   2.466   7.117  0.00  0.00    +0.000 C 
ATOM     14  C   UNL     1      46.516   3.721   6.972  0.00  0.00    +0.000 C 
ENDBRANCH   8  14
BRANCH   8  15
ATOM     15  C   UNL     1      44.491   2.833   8.247  0.00  0.00    +0.000 C 
ATOM     16  C   UNL     1      44.913   1.492   8.821  0.00  0.00    +0.000 C 
ENDBRANCH   8  15
ENDBRANCH   7  11
ENDBRANCH   1   7
BRANCH   4  17
ATOM     17  C   UNL     1      47.360   4.269  15.859  0.00  0.00    +0.000 C 
BRANCH  17  18
ATOM     18  O   UNL     1      48.158   3.096  15.643  0.00  0.00    +0.000 OA
ATOM     19  H   UNL     1      47.851   2.692  14.812  0.00  0.00    +0.000 HD
ENDBRANCH  17  18
BRANCH  17  20
ATOM     20  C   UNL     1      48.212   5.414  16.441  0.00  0.00    +0.000 C 
BRANCH  20  21
ATOM     21  O   UNL     1      49.603   5.095  16.327  0.00  0.00    +0.000 OA
BRANCH  21  22
ATOM     22  C   UNL     1      50.302   5.005  17.502  0.00  0.00    +0.000 A 
ATOM     23  C   UNL     1      49.745   4.871  18.777  0.00  0.00    +0.000 A 
ATOM     24  C   UNL     1      50.573   4.768  19.901  0.00  0.00    +0.000 A 
ATOM     25  C   UNL     1      51.956   4.802  19.750  0.00  0.00    +0.000 A 
ATOM     26 CL   UNL     1      52.969   4.660  21.133  0.00  0.00    +0.000 Cl
ATOM     27  C   UNL     1      52.521   4.947  18.485  0.00  0.00    +0.000 A 
ATOM     28  C   UNL     1      51.692   5.050  17.365  0.00  0.00    +0.000 A 
ENDBRANCH  21  22
ENDBRANCH  20  21
ENDBRANCH  17  20
ENDBRANCH   4  17
TORSDOF 9
ENDMDL
MODEL 8
REMARK VINA RESULT:    -5.431      3.190      4.171
REMARK INTER + INTRA:          -9.023
REMARK INTER:                  -8.349
REMARK INTRA:                  -0.674
REMARK UNBOUND:                -0.893
REMARK  Name = 
REMARK  11 active torsions:
REMARK  status: ('A' for Active; 'I' for Inactive)
REMARK    1  A    between atoms: C_1  and  C_2
REMARK    2  A    between atoms: C_2  and  N_3
REMARK    3  A    between atoms: N_3  and  C_4
REMARK    4  A    between atoms: C_4  and  C_5
REMARK    5  A    between atoms: N_8  and  C_9
REMARK    6  A    between atoms: C_9  and  C_10
REMARK    7  A    between atoms: C_13  and  C_14
REMARK    8  A    between atoms: C_14  and  O_15
REMARK    9  A    between atoms: C_14  and  C_16
REMARK   10  A    between atoms: C_16  and  O_17
REMARK   11  A    between atoms: O_17  and  C_18
REMARK                            x       y       z     vdW  Elec       q    Type
REMARK                         _______ _______ _______ _____ _____    ______ ____
ROOT
ATOM      1  C   UNL     1      48.545   7.154  14.295  0.00  0.00    +0.000 A 
ATOM      2  C   UNL     1      47.676   8.181  13.953  0.00  0.00    +0.000 A 
ATOM      3  N   UNL     1      46.546   7.976  13.235  0.00  0.00    +0.000 NA
ATOM      4  C   UNL     1      46.309   6.696  12.839  0.00  0.00    +0.000 A 
ATOM      5  C   UNL     1      47.198   5.677  13.155  0.00  0.00    +0.000 A 
ATOM      6  N   UNL     1      48.331   5.879  13.876  0.00  0.00    +0.000 NA
ENDROOT
BRANCH   1   7
ATOM      7  C   UNL     1      49.764   7.431  15.130  0.00  0.00    +0.000 C 
BRANCH   7  11
ATOM      8  N   UNL     1      52.406   9.342  13.410  0.00  0.00    +0.000 N 
ATOM      9  C   UNL     1      51.252   9.119  14.163  0.00  0.00    +0.000 C 
ATOM     10  O   UNL     1      50.612  10.023  14.696  0.00  0.00    +0.000 OA
ATOM     11  N   UNL     1      50.906   7.807  14.326  0.00  0.00    +0.000 N 
ATOM     12  H   UNL     1      51.138   7.157  13.592  0.00  0.00    +0.000 HD
BRANCH   8  14
ATOM     13  C   UNL     1      52.387  11.488  12.145  0.00  0.00    +0.000 C 
ATOM     14  C   UNL     1      52.899  10.722  13.356  0.00  0.00    +0.000 C 
ENDBRANCH   8  14
BRANCH   8  15
ATOM     15  C   UNL     1      53.176   8.245  12.812  0.00  0.00    +0.000 C 
ATOM     16  C   UNL     1      54.532   8.555  12.200  0.00  0.00    +0.000 C 
ENDBRANCH   8  15
ENDBRANCH   7  11
ENDBRANCH   1   7
BRANCH   4  17
ATOM     17  C   UNL     1      45.027   6.384  12.098  0.00  0.00    +0.000 C 
BRANCH  17  18
ATOM     18  O   UNL     1      44.146   7.510  12.231  0.00  0.00    +0.000 OA
ATOM     19  H   UNL     1      43.289   7.248  11.848  0.00  0.00    +0.000 HD
ENDBRANCH  17  18
BRANCH  17  20
ATOM     20  C   UNL     1      45.284   6.059  10.614  0.00  0.00    +0.000 C 
BRANCH  20  21
ATOM     21  O   UNL     1      44.526   4.907  10.228  0.00  0.00    +0.000 OA
BRANCH  21  22
ATOM     22  C   UNL     1      45.130   4.056   9.340  0.00  0.00    +0.000 A 
ATOM     23  C   UNL     1      45.892   4.435   8.231  0.00  0.00    +0.000 A 
ATOM     24  C   UNL     1      46.474   3.464   7.410  0.00  0.00    +0.000 A 
ATOM     25  C   UNL     1      46.293   2.113   7.696  0.00  0.00    +0.000 A 
ATOM     26 CL   UNL     1      47.025   0.923   6.692  0.00  0.00    +0.000 Cl
ATOM     27  C   UNL     1      45.527   1.724   8.792  0.00  0.00    +0.000 A 
ATOM     28  C   UNL     1      44.945   2.697   9.609  0.00  0.00    +0.000 A 
ENDBRANCH  21  22
ENDBRANCH  20  21
ENDBRANCH  17  20
ENDBRANCH   4  17
TORSDOF 9
ENDMDL
MODEL 9
REMARK VINA RESULT:    -5.404      3.775      9.528
REMARK INTER + INTRA:          -8.983
REMARK INTER:                  -8.243
REMARK INTRA:                  -0.739
REMARK UNBOUND:                -0.893
REMARK  Name = 
REMARK  11 active torsions:
REMARK  status: ('A' for Active; 'I' for Inactive)
REMARK    1  A    between atoms: C_1  and  C_2
REMARK    2  A    between atoms: C_2  and  N_3
REMARK    3  A    between atoms: N_3  and  C_4
REMARK    4  A    between atoms: C_4  and  C_5
REMARK    5  A    between atoms: N_8  and  C_9
REMARK    6  A    between atoms: C_9  and  C_10
REMARK    7  A    between atoms: C_13  and  C_14
REMARK    8  A    between atoms: C_14  and  O_15
REMARK    9  A    between atoms: C_14  and  C_16
REMARK   10  A    between atoms: C_16  and  O_17
REMARK   11  A    between atoms: O_17  and  C_18
REMARK                            x       y       z     vdW  Elec       q    Type
REMARK                         _______ _______ _______ _____ _____    ______ ____
ROOT
ATOM      1  C   UNL     1      45.345   3.800  11.839  0.00  0.00    +0.000 A 
ATOM      2  C   UNL     1      45.976   3.107  12.863  0.00  0.00    +0.000 A 
ATOM      3  N   UNL     1      46.714   3.722  13.818  0.00  0.00    +0.000 NA
ATOM      4  C   UNL     1      46.826   5.074  13.713  0.00  0.00    +0.000 A 
ATOM      5  C   UNL     1      46.221   5.760  12.667  0.00  0.00    +0.000 A 
ATOM      6  N   UNL     1      45.480   5.146  11.709  0.00  0.00    +0.000 NA
ENDROOT
BRANCH   1   7
ATOM      7  C   UNL     1      44.504   3.071  10.829  0.00  0.00    +0.000 C 
BRANCH   7  11
ATOM      8  N   UNL     1      46.134   2.455   7.580  0.00  0.00    +0.000 N 
ATOM      9  C   UNL     1      45.282   3.058   8.506  0.00  0.00    +0.000 C 
ATOM     10  O   UNL     1      44.602   4.049   8.248  0.00  0.00    +0.000 OA
ATOM     11  N   UNL     1      45.297   2.509   9.758  0.00  0.00    +0.000 N 
ATOM     12  H   UNL     1      45.486   1.523   9.844  0.00  0.00    +0.000 HD
BRANCH   8  14
ATOM     13  C   UNL     1      47.490   2.656   5.501  0.00  0.00    +0.000 C 
ATOM     14  C   UNL     1      46.269   3.120   6.280  0.00  0.00    +0.000 C 
ENDBRANCH   8  14
BRANCH   8  15
ATOM     15  C   UNL     1      46.966   1.293   7.920  0.00  0.00    +0.000 C 
ATOM     16  C   UNL     1      46.478  -0.092   7.531  0.00  0.00    +0.000 C 
ENDBRANCH   8  15
ENDBRANCH   7  11
ENDBRANCH   1   7
BRANCH   4  17
ATOM     17  C   UNL     1      47.573   5.832  14.789  0.00  0.00    +0.000 C 
BRANCH  17  18
ATOM     18  O   UNL     1      48.163   4.878  15.684  0.00  0.00    +0.000 OA
ATOM     19  H   UNL     1      48.764   5.371  16.271  0.00  0.00    +0.000 HD
ENDBRANCH  17  18
BRANCH  17  20
ATOM     20  C   UNL     1      48.646   6.766  14.195  0.00  0.00    +0.000 C 
BRANCH  20  21
ATOM     21  O   UNL     1      48.613   8.034  14.860  0.00  0.00    +0.000 OA
BRANCH  21  22
ATOM     22  C   UNL     1      49.187   8.081  16.102  0.00  0.00    +0.000 A 
ATOM     23  C   UNL     1      50.469   7.629  16.430  0.00  0.00    +0.000 A 
ATOM     24  C   UNL     1      50.948   7.754  17.738  0.00  0.00    +0.000 A 
ATOM     25  C   UNL     1      50.145   8.328  18.720  0.00  0.00    +0.000 A 
ATOM     26 CL   UNL     1      50.744   8.493  20.324  0.00  0.00    +0.000 Cl
ATOM     27  C   UNL     1      48.862   8.771  18.407  0.00  0.00    +0.000 A 
ATOM     28  C   UNL     1      48.386   8.644  17.100  0.00  0.00    +0.000 A 
ENDBRANCH  21  22
ENDBRANCH  20  21
ENDBRANCH  17  20
ENDBRANCH   4  17
TORSDOF 9
ENDMDL
