MODEL 1
REMARK VINA RESULT:    -6.876      0.000      0.000
REMARK INTER + INTRA:          -8.201
REMARK INTER:                  -7.680
REMARK INTRA:                  -0.521
REMARK UNBOUND:                -0.521
REMARK  Name = 
REMARK  2 active torsions:
REMARK  status: ('A' for Active; 'I' for Inactive)
REMARK    1  A    between atoms: C_7  and  C_8
REMARK    2  A    between atoms: C_8  and  N_9
REMARK                            x       y       z     vdW  Elec       q    Type
REMARK                         _______ _______ _______ _____ _____    ______ ____
ROOT
ATOM      1  N   UNL     1      50.260   7.476  12.353  0.00  0.00    +0.000 NA
ATOM      2  C   UNL     1      49.266   8.276  12.517  0.00  0.00    +0.000 C 
ATOM      3  N   UNL     1      49.466   9.581  12.802  0.00  0.00    +0.000 N 
ATOM      4  N   UNL     1      47.955   7.886  12.480  0.00  0.00    +0.000 N 
ATOM      5  C   UNL     1      46.880   8.769  12.022  0.00  0.00    +0.000 C 
ATOM      6  C   UNL     1      45.667   8.546  12.920  0.00  0.00    +0.000 C 
ATOM      7  C   UNL     1      45.183   7.085  12.866  0.00  0.00    +0.000 C 
ATOM      8  C   UNL     1      46.366   6.147  13.176  0.00  0.00    +0.000 C 
ATOM      9  C   UNL     1      47.628   6.458  12.362  0.00  0.00    +0.000 C 
ATOM     10  H   UNL     1      51.132   8.001  12.419  0.00  0.00    +0.000 HD
ATOM     11  H   UNL     1      50.403   9.814  13.099  0.00  0.00    +0.000 HD
ATOM     12  H   UNL     1      48.784   9.939  13.457  0.00  0.00    +0.000 HD
ENDROOT
BRANCH   7  13
ATOM     13  C   UNL     1      44.505   6.714  11.528  0.00  0.00    +0.000 C 
BRANCH  13  14
ATOM     14  N   UNL     1      44.232   5.288  11.383  0.00  0.00    +0.000 N 
ATOM     15  C   UNL     1      43.470   4.565  12.268  0.00  0.00    +0.000 A 
ATOM     16  C   UNL     1      43.317   3.296  11.765  0.00  0.00    +0.000 A 
ATOM     17  C   UNL     1      44.042   3.226  10.545  0.00  0.00    +0.000 A 
ATOM     18  C   UNL     1      44.241   2.203   9.596  0.00  0.00    +0.000 A 
ATOM     19  C   UNL     1      45.050   2.443   8.482  0.00  0.00    +0.000 A 
ATOM     20  C   UNL     1      45.669   3.677   8.321  0.00  0.00    +0.000 A 
ATOM     21 CL   UNL     1      46.682   3.941   6.950  0.00  0.00    +0.000 Cl
ATOM     22  C   UNL     1      45.487   4.713   9.243  0.00  0.00    +0.000 A 
ATOM     23  C   UNL     1      44.648   4.473  10.346  0.00  0.00    +0.000 A 
ENDBRANCH  13  14
ENDBRANCH   7  13
TORSDOF 2
ENDMDL
MODEL 2
REMARK VINA RESULT:    -6.512      3.146      6.135
REMARK INTER + INTRA:          -7.794
REMARK INTER:                  -7.189
REMARK INTRA:                  -0.605
REMARK UNBOUND:                -0.521
REMARK  Name = 
REMARK  2 active torsions:
REMARK  status: ('A' for Active; 'I' for Inactive)
REMARK    1  A    between atoms: C_7  and  C_8
REMARK    2  A    between atoms: C_8  and  N_9
REMARK                            x       y       z     vdW  Elec       q    Type
REMARK                         _______ _______ _______ _____ _____    ______ ____
ROOT
ATOM      1  N   UNL     1      48.233   2.866   6.119  0.00  0.00    +0.000 NA
ATOM      2  C   UNL     1      47.410   2.083   6.725  0.00  0.00    +0.000 C 
ATOM      3  N   UNL     1      47.362   0.765   6.428  0.00  0.00    +0.000 N 
ATOM      4  N   UNL     1      46.497   2.501   7.652  0.00  0.00    +0.000 N 
ATOM      5  C   UNL     1      46.051   1.655   8.762  0.00  0.00    +0.000 C 
ATOM      6  C   UNL     1      44.555   1.878   8.959  0.00  0.00    +0.000 C 
ATOM      7  C   UNL     1      44.239   3.350   9.283  0.00  0.00    +0.000 C 
ATOM      8  C   UNL     1      44.864   4.253   8.201  0.00  0.00    +0.000 C 
ATOM      9  C   UNL     1      46.337   3.939   7.914  0.00  0.00    +0.000 C 
ATOM     10  H   UNL     1      48.813   2.321   5.482  0.00  0.00    +0.000 HD
ATOM     11  H   UNL     1      47.826   0.504   5.570  0.00  0.00    +0.000 HD
ATOM     12  H   UNL     1      46.418   0.403   6.448  0.00  0.00    +0.000 HD
ENDROOT
BRANCH   7  13
ATOM     13  C   UNL     1      44.686   3.774  10.700  0.00  0.00    +0.000 C 
BRANCH  13  14
ATOM     14  N   UNL     1      44.365   5.159  11.027  0.00  0.00    +0.000 N 
ATOM     15  C   UNL     1      43.085   5.654  11.066  0.00  0.00    +0.000 A 
ATOM     16  C   UNL     1      43.139   6.948  11.526  0.00  0.00    +0.000 A 
ATOM     17  C   UNL     1      44.506   7.271  11.742  0.00  0.00    +0.000 A 
ATOM     18  C   UNL     1      45.164   8.426  12.208  0.00  0.00    +0.000 A 
ATOM     19  C   UNL     1      46.560   8.442  12.287  0.00  0.00    +0.000 A 
ATOM     20  C   UNL     1      47.294   7.330  11.890  0.00  0.00    +0.000 A 
ATOM     21 CL   UNL     1      49.016   7.381  11.974  0.00  0.00    +0.000 Cl
ATOM     22  C   UNL     1      46.669   6.167  11.427  0.00  0.00    +0.000 A 
ATOM     23  C   UNL     1      45.264   6.150  11.379  0.00  0.00    +0.000 A 
ENDBRANCH  13  14
ENDBRANCH   7  13
TORSDOF 2
ENDMDL
MODEL 3
REMARK VINA RESULT:    -6.104      3.692      7.124
REMARK INTER + INTRA:          -7.339
REMARK INTER:                  -6.991
REMARK INTRA:                  -0.348
REMARK UNBOUND:                -0.521
REMARK  Name = 
REMARK  2 active torsions:
REMARK  status: ('A' for Active; 'I' for Inactive)
REMARK    1  A    between atoms: C_7  and  C_8
REMARK    2  A    between atoms: C_8  and  N_9
REMARK                            x       y       z     vdW  Elec       q    Type
REMARK                         _______ _______ _______ _____ _____    ______ ____
ROOT
ATOM      1  N   UNL     1      44.019   3.076   9.326  0.00  0.00    +0.000 NA
ATOM      2  C   UNL     1      44.080   3.147  10.609  0.00  0.00    +0.000 C 
ATOM      3  N   UNL     1      43.323   2.340  11.385  0.00  0.00    +0.000 N 
ATOM      4  N   UNL     1      44.845   4.054  11.290  0.00  0.00    +0.000 N 
ATOM      5  C   UNL     1      45.428   3.769  12.603  0.00  0.00    +0.000 C 
ATOM      6  C   UNL     1      45.324   5.031  13.454  0.00  0.00    +0.000 C 
ATOM      7  C   UNL     1      46.073   6.212  12.810  0.00  0.00    +0.000 C 
ATOM      8  C   UNL     1      45.579   6.397  11.361  0.00  0.00    +0.000 C 
ATOM      9  C   UNL     1      45.564   5.098  10.546  0.00  0.00    +0.000 C 
ATOM     10  H   UNL     1      43.388   2.321   9.058  0.00  0.00    +0.000 HD
ATOM     11  H   UNL     1      42.569   1.871  10.904  0.00  0.00    +0.000 HD
ATOM     12  H   UNL     1      42.981   2.814  12.210  0.00  0.00    +0.000 HD
ENDROOT
BRANCH   7  13
ATOM     13  C   UNL     1      47.610   6.067  12.868  0.00  0.00    +0.000 C 
BRANCH  13  14
ATOM     14  N   UNL     1      48.203   6.584  14.096  0.00  0.00    +0.000 N 
ATOM     15  C   UNL     1      48.818   7.808  14.187  0.00  0.00    +0.000 A 
ATOM     16  C   UNL     1      49.148   8.026  15.502  0.00  0.00    +0.000 A 
ATOM     17  C   UNL     1      48.755   6.878  16.241  0.00  0.00    +0.000 A 
ATOM     18  C   UNL     1      48.827   6.535  17.606  0.00  0.00    +0.000 A 
ATOM     19  C   UNL     1      48.365   5.285  18.029  0.00  0.00    +0.000 A 
ATOM     20  C   UNL     1      47.854   4.380  17.105  0.00  0.00    +0.000 A 
ATOM     21 CL   UNL     1      47.312   2.835  17.648  0.00  0.00    +0.000 Cl
ATOM     22  C   UNL     1      47.766   4.694  15.745  0.00  0.00    +0.000 A 
ATOM     23  C   UNL     1      48.206   5.964  15.332  0.00  0.00    +0.000 A 
ENDBRANCH  13  14
ENDBRANCH   7  13
TORSDOF 2
ENDMDL
MODEL 4
REMARK VINA RESULT:    -6.026      2.416      6.614
REMARK INTER + INTRA:          -7.252
REMARK INTER:                  -6.878
REMARK INTRA:                  -0.374
REMARK UNBOUND:                -0.521
REMARK  Name = 
REMARK  2 active torsions:
REMARK  status: ('A' for Active; 'I' for Inactive)
REMARK    1  A    between atoms: C_7  and  C_8
REMARK    2  A    between atoms: C_8  and  N_9
REMARK                            x       y       z     vdW  Elec       q    Type
REMARK                         _______ _______ _______ _____ _____    ______ ____
ROOT
ATOM      1  N   UNL     1      44.125   2.757   9.375  0.00  0.00    +0.000 NA
ATOM      2  C   UNL     1      44.136   2.991  10.640  0.00  0.00    +0.000 C 
ATOM      3  N   UNL     1      43.502   2.166  11.503  0.00  0.00    +0.000 N 
ATOM      4  N   UNL     1      44.719   4.088  11.211  0.00  0.00    +0.000 N 
ATOM      5  C   UNL     1      45.303   4.065  12.555  0.00  0.00    +0.000 C 
ATOM      6  C   UNL     1      44.964   5.384  13.243  0.00  0.00    +0.000 C 
ATOM      7  C   UNL     1      45.524   6.589  12.465  0.00  0.00    +0.000 C 
ATOM      8  C   UNL     1      45.049   6.514  11.001  0.00  0.00    +0.000 C 
ATOM      9  C   UNL     1      45.274   5.143  10.351  0.00  0.00    +0.000 C 
ATOM     10  H   UNL     1      43.637   1.880   9.196  0.00  0.00    +0.000 HD
ATOM     11  H   UNL     1      42.851   1.522  11.077  0.00  0.00    +0.000 HD
ATOM     12  H   UNL     1      43.062   2.670  12.261  0.00  0.00    +0.000 HD
ENDROOT
BRANCH   7  13
ATOM     13  C   UNL     1      47.062   6.714  12.554  0.00  0.00    +0.000 C 
BRANCH  13  14
ATOM     14  N   UNL     1      47.561   8.052  12.259  0.00  0.00    +0.000 N 
ATOM     15  C   UNL     1      46.833   9.198  12.465  0.00  0.00    +0.000 A 
ATOM     16  C   UNL     1      47.644  10.275  12.201  0.00  0.00    +0.000 A 
ATOM     17  C   UNL     1      48.905   9.772  11.783  0.00  0.00    +0.000 A 
ATOM     18  C   UNL     1      50.111  10.389  11.396  0.00  0.00    +0.000 A 
ATOM     19  C   UNL     1      51.196   9.599  11.004  0.00  0.00    +0.000 A 
ATOM     20  C   UNL     1      51.078   8.214  10.978  0.00  0.00    +0.000 A 
ATOM     21 CL   UNL     1      52.422   7.261  10.467  0.00  0.00    +0.000 Cl
ATOM     22  C   UNL     1      49.895   7.573  11.360  0.00  0.00    +0.000 A 
ATOM     23  C   UNL     1      48.818   8.374  11.781  0.00  0.00    +0.000 A 
ENDBRANCH  13  14
ENDBRANCH   7  13
TORSDOF 2
ENDMDL
MODEL 5
REMARK VINA RESULT:    -6.020      2.835      6.439
REMARK INTER + INTRA:          -7.245
REMARK INTER:                  -6.617
REMARK INTRA:                  -0.628
REMARK UNBOUND:                -0.521
REMARK  Name = 
REMARK  2 active torsions:
REMARK  status: ('A' for Active; 'I' for Inactive)
REMARK    1  A    between atoms: C_7  and  C_8
REMARK    2  A    between atoms: C_8  and  N_9
REMARK                            x       y       z     vdW  Elec       q    Type
REMARK                         _______ _______ _______ _____ _____    ______ ____
ROOT
ATOM      1  N   UNL     1      43.435   2.094  10.970  0.00  0.00    +0.000 NA
ATOM      2  C   UNL     1      44.133   3.020  10.412  0.00  0.00    +0.000 C 
ATOM      3  N   UNL     1      44.365   3.006   9.081  0.00  0.00    +0.000 N 
ATOM      4  N   UNL     1      44.735   4.042  11.093  0.00  0.00    +0.000 N 
ATOM      5  C   UNL     1      44.944   5.368  10.508  0.00  0.00    +0.000 C 
ATOM      6  C   UNL     1      46.313   5.874  10.952  0.00  0.00    +0.000 C 
ATOM      7  C   UNL     1      46.411   5.973  12.485  0.00  0.00    +0.000 C 
ATOM      8  C   UNL     1      46.018   4.618  13.108  0.00  0.00    +0.000 C 
ATOM      9  C   UNL     1      44.702   4.051  12.563  0.00  0.00    +0.000 C 
ATOM     10  H   UNL     1      43.089   1.454  10.257  0.00  0.00    +0.000 HD
ATOM     11  H   UNL     1      44.165   2.128   8.623  0.00  0.00    +0.000 HD
ATOM     12  H   UNL     1      45.298   3.323   8.852  0.00  0.00    +0.000 HD
ENDROOT
BRANCH   7  13
ATOM     13  C   UNL     1      45.577   7.130  13.078  0.00  0.00    +0.000 C 
BRANCH  13  14
ATOM     14  N   UNL     1      46.066   8.455  12.714  0.00  0.00    +0.000 N 
ATOM     15  C   UNL     1      47.291   8.945  13.098  0.00  0.00    +0.000 A 
ATOM     16  C   UNL     1      47.479  10.159  12.483  0.00  0.00    +0.000 A 
ATOM     17  C   UNL     1      46.312  10.442  11.723  0.00  0.00    +0.000 A 
ATOM     18  C   UNL     1      45.937  11.516  10.891  0.00  0.00    +0.000 A 
ATOM     19  C   UNL     1      44.676  11.514  10.287  0.00  0.00    +0.000 A 
ATOM     20  C   UNL     1      43.791  10.467  10.522  0.00  0.00    +0.000 A 
ATOM     21 CL   UNL     1      42.232  10.499   9.785  0.00  0.00    +0.000 Cl
ATOM     22  C   UNL     1      44.136   9.386  11.339  0.00  0.00    +0.000 A 
ATOM     23  C   UNL     1      45.418   9.382  11.919  0.00  0.00    +0.000 A 
ENDBRANCH  13  14
ENDBRANCH   7  13
TORSDOF 2
ENDMDL
MODEL 6
REMARK VINA RESULT:    -5.843      2.715      6.536
REMARK INTER + INTRA:          -7.048
REMARK INTER:                  -6.984
REMARK INTRA:                  -0.064
REMARK UNBOUND:                -0.521
REMARK  Name = 
REMARK  2 active torsions:
REMARK  status: ('A' for Active; 'I' for Inactive)
REMARK    1  A    between atoms: C_7  and  C_8
REMARK    2  A    between atoms: C_8  and  N_9
REMARK                            x       y       z     vdW  Elec       q    Type
REMARK                         _______ _______ _______ _____ _____    ______ ____
ROOT
ATOM      1  N   UNL     1      43.165   2.149  11.748  0.00  0.00    +0.000 NA
ATOM      2  C   UNL     1      43.862   2.956  11.029  0.00  0.00    +0.000 C 
ATOM      3  N   UNL     1      44.114   2.686   9.729  0.00  0.00    +0.000 N 
ATOM      4  N   UNL     1      44.445   4.098  11.506  0.00  0.00    +0.000 N 
ATOM      5  C   UNL     1      44.651   5.288  10.676  0.00  0.00    +0.000 C 
ATOM      6  C   UNL     1      46.009   5.885  11.030  0.00  0.00    +0.000 C 
ATOM      7  C   UNL     1      46.084   6.282  12.516  0.00  0.00    +0.000 C 
ATOM      8  C   UNL     1      45.694   5.070  13.385  0.00  0.00    +0.000 C 
ATOM      9  C   UNL     1      44.391   4.392  12.945  0.00  0.00    +0.000 C 
ATOM     10  H   UNL     1      42.834   1.378  11.169  0.00  0.00    +0.000 HD
ATOM     11  H   UNL     1      43.928   1.733   9.448  0.00  0.00    +0.000 HD
ATOM     12  H   UNL     1      45.047   2.963   9.455  0.00  0.00    +0.000 HD
ENDROOT
BRANCH   7  13
ATOM     13  C   UNL     1      45.230   7.523  12.862  0.00  0.00    +0.000 C 
BRANCH  13  14
ATOM     14  N   UNL     1      45.724   8.760  12.267  0.00  0.00    +0.000 N 
ATOM     15  C   UNL     1      44.906   9.759  11.800  0.00  0.00    +0.000 A 
ATOM     16  C   UNL     1      45.694  10.820  11.426  0.00  0.00    +0.000 A 
ATOM     17  C   UNL     1      47.048  10.445  11.636  0.00  0.00    +0.000 A 
ATOM     18  C   UNL     1      48.276  11.110  11.446  0.00  0.00    +0.000 A 
ATOM     19  C   UNL     1      49.473  10.445  11.730  0.00  0.00    +0.000 A 
ATOM     20  C   UNL     1      49.451   9.129  12.179  0.00  0.00    +0.000 A 
ATOM     21 CL   UNL     1      50.941   8.322  12.500  0.00  0.00    +0.000 Cl
ATOM     22  C   UNL     1      48.248   8.445  12.381  0.00  0.00    +0.000 A 
ATOM     23  C   UNL     1      47.048   9.131  12.121  0.00  0.00    +0.000 A 
ENDBRANCH  13  14
ENDBRANCH   7  13
TORSDOF 2
ENDMDL
MODEL 7
REMARK VINA RESULT:    -5.611      3.279      7.151
REMARK INTER + INTRA:          -6.789
REMARK INTER:                  -6.248
REMARK INTRA:                  -0.541
REMARK UNBOUND:                -0.521
REMARK  Name = 
REMARK  2 active torsions:
REMARK  status: ('A' for Active; 'I' for Inactive)
REMARK    1  A    between atoms: C_7  and  C_8
REMARK    2  A    between atoms: C_8  and  N_9
REMARK                            x       y       z     vdW  Elec       q    Type
REMARK                         _______ _______ _______ _____ _____    ______ ____
ROOT
ATOM      1  N   UNL     1      44.018   2.394  10.232  0.00  0.00    +0.000 NA
ATOM      2  C   UNL     1      44.198   2.905  11.399  0.00  0.00    +0.000 C 
ATOM      3  N   UNL     1      43.699   2.305  12.503  0.00  0.00    +0.000 N 
ATOM      4  N   UNL     1      44.837   4.092  11.625  0.00  0.00    +0.000 N 
ATOM      5  C   UNL     1      45.599   4.361  12.847  0.00  0.00    +0.000 C 
ATOM      6  C   UNL     1      45.340   5.806  13.262  0.00  0.00    +0.000 C 
ATOM      7  C   UNL     1      45.772   6.796  12.165  0.00  0.00    +0.000 C 
ATOM      8  C   UNL     1      45.102   6.403  10.833  0.00  0.00    +0.000 C 
ATOM      9  C   UNL     1      45.256   4.918  10.483  0.00  0.00    +0.000 C 
ATOM     10  H   UNL     1      43.522   1.507  10.322  0.00  0.00    +0.000 HD
ATOM     11  H   UNL     1      43.004   1.594  12.324  0.00  0.00    +0.000 HD
ATOM     12  H   UNL     1      43.359   2.974  13.181  0.00  0.00    +0.000 HD
ENDROOT
BRANCH   7  13
ATOM     13  C   UNL     1      47.305   6.911  12.013  0.00  0.00    +0.000 C 
BRANCH  13  14
ATOM     14  N   UNL     1      47.902   7.948  12.848  0.00  0.00    +0.000 N 
ATOM     15  C   UNL     1      48.022   9.261  12.460  0.00  0.00    +0.000 A 
ATOM     16  C   UNL     1      48.509   9.979  13.525  0.00  0.00    +0.000 A 
ATOM     17  C   UNL     1      48.732   9.069  14.593  0.00  0.00    +0.000 A 
ATOM     18  C   UNL     1      49.206   9.223  15.911  0.00  0.00    +0.000 A 
ATOM     19  C   UNL     1      49.340   8.100  16.733  0.00  0.00    +0.000 A 
ATOM     20  C   UNL     1      49.024   6.836  16.244  0.00  0.00    +0.000 A 
ATOM     21 CL   UNL     1      49.220   5.463  17.269  0.00  0.00    +0.000 Cl
ATOM     22  C   UNL     1      48.548   6.653  14.942  0.00  0.00    +0.000 A 
ATOM     23  C   UNL     1      48.389   7.791  14.132  0.00  0.00    +0.000 A 
ENDBRANCH  13  14
ENDBRANCH   7  13
TORSDOF 2
ENDMDL
MODEL 8
REMARK VINA RESULT:    -5.518      4.106      7.446
REMARK INTER + INTRA:          -6.685
REMARK INTER:                  -6.216
REMARK INTRA:                  -0.469
REMARK UNBOUND:                -0.521
REMARK  Name = 
REMARK  2 active torsions:
REMARK  status: ('A' for Active; 'I' for Inactive)
REMARK    1  A    between atoms: C_7  and  C_8
REMARK    2  A    between atoms: C_8  and  N_9
REMARK                            x       y       z     vdW  Elec       q    Type
REMARK                         _______ _______ _______ _____ _____    ______ ____
ROOT
ATOM      1  N   UNL     1      42.871   4.175  12.195  0.00  0.00    +0.000 NA
ATOM      2  C   UNL     1      43.667   4.994  11.603  0.00  0.00    +0.000 C 
ATOM      3  N   UNL     1      43.379   5.472  10.372  0.00  0.00    +0.000 N 
ATOM      4  N   UNL     1      44.867   5.402  12.116  0.00  0.00    +0.000 N 
ATOM      5  C   UNL     1      45.438   6.722  11.840  0.00  0.00    +0.000 C 
ATOM      6  C   UNL     1      46.943   6.560  11.652  0.00  0.00    +0.000 C 
ATOM      7  C   UNL     1      47.610   5.970  12.908  0.00  0.00    +0.000 C 
ATOM      8  C   UNL     1      46.889   4.665  13.300  0.00  0.00    +0.000 C 
ATOM      9  C   UNL     1      45.363   4.801  13.362  0.00  0.00    +0.000 C 
ATOM     10  H   UNL     1      42.042   4.030  11.618  0.00  0.00    +0.000 HD
ATOM     11  H   UNL     1      42.651   4.974   9.880  0.00  0.00    +0.000 HD
ATOM     12  H   UNL     1      44.204   5.562   9.794  0.00  0.00    +0.000 HD
ENDROOT
BRANCH   7  13
ATOM     13  C   UNL     1      47.669   6.960  14.092  0.00  0.00    +0.000 C 
BRANCH  13  14
ATOM     14  N   UNL     1      48.930   6.925  14.825  0.00  0.00    +0.000 N 
ATOM     15  C   UNL     1      50.002   7.732  14.533  0.00  0.00    +0.000 A 
ATOM     16  C   UNL     1      50.967   7.526  15.489  0.00  0.00    +0.000 A 
ATOM     17  C   UNL     1      50.485   6.530  16.380  0.00  0.00    +0.000 A 
ATOM     18  C   UNL     1      51.018   5.926  17.536  0.00  0.00    +0.000 A 
ATOM     19  C   UNL     1      50.290   4.931  18.195  0.00  0.00    +0.000 A 
ATOM     20  C   UNL     1      49.054   4.528  17.701  0.00  0.00    +0.000 A 
ATOM     21 CL   UNL     1      48.185   3.282  18.517  0.00  0.00    +0.000 Cl
ATOM     22  C   UNL     1      48.497   5.111  16.559  0.00  0.00    +0.000 A 
ATOM     23  C   UNL     1      49.223   6.132  15.919  0.00  0.00    +0.000 A 
ENDBRANCH  13  14
ENDBRANCH   7  13
TORSDOF 2
ENDMDL
MODEL 9
REMARK VINA RESULT:    -5.265      4.521      5.908
REMARK INTER + INTRA:          -6.402
REMARK INTER:                  -5.766
REMARK INTRA:                  -0.636
REMARK UNBOUND:                -0.521
REMARK  Name = 
REMARK  2 active torsions:
REMARK  status: ('A' for Active; 'I' for Inactive)
REMARK    1  A    between atoms: C_7  and  C_8
REMARK    2  A    between atoms: C_8  and  N_9
REMARK                            x       y       z     vdW  Elec       q    Type
REMARK                         _______ _______ _______ _____ _____    ______ ____
ROOT
ATOM      1  N   UNL     1      51.581   3.551  18.897  0.00  0.00    +0.000 NA
ATOM      2  C   UNL     1      50.786   4.501  18.550  0.00  0.00    +0.000 C 
ATOM      3  N   UNL     1      50.924   5.743  19.065  0.00  0.00    +0.000 N 
ATOM      4  N   UNL     1      49.726   4.341  17.701  0.00  0.00    +0.000 N 
ATOM      5  C   UNL     1      49.250   5.410  16.820  0.00  0.00    +0.000 C 
ATOM      6  C   UNL     1      47.725   5.364  16.797  0.00  0.00    +0.000 C 
ATOM      7  C   UNL     1      47.207   4.010  16.280  0.00  0.00    +0.000 C 
ATOM      8  C   UNL     1      47.850   2.873  17.100  0.00  0.00    +0.000 C 
ATOM      9  C   UNL     1      49.373   2.995  17.229  0.00  0.00    +0.000 C 
ATOM     10  H   UNL     1      52.292   3.917  19.530  0.00  0.00    +0.000 HD
ATOM     11  H   UNL     1      51.515   5.802  19.882  0.00  0.00    +0.000 HD
ATOM     12  H   UNL     1      50.032   6.187  19.236  0.00  0.00    +0.000 HD
ENDROOT
BRANCH   7  13
ATOM     13  C   UNL     1      47.429   3.807  14.764  0.00  0.00    +0.000 C 
BRANCH  13  14
ATOM     14  N   UNL     1      46.724   4.777  13.933  0.00  0.00    +0.000 N 
ATOM     15  C   UNL     1      45.373   4.731  13.690  0.00  0.00    +0.000 A 
ATOM     16  C   UNL     1      45.027   5.854  12.979  0.00  0.00    +0.000 A 
ATOM     17  C   UNL     1      46.214   6.598  12.744  0.00  0.00    +0.000 A 
ATOM     18  C   UNL     1      46.477   7.818  12.089  0.00  0.00    +0.000 A 
ATOM     19  C   UNL     1      47.792   8.286  12.001  0.00  0.00    +0.000 A 
ATOM     20  C   UNL     1      48.835   7.542  12.542  0.00  0.00    +0.000 A 
ATOM     21 CL   UNL     1      50.450   8.127  12.400  0.00  0.00    +0.000 Cl
ATOM     22  C   UNL     1      48.604   6.330  13.201  0.00  0.00    +0.000 A 
ATOM     23  C   UNL     1      47.276   5.881  13.310  0.00  0.00    +0.000 A 
ENDBRANCH  13  14
ENDBRANCH   7  13
TORSDOF 2
ENDMDL
