MODEL 1
REMARK VINA RESULT:    -7.197      0.000      0.000
REMARK INTER + INTRA:          -9.722
REMARK INTER:                  -9.091
REMARK INTRA:                  -0.631
REMARK UNBOUND:                -0.631
REMARK  Name = 
REMARK  5 active torsions:
REMARK  status: ('A' for Active; 'I' for Inactive)
REMARK    1  A    between atoms: C_2  and  C_3
REMARK    2  A    between atoms: C_6  and  N_7
REMARK    3  A    between atoms: N_7  and  C_8
REMARK    4  A    between atoms: C_8  and  C_9
REMARK    5  A    between atoms: C_18  and  N_19
REMARK                            x       y       z     vdW  Elec       q    Type
REMARK                         _______ _______ _______ _____ _____    ______ ____
ROOT
ATOM      1  C   UNL     1      45.971   1.966   8.190  0.00  0.00    +0.000 A 
ATOM      2  N   UNL     1      45.010   1.682   9.108  0.00  0.00    +0.000 NA
ATOM      3  C   UNL     1      44.355   2.736   9.656  0.00  0.00    +0.000 A 
ATOM      4  C   UNL     1      44.591   4.073   9.342  0.00  0.00    +0.000 A 
ATOM      5  C   UNL     1      45.592   4.310   8.391  0.00  0.00    +0.000 A 
ATOM      6  C   UNL     1      46.277   3.264   7.755  0.00  0.00    +0.000 A 
ENDROOT
BRANCH   6   7
ATOM      7  N   UNL     1      47.356   3.587   6.913  0.00  0.00    +0.000 N 
ATOM      8  H   UNL     1      47.440   2.996   6.090  0.00  0.00    +0.000 HD
ATOM      9  H   UNL     1      48.251   3.726   7.374  0.00  0.00    +0.000 HD
ENDBRANCH   6   7
BRANCH   1  11
ATOM     10  N   UNL     1      47.155  -0.141   7.227  0.00  0.00    +0.000 NA
ATOM     11  C   UNL     1      46.654   0.817   7.650  0.00  0.00    +0.000 C 
ENDBRANCH   1  11
BRANCH   4  12
ATOM     12  N   UNL     1      43.882   5.168   9.864  0.00  0.00    +0.000 N 
ATOM     13  H   UNL     1      43.397   5.742   9.183  0.00  0.00    +0.000 HD
BRANCH  12  14
ATOM     14  C   UNL     1      43.765   5.532  11.282  0.00  0.00    +0.000 C 
ATOM     15  C   UNL     1      42.521   5.131  12.054  0.00  0.00    +0.000 C 
ATOM     16  C   UNL     1      42.695   6.558  11.667  0.00  0.00    +0.000 C 
BRANCH  14  17
ATOM     17  C   UNL     1      45.098   5.794  11.987  0.00  0.00    +0.000 A 
ATOM     18  C   UNL     1      45.467   5.046  13.125  0.00  0.00    +0.000 A 
ATOM     19  C   UNL     1      46.744   5.137  13.686  0.00  0.00    +0.000 A 
ATOM     20  C   UNL     1      47.680   6.002  13.132  0.00  0.00    +0.000 A 
ATOM     21  C   UNL     1      47.325   6.798  12.044  0.00  0.00    +0.000 A 
ATOM     22  C   UNL     1      46.046   6.700  11.486  0.00  0.00    +0.000 A 
ENDBRANCH  14  17
ENDBRANCH  12  14
ENDBRANCH   4  12
TORSDOF 5
ENDMDL
MODEL 2
REMARK VINA RESULT:    -7.145      1.250      2.213
REMARK INTER + INTRA:          -9.656
REMARK INTER:                  -9.164
REMARK INTRA:                  -0.492
REMARK UNBOUND:                -0.631
REMARK  Name = 
REMARK  5 active torsions:
REMARK  status: ('A' for Active; 'I' for Inactive)
REMARK    1  A    between atoms: C_2  and  C_3
REMARK    2  A    between atoms: C_6  and  N_7
REMARK    3  A    between atoms: N_7  and  C_8
REMARK    4  A    between atoms: C_8  and  C_9
REMARK    5  A    between atoms: C_18  and  N_19
REMARK                            x       y       z     vdW  Elec       q    Type
REMARK                         _______ _______ _______ _____ _____    ______ ____
ROOT
ATOM      1  C   UNL     1      46.834   2.639   7.234  0.00  0.00    +0.000 A 
ATOM      2  N   UNL     1      46.607   3.979   7.231  0.00  0.00    +0.000 NA
ATOM      3  C   UNL     1      45.679   4.445   8.104  0.00  0.00    +0.000 A 
ATOM      4  C   UNL     1      44.957   3.657   8.998  0.00  0.00    +0.000 A 
ATOM      5  C   UNL     1      45.229   2.284   8.959  0.00  0.00    +0.000 A 
ATOM      6  C   UNL     1      46.207   1.742   8.111  0.00  0.00    +0.000 A 
ENDROOT
BRANCH   6   7
ATOM      7  N   UNL     1      46.326   0.343   8.037  0.00  0.00    +0.000 N 
ATOM      8  H   UNL     1      47.265   0.009   7.836  0.00  0.00    +0.000 HD
ATOM      9  H   UNL     1      45.625  -0.132   7.474  0.00  0.00    +0.000 HD
ENDBRANCH   6   7
BRANCH   1  11
ATOM     10  N   UNL     1      48.557   1.793   5.478  0.00  0.00    +0.000 NA
ATOM     11  C   UNL     1      47.813   2.187   6.276  0.00  0.00    +0.000 C 
ENDBRANCH   1  11
BRANCH   4  12
ATOM     12  N   UNL     1      44.034   4.136   9.942  0.00  0.00    +0.000 N 
ATOM     13  H   UNL     1      43.176   4.519   9.563  0.00  0.00    +0.000 HD
BRANCH  12  14
ATOM     14  C   UNL     1      44.192   4.109  11.402  0.00  0.00    +0.000 C 
ATOM     15  C   UNL     1      43.507   3.018  12.206  0.00  0.00    +0.000 C 
ATOM     16  C   UNL     1      42.954   4.399  12.256  0.00  0.00    +0.000 C 
BRANCH  14  17
ATOM     17  C   UNL     1      45.436   4.831  11.925  0.00  0.00    +0.000 A 
ATOM     18  C   UNL     1      45.831   6.069  11.376  0.00  0.00    +0.000 A 
ATOM     19  C   UNL     1      46.854   6.835  11.944  0.00  0.00    +0.000 A 
ATOM     20  C   UNL     1      47.525   6.365  13.067  0.00  0.00    +0.000 A 
ATOM     21  C   UNL     1      47.196   5.119  13.595  0.00  0.00    +0.000 A 
ATOM     22  C   UNL     1      46.170   4.358  13.024  0.00  0.00    +0.000 A 
ENDBRANCH  14  17
ENDBRANCH  12  14
ENDBRANCH   4  12
TORSDOF 5
ENDMDL
MODEL 3
REMARK VINA RESULT:    -6.204      3.013      5.999
REMARK INTER + INTRA:          -8.467
REMARK INTER:                  -8.115
REMARK INTRA:                  -0.352
REMARK UNBOUND:                -0.631
REMARK  Name = 
REMARK  5 active torsions:
REMARK  status: ('A' for Active; 'I' for Inactive)
REMARK    1  A    between atoms: C_2  and  C_3
REMARK    2  A    between atoms: C_6  and  N_7
REMARK    3  A    between atoms: N_7  and  C_8
REMARK    4  A    between atoms: C_8  and  C_9
REMARK    5  A    between atoms: C_18  and  N_19
REMARK                            x       y       z     vdW  Elec       q    Type
REMARK                         _______ _______ _______ _____ _____    ______ ____
ROOT
ATOM      1  C   UNL     1      48.333   6.552  14.003  0.00  0.00    +0.000 A 
ATOM      2  N   UNL     1      47.897   5.510  14.760  0.00  0.00    +0.000 NA
ATOM      3  C   UNL     1      46.865   4.782  14.265  0.00  0.00    +0.000 A 
ATOM      4  C   UNL     1      46.231   5.022  13.048  0.00  0.00    +0.000 A 
ATOM      5  C   UNL     1      46.718   6.107  12.309  0.00  0.00    +0.000 A 
ATOM      6  C   UNL     1      47.810   6.872  12.741  0.00  0.00    +0.000 A 
ENDROOT
BRANCH   6   7
ATOM      7  N   UNL     1      48.153   8.023  12.009  0.00  0.00    +0.000 N 
ATOM      8  H   UNL     1      47.479   8.781  12.073  0.00  0.00    +0.000 HD
ATOM      9  H   UNL     1      48.456   7.864  11.051  0.00  0.00    +0.000 HD
ENDBRANCH   6   7
BRANCH   1  11
ATOM     10  N   UNL     1      50.328   7.880  15.014  0.00  0.00    +0.000 NA
ATOM     11  C   UNL     1      49.417   7.308  14.578  0.00  0.00    +0.000 C 
ENDBRANCH   1  11
BRANCH   4  12
ATOM     12  N   UNL     1      45.197   4.242  12.502  0.00  0.00    +0.000 N 
ATOM     13  H   UNL     1      44.981   3.387  13.002  0.00  0.00    +0.000 HD
BRANCH  12  14
ATOM     14  C   UNL     1      44.403   4.564  11.310  0.00  0.00    +0.000 C 
ATOM     15  C   UNL     1      43.583   5.842  11.283  0.00  0.00    +0.000 C 
ATOM     16  C   UNL     1      42.877   4.541  11.444  0.00  0.00    +0.000 C 
BRANCH  14  17
ATOM     17  C   UNL     1      44.880   3.889  10.022  0.00  0.00    +0.000 A 
ATOM     18  C   UNL     1      45.464   4.650   8.987  0.00  0.00    +0.000 A 
ATOM     19  C   UNL     1      46.066   4.047   7.878  0.00  0.00    +0.000 A 
ATOM     20  C   UNL     1      46.076   2.662   7.767  0.00  0.00    +0.000 A 
ATOM     21  C   UNL     1      45.454   1.887   8.744  0.00  0.00    +0.000 A 
ATOM     22  C   UNL     1      44.855   2.496   9.852  0.00  0.00    +0.000 A 
ENDBRANCH  14  17
ENDBRANCH  12  14
ENDBRANCH   4  12
TORSDOF 5
ENDMDL
MODEL 4
REMARK VINA RESULT:    -5.787      3.728      6.737
REMARK INTER + INTRA:          -7.941
REMARK INTER:                  -7.640
REMARK INTRA:                  -0.301
REMARK UNBOUND:                -0.631
REMARK  Name = 
REMARK  5 active torsions:
REMARK  status: ('A' for Active; 'I' for Inactive)
REMARK    1  A    between atoms: C_2  and  C_3
REMARK    2  A    between atoms: C_6  and  N_7
REMARK    3  A    between atoms: N_7  and  C_8
REMARK    4  A    between atoms: C_8  and  C_9
REMARK    5  A    between atoms: C_18  and  N_19
REMARK                            x       y       z     vdW  Elec       q    Type
REMARK                         _______ _______ _______ _____ _____    ______ ____
ROOT
ATOM      1  C   UNL     1      48.578   6.119  15.341  0.00  0.00    +0.000 A 
ATOM      2  N   UNL     1      48.386   6.428  14.031  0.00  0.00    +0.000 NA
ATOM      3  C   UNL     1      47.513   5.652  13.340  0.00  0.00    +0.000 A 
ATOM      4  C   UNL     1      46.804   4.578  13.874  0.00  0.00    +0.000 A 
ATOM      5  C   UNL     1      47.040   4.302  15.226  0.00  0.00    +0.000 A 
ATOM      6  C   UNL     1      47.896   5.091  16.009  0.00  0.00    +0.000 A 
ENDROOT
BRANCH   6   7
ATOM      7  N   UNL     1      48.180   4.670  17.320  0.00  0.00    +0.000 N 
ATOM      8  H   UNL     1      49.127   4.870  17.632  0.00  0.00    +0.000 HD
ATOM      9  H   UNL     1      47.896   3.721  17.552  0.00  0.00    +0.000 HD
ENDBRANCH   6   7
BRANCH   1  11
ATOM     10  N   UNL     1      50.276   7.675  16.549  0.00  0.00    +0.000 NA
ATOM     11  C   UNL     1      49.528   6.956  16.029  0.00  0.00    +0.000 C 
ENDBRANCH   1  11
BRANCH   4  12
ATOM     12  N   UNL     1      45.859   3.803  13.181  0.00  0.00    +0.000 N 
ATOM     13  H   UNL     1      45.971   2.799  13.260  0.00  0.00    +0.000 HD
BRANCH  12  14
ATOM     14  C   UNL     1      44.732   4.312  12.387  0.00  0.00    +0.000 C 
ATOM     15  C   UNL     1      43.911   5.473  12.918  0.00  0.00    +0.000 C 
ATOM     16  C   UNL     1      43.321   4.107  12.946  0.00  0.00    +0.000 C 
BRANCH  14  17
ATOM     17  C   UNL     1      44.812   4.003  10.891  0.00  0.00    +0.000 A 
ATOM     18  C   UNL     1      45.362   4.942   9.993  0.00  0.00    +0.000 A 
ATOM     19  C   UNL     1      45.610   4.625   8.654  0.00  0.00    +0.000 A 
ATOM     20  C   UNL     1      45.289   3.360   8.174  0.00  0.00    +0.000 A 
ATOM     21  C   UNL     1      44.690   2.432   9.023  0.00  0.00    +0.000 A 
ATOM     22  C   UNL     1      44.447   2.755  10.362  0.00  0.00    +0.000 A 
ENDBRANCH  14  17
ENDBRANCH  12  14
ENDBRANCH   4  12
TORSDOF 5
ENDMDL
MODEL 5
REMARK VINA RESULT:    -5.573      3.644      6.323
REMARK INTER + INTRA:          -7.670
REMARK INTER:                  -7.736
REMARK INTRA:                   0.066
REMARK UNBOUND:                -0.631
REMARK  Name = 
REMARK  5 active torsions:
REMARK  status: ('A' for Active; 'I' for Inactive)
REMARK    1  A    between atoms: C_2  and  C_3
REMARK    2  A    between atoms: C_6  and  N_7
REMARK    3  A    between atoms: N_7  and  C_8
REMARK    4  A    between atoms: C_8  and  C_9
REMARK    5  A    between atoms: C_18  and  N_19
REMARK                            x       y       z     vdW  Elec       q    Type
REMARK                         _______ _______ _______ _____ _____    ______ ____
ROOT
ATOM      1  C   UNL     1      47.681   4.139  15.801  0.00  0.00    +0.000 A 
ATOM      2  N   UNL     1      47.183   3.339  14.821  0.00  0.00    +0.000 NA
ATOM      3  C   UNL     1      46.899   3.929  13.633  0.00  0.00    +0.000 A 
ATOM      4  C   UNL     1      47.087   5.280  13.348  0.00  0.00    +0.000 A 
ATOM      5  C   UNL     1      47.601   6.059  14.392  0.00  0.00    +0.000 A 
ATOM      6  C   UNL     1      47.956   5.505  15.630  0.00  0.00    +0.000 A 
ENDROOT
BRANCH   6   7
ATOM      7  N   UNL     1      48.340   6.374  16.666  0.00  0.00    +0.000 N 
ATOM      8  H   UNL     1      49.289   6.236  17.003  0.00  0.00    +0.000 HD
ATOM      9  H   UNL     1      47.676   6.472  17.430  0.00  0.00    +0.000 HD
ENDBRANCH   6   7
BRANCH   1  11
ATOM     10  N   UNL     1      48.109   2.950  18.075  0.00  0.00    +0.000 NA
ATOM     11  C   UNL     1      47.949   3.474  17.051  0.00  0.00    +0.000 C 
ENDBRANCH   1  11
BRANCH   4  12
ATOM     12  N   UNL     1      46.846   5.889  12.105  0.00  0.00    +0.000 N 
ATOM     13  H   UNL     1      47.665   6.247  11.625  0.00  0.00    +0.000 HD
BRANCH  12  14
ATOM     14  C   UNL     1      45.543   6.028  11.443  0.00  0.00    +0.000 C 
ATOM     15  C   UNL     1      44.886   7.395  11.370  0.00  0.00    +0.000 C 
ATOM     16  C   UNL     1      44.337   6.387  12.316  0.00  0.00    +0.000 C 
BRANCH  14  17
ATOM     17  C   UNL     1      45.217   4.926  10.432  0.00  0.00    +0.000 A 
ATOM     18  C   UNL     1      45.647   5.032   9.092  0.00  0.00    +0.000 A 
ATOM     19  C   UNL     1      45.520   3.971   8.191  0.00  0.00    +0.000 A 
ATOM     20  C   UNL     1      44.936   2.780   8.606  0.00  0.00    +0.000 A 
ATOM     21  C   UNL     1      44.449   2.667   9.906  0.00  0.00    +0.000 A 
ATOM     22  C   UNL     1      44.581   3.732  10.804  0.00  0.00    +0.000 A 
ENDBRANCH  14  17
ENDBRANCH  12  14
ENDBRANCH   4  12
TORSDOF 5
ENDMDL
MODEL 6
REMARK VINA RESULT:    -5.236      2.736      4.719
REMARK INTER + INTRA:          -7.244
REMARK INTER:                  -6.686
REMARK INTRA:                  -0.559
REMARK UNBOUND:                -0.631
REMARK  Name = 
REMARK  5 active torsions:
REMARK  status: ('A' for Active; 'I' for Inactive)
REMARK    1  A    between atoms: C_2  and  C_3
REMARK    2  A    between atoms: C_6  and  N_7
REMARK    3  A    between atoms: N_7  and  C_8
REMARK    4  A    between atoms: C_8  and  C_9
REMARK    5  A    between atoms: C_18  and  N_19
REMARK                            x       y       z     vdW  Elec       q    Type
REMARK                         _______ _______ _______ _____ _____    ______ ____
ROOT
ATOM      1  C   UNL     1      44.950   4.042  10.960  0.00  0.00    +0.000 A 
ATOM      2  N   UNL     1      44.855   3.910  12.310  0.00  0.00    +0.000 NA
ATOM      3  C   UNL     1      45.306   4.947  13.060  0.00  0.00    +0.000 A 
ATOM      4  C   UNL     1      45.846   6.125  12.550  0.00  0.00    +0.000 A 
ATOM      5  C   UNL     1      45.922   6.209  11.155  0.00  0.00    +0.000 A 
ATOM      6  C   UNL     1      45.434   5.193  10.320  0.00  0.00    +0.000 A 
ENDROOT
BRANCH   6   7
ATOM      7  N   UNL     1      45.667   5.294   8.937  0.00  0.00    +0.000 N 
ATOM      8  H   UNL     1      46.024   6.196   8.633  0.00  0.00    +0.000 HD
ATOM      9  H   UNL     1      44.918   4.960   8.336  0.00  0.00    +0.000 HD
ENDBRANCH   6   7
BRANCH   1  11
ATOM     10  N   UNL     1      44.089   2.033   9.551  0.00  0.00    +0.000 NA
ATOM     11  C   UNL     1      44.478   2.909  10.204  0.00  0.00    +0.000 C 
ENDBRANCH   1  11
BRANCH   4  12
ATOM     12  N   UNL     1      46.266   7.225  13.317  0.00  0.00    +0.000 N 
ATOM     13  H   UNL     1      45.578   7.601  13.960  0.00  0.00    +0.000 HD
BRANCH  12  14
ATOM     14  C   UNL     1      47.595   7.849  13.287  0.00  0.00    +0.000 C 
ATOM     15  C   UNL     1      48.827   6.990  13.510  0.00  0.00    +0.000 C 
ATOM     16  C   UNL     1      48.384   7.904  14.598  0.00  0.00    +0.000 C 
BRANCH  14  17
ATOM     17  C   UNL     1      47.665   9.169  12.514  0.00  0.00    +0.000 A 
ATOM     18  C   UNL     1      48.863   9.569  11.886  0.00  0.00    +0.000 A 
ATOM     19  C   UNL     1      48.914  10.674  11.030  0.00  0.00    +0.000 A 
ATOM     20  C   UNL     1      47.765  11.422  10.801  0.00  0.00    +0.000 A 
ATOM     21  C   UNL     1      46.582  11.085  11.455  0.00  0.00    +0.000 A 
ATOM     22  C   UNL     1      46.537   9.977  12.308  0.00  0.00    +0.000 A 
ENDBRANCH  14  17
ENDBRANCH  12  14
ENDBRANCH   4  12
TORSDOF 5
ENDMDL
MODEL 7
REMARK VINA RESULT:    -5.041      2.873      4.656
REMARK INTER + INTRA:          -6.998
REMARK INTER:                  -6.529
REMARK INTRA:                  -0.469
REMARK UNBOUND:                -0.631
REMARK  Name = 
REMARK  5 active torsions:
REMARK  status: ('A' for Active; 'I' for Inactive)
REMARK    1  A    between atoms: C_2  and  C_3
REMARK    2  A    between atoms: C_6  and  N_7
REMARK    3  A    between atoms: N_7  and  C_8
REMARK    4  A    between atoms: C_8  and  C_9
REMARK    5  A    between atoms: C_18  and  N_19
REMARK                            x       y       z     vdW  Elec       q    Type
REMARK                         _______ _______ _______ _____ _____    ______ ____
ROOT
ATOM      1  C   UNL     1      44.666   4.084  11.659  0.00  0.00    +0.000 A 
ATOM      2  N   UNL     1      45.366   4.254  12.812  0.00  0.00    +0.000 NA
ATOM      3  C   UNL     1      46.279   5.257  12.832  0.00  0.00    +0.000 A 
ATOM      4  C   UNL     1      46.542   6.119  11.770  0.00  0.00    +0.000 A 
ATOM      5  C   UNL     1      45.795   5.900  10.606  0.00  0.00    +0.000 A 
ATOM      6  C   UNL     1      44.805   4.909  10.532  0.00  0.00    +0.000 A 
ENDROOT
BRANCH   6   7
ATOM      7  N   UNL     1      44.193   4.666   9.290  0.00  0.00    +0.000 N 
ATOM      8  H   UNL     1      43.340   5.195   9.128  0.00  0.00    +0.000 HD
ATOM      9  H   UNL     1      44.089   3.688   9.032  0.00  0.00    +0.000 HD
ENDBRANCH   6   7
BRANCH   1  11
ATOM     10  N   UNL     1      42.935   2.142  11.645  0.00  0.00    +0.000 NA
ATOM     11  C   UNL     1      43.722   2.995  11.676  0.00  0.00    +0.000 C 
ENDBRANCH   1  11
BRANCH   4  12
ATOM     12  N   UNL     1      47.447   7.193  11.800  0.00  0.00    +0.000 N 
ATOM     13  H   UNL     1      48.196   7.156  11.117  0.00  0.00    +0.000 HD
BRANCH  12  14
ATOM     14  C   UNL     1      47.389   8.354  12.698  0.00  0.00    +0.000 C 
ATOM     15  C   UNL     1      46.141   9.219  12.718  0.00  0.00    +0.000 C 
ATOM     16  C   UNL     1      47.369   9.746  12.061  0.00  0.00    +0.000 C 
BRANCH  14  17
ATOM     17  C   UNL     1      48.335   8.281  13.899  0.00  0.00    +0.000 A 
ATOM     18  C   UNL     1      48.015   8.940  15.105  0.00  0.00    +0.000 A 
ATOM     19  C   UNL     1      48.766   8.752  16.270  0.00  0.00    +0.000 A 
ATOM     20  C   UNL     1      49.874   7.913  16.248  0.00  0.00    +0.000 A 
ATOM     21  C   UNL     1      50.248   7.296  15.056  0.00  0.00    +0.000 A 
ATOM     22  C   UNL     1      49.491   7.487  13.895  0.00  0.00    +0.000 A 
ENDBRANCH  14  17
ENDBRANCH  12  14
ENDBRANCH   4  12
TORSDOF 5
ENDMDL
MODEL 8
REMARK VINA RESULT:    -4.968      3.767      6.629
REMARK INTER + INTRA:          -6.906
REMARK INTER:                  -7.233
REMARK INTRA:                   0.328
REMARK UNBOUND:                -0.631
REMARK  Name = 
REMARK  5 active torsions:
REMARK  status: ('A' for Active; 'I' for Inactive)
REMARK    1  A    between atoms: C_2  and  C_3
REMARK    2  A    between atoms: C_6  and  N_7
REMARK    3  A    between atoms: N_7  and  C_8
REMARK    4  A    between atoms: C_8  and  C_9
REMARK    5  A    between atoms: C_18  and  N_19
REMARK                            x       y       z     vdW  Elec       q    Type
REMARK                         _______ _______ _______ _____ _____    ______ ____
ROOT
ATOM      1  C   UNL     1      48.231   5.531  16.068  0.00  0.00    +0.000 A 
ATOM      2  N   UNL     1      48.631   6.705  15.509  0.00  0.00    +0.000 NA
ATOM      3  C   UNL     1      48.276   6.922  14.218  0.00  0.00    +0.000 A 
ATOM      4  C   UNL     1      47.533   6.041  13.436  0.00  0.00    +0.000 A 
ATOM      5  C   UNL     1      47.146   4.848  14.059  0.00  0.00    +0.000 A 
ATOM      6  C   UNL     1      47.443   4.580  15.403  0.00  0.00    +0.000 A 
ENDROOT
BRANCH   6   7
ATOM      7  N   UNL     1      47.136   3.306  15.914  0.00  0.00    +0.000 N 
ATOM      8  H   UNL     1      47.693   2.550  15.526  0.00  0.00    +0.000 HD
ATOM      9  H   UNL     1      46.147   3.071  15.951  0.00  0.00    +0.000 HD
ENDBRANCH   6   7
BRANCH   1  11
ATOM     10  N   UNL     1      48.928   5.182  18.549  0.00  0.00    +0.000 NA
ATOM     11  C   UNL     1      48.648   5.335  17.433  0.00  0.00    +0.000 C 
ENDBRANCH   1  11
BRANCH   4  12
ATOM     12  N   UNL     1      47.114   6.281  12.116  0.00  0.00    +0.000 N 
ATOM     13  H   UNL     1      47.852   6.482  11.451  0.00  0.00    +0.000 HD
BRANCH  12  14
ATOM     14  C   UNL     1      45.732   6.243  11.623  0.00  0.00    +0.000 C 
ATOM     15  C   UNL     1      44.922   7.527  11.574  0.00  0.00    +0.000 C 
ATOM     16  C   UNL     1      44.610   6.523  12.628  0.00  0.00    +0.000 C 
BRANCH  14  17
ATOM     17  C   UNL     1      45.409   5.055  10.713  0.00  0.00    +0.000 A 
ATOM     18  C   UNL     1      44.788   3.901  11.234  0.00  0.00    +0.000 A 
ATOM     19  C   UNL     1      44.323   2.875  10.405  0.00  0.00    +0.000 A 
ATOM     20  C   UNL     1      44.492   2.971   9.029  0.00  0.00    +0.000 A 
ATOM     21  C   UNL     1      45.155   4.072   8.491  0.00  0.00    +0.000 A 
ATOM     22  C   UNL     1      45.616   5.096   9.326  0.00  0.00    +0.000 A 
ENDBRANCH  14  17
ENDBRANCH  12  14
ENDBRANCH   4  12
TORSDOF 5
ENDMDL
MODEL 9
REMARK VINA RESULT:    -4.902      4.570      7.262
REMARK INTER + INTRA:          -6.823
REMARK INTER:                  -6.305
REMARK INTRA:                  -0.518
REMARK UNBOUND:                -0.631
REMARK  Name = 
REMARK  5 active torsions:
REMARK  status: ('A' for Active; 'I' for Inactive)
REMARK    1  A    between atoms: C_2  and  C_3
REMARK    2  A    between atoms: C_6  and  N_7
REMARK    3  A    between atoms: N_7  and  C_8
REMARK    4  A    between atoms: C_8  and  C_9
REMARK    5  A    between atoms: C_18  and  N_19
REMARK                            x       y       z     vdW  Elec       q    Type
REMARK                         _______ _______ _______ _____ _____    ______ ____
ROOT
ATOM      1  C   UNL     1      48.066   5.058  17.433  0.00  0.00    +0.000 A 
ATOM      2  N   UNL     1      48.575   6.098  16.721  0.00  0.00    +0.000 NA
ATOM      3  C   UNL     1      48.320   6.113  15.389  0.00  0.00    +0.000 A 
ATOM      4  C   UNL     1      47.577   5.152  14.708  0.00  0.00    +0.000 A 
ATOM      5  C   UNL     1      47.076   4.102  15.487  0.00  0.00    +0.000 A 
ATOM      6  C   UNL     1      47.266   4.049  16.876  0.00  0.00    +0.000 A 
ENDROOT
BRANCH   6   7
ATOM      7  N   UNL     1      46.847   2.897  17.565  0.00  0.00    +0.000 N 
ATOM      8  H   UNL     1      47.029   2.913  18.564  0.00  0.00    +0.000 HD
ATOM      9  H   UNL     1      47.111   2.009  17.144  0.00  0.00    +0.000 HD
ENDBRANCH   6   7
BRANCH   1  11
ATOM     10  N   UNL     1      48.587   5.048  19.981  0.00  0.00    +0.000 NA
ATOM     11  C   UNL     1      48.379   5.073  18.840  0.00  0.00    +0.000 C 
ENDBRANCH   1  11
BRANCH   4  12
ATOM     12  N   UNL     1      47.262   5.187  13.339  0.00  0.00    +0.000 N 
ATOM     13  H   UNL     1      47.701   4.474  12.769  0.00  0.00    +0.000 HD
BRANCH  12  14
ATOM     14  C   UNL     1      46.352   6.133  12.681  0.00  0.00    +0.000 C 
ATOM     15  C   UNL     1      44.857   6.024  12.926  0.00  0.00    +0.000 C 
ATOM     16  C   UNL     1      45.402   5.581  11.614  0.00  0.00    +0.000 C 
BRANCH  14  17
ATOM     17  C   UNL     1      47.000   7.451  12.250  0.00  0.00    +0.000 A 
ATOM     18  C   UNL     1      46.306   8.671  12.390  0.00  0.00    +0.000 A 
ATOM     19  C   UNL     1      46.929   9.904  12.173  0.00  0.00    +0.000 A 
ATOM     20  C   UNL     1      48.263   9.943  11.785  0.00  0.00    +0.000 A 
ATOM     21  C   UNL     1      48.957   8.752  11.581  0.00  0.00    +0.000 A 
ATOM     22  C   UNL     1      48.328   7.522  11.803  0.00  0.00    +0.000 A 
ENDBRANCH  14  17
ENDBRANCH  12  14
ENDBRANCH   4  12
TORSDOF 5
ENDMDL
