MODEL 1
REMARK VINA RESULT:    -8.358      0.000      0.000
REMARK INTER + INTRA:         -12.602
REMARK INTER:                 -11.778
REMARK INTRA:                  -0.825
REMARK UNBOUND:                -0.825
REMARK  Name = 
REMARK  9 active torsions:
REMARK  status: ('A' for Active; 'I' for Inactive)
REMARK    1  A    between atoms: C_1  and  O_2
REMARK    2  A    between atoms: O_2  and  C_3
REMARK    3  A    between atoms: C_5  and  C_6
REMARK    4  A    between atoms: C_6  and  N_7
REMARK    5  A    between atoms: C_8  and  C_10
REMARK    6  A    between atoms: C_22  and  C_23
REMARK    7  A    between atoms: C_23  and  N_24
REMARK    8  A    between atoms: C_25  and  C_27
REMARK    9  A    between atoms: N_30  and  C_31
REMARK                            x       y       z     vdW  Elec       q    Type
REMARK                         _______ _______ _______ _____ _____    ______ ____
ROOT
ATOM      1  C   UNL     1      44.423   6.017  12.300  0.00  0.00    +0.000 A 
ATOM      2  C   UNL     1      45.161   6.919  13.079  0.00  0.00    +0.000 A 
ATOM      3  C   UNL     1      46.372   7.452  12.613  0.00  0.00    +0.000 A 
ATOM      4  C   UNL     1      46.863   7.032  11.372  0.00  0.00    +0.000 A 
ATOM      5  C   UNL     1      46.113   6.168  10.575  0.00  0.00    +0.000 A 
ATOM      6  C   UNL     1      44.867   5.689  11.008  0.00  0.00    +0.000 A 
ENDROOT
BRANCH   1   8
ATOM      7  C   UNL     1      43.342   4.129  13.216  0.00  0.00    +0.000 C 
ATOM      8  O   UNL     1      43.239   5.462  12.717  0.00  0.00    +0.000 OA
ENDBRANCH   1   8
BRANCH   3   9
ATOM      9  C   UNL     1      47.164   8.412  13.461  0.00  0.00    +0.000 C 
BRANCH   9  10
ATOM     10  N   UNL     1      47.594   7.769  14.674  0.00  0.00    +0.000 N 
ATOM     11  C   UNL     1      48.562   6.800  14.672  0.00  0.00    +0.000 C 
ATOM     12  O   UNL     1      49.149   6.468  13.645  0.00  0.00    +0.000 OA
ATOM     13  H   UNL     1      46.975   7.851  15.475  0.00  0.00    +0.000 HD
BRANCH  11  14
ATOM     14  C   UNL     1      48.910   6.225  15.977  0.00  0.00    +0.000 A 
ATOM     15  C   UNL     1      49.870   6.844  16.766  0.00  0.00    +0.000 A 
ATOM     16  S   UNL     1      50.112   6.084  18.274  0.00  0.00    +0.000 S 
ATOM     17  C   UNL     1      48.979   4.869  17.903  0.00  0.00    +0.000 A 
ATOM     18  N   UNL     1      48.720   3.864  18.782  0.00  0.00    +0.000 NA
ATOM     19  C   UNL     1      47.866   2.991  18.360  0.00  0.00    +0.000 A 
ATOM     20  N   UNL     1      47.239   3.038  17.142  0.00  0.00    +0.000 N 
ATOM     21  C   UNL     1      47.446   4.051  16.237  0.00  0.00    +0.000 A 
ATOM     22  O   UNL     1      46.835   4.089  15.173  0.00  0.00    +0.000 OA
ATOM     23  C   UNL     1      48.411   5.050  16.655  0.00  0.00    +0.000 A 
ATOM     24  H   UNL     1      46.575   2.329  16.873  0.00  0.00    +0.000 HD
ENDBRANCH  11  14
ENDBRANCH   9  10
ENDBRANCH   3   9
BRANCH   6  25
ATOM     25  C   UNL     1      44.055   4.830  10.072  0.00  0.00    +0.000 C 
BRANCH  25  26
ATOM     26  N   UNL     1      44.878   4.165   9.095  0.00  0.00    +0.000 N 
ATOM     27  C   UNL     1      45.042   2.798   9.066  0.00  0.00    +0.000 C 
ATOM     28  O   UNL     1      44.508   2.037   9.862  0.00  0.00    +0.000 OA
ATOM     29  H   UNL     1      45.232   4.728   8.339  0.00  0.00    +0.000 HD
BRANCH  27  30
ATOM     30  C   UNL     1      45.908   2.316   8.004  0.00  0.00    +0.000 A 
ATOM     31  C   UNL     1      46.465   1.021   7.880  0.00  0.00    +0.000 A 
ATOM     32  N   UNL     1      47.225   0.880   6.788  0.00  0.00    +0.000 NA
ATOM     33  N   UNL     1      47.175   2.093   6.214  0.00  0.00    +0.000 N 
ATOM     34  C   UNL     1      47.882   2.346   4.982  0.00  0.00    +0.000 C 
ATOM     35  C   UNL     1      46.405   2.988   6.899  0.00  0.00    +0.000 A 
ENDBRANCH  27  30
ENDBRANCH  25  26
ENDBRANCH   6  25
TORSDOF 7
ENDMDL
MODEL 2
REMARK VINA RESULT:    -7.905      1.863      2.138
REMARK INTER + INTRA:         -11.964
REMARK INTER:                 -10.464
REMARK INTRA:                  -1.500
REMARK UNBOUND:                -0.825
REMARK  Name = 
REMARK  9 active torsions:
REMARK  status: ('A' for Active; 'I' for Inactive)
REMARK    1  A    between atoms: C_1  and  O_2
REMARK    2  A    between atoms: O_2  and  C_3
REMARK    3  A    between atoms: C_5  and  C_6
REMARK    4  A    between atoms: C_6  and  N_7
REMARK    5  A    between atoms: C_8  and  C_10
REMARK    6  A    between atoms: C_22  and  C_23
REMARK    7  A    between atoms: C_23  and  N_24
REMARK    8  A    between atoms: C_25  and  C_27
REMARK    9  A    between atoms: N_30  and  C_31
REMARK                            x       y       z     vdW  Elec       q    Type
REMARK                         _______ _______ _______ _____ _____    ______ ____
ROOT
ATOM      1  C   UNL     1      46.033   5.945  12.385  0.00  0.00    +0.000 A 
ATOM      2  C   UNL     1      46.750   6.863  13.164  0.00  0.00    +0.000 A 
ATOM      3  C   UNL     1      46.507   8.241  13.062  0.00  0.00    +0.000 A 
ATOM      4  C   UNL     1      45.568   8.695  12.130  0.00  0.00    +0.000 A 
ATOM      5  C   UNL     1      44.822   7.785  11.383  0.00  0.00    +0.000 A 
ATOM      6  C   UNL     1      45.013   6.402  11.534  0.00  0.00    +0.000 A 
ENDROOT
BRANCH   1   8
ATOM      7  C   UNL     1      46.732   4.109  13.694  0.00  0.00    +0.000 C 
ATOM      8  O   UNL     1      46.243   4.589  12.442  0.00  0.00    +0.000 OA
ENDBRANCH   1   8
BRANCH   3   9
ATOM      9  C   UNL     1      47.289   9.221  13.895  0.00  0.00    +0.000 C 
BRANCH   9  10
ATOM     10  N   UNL     1      47.445   8.724  15.237  0.00  0.00    +0.000 N 
ATOM     11  C   UNL     1      48.482   9.124  16.037  0.00  0.00    +0.000 C 
ATOM     12  O   UNL     1      49.300   9.967  15.672  0.00  0.00    +0.000 OA
ATOM     13  H   UNL     1      46.939   7.874  15.467  0.00  0.00    +0.000 HD
BRANCH  11  14
ATOM     14  C   UNL     1      48.527   8.543  17.384  0.00  0.00    +0.000 A 
ATOM     15  C   UNL     1      48.409   9.369  18.494  0.00  0.00    +0.000 A 
ATOM     16  S   UNL     1      48.420   8.528  19.978  0.00  0.00    +0.000 S 
ATOM     17  C   UNL     1      48.635   7.034  19.192  0.00  0.00    +0.000 A 
ATOM     18  N   UNL     1      48.748   5.881  19.903  0.00  0.00    +0.000 NA
ATOM     19  C   UNL     1      48.942   4.826  19.184  0.00  0.00    +0.000 A 
ATOM     20  N   UNL     1      49.023   4.818  17.815  0.00  0.00    +0.000 N 
ATOM     21  C   UNL     1      48.883   5.954  17.055  0.00  0.00    +0.000 A 
ATOM     22  O   UNL     1      48.915   5.907  15.829  0.00  0.00    +0.000 OA
ATOM     23  C   UNL     1      48.680   7.172  17.817  0.00  0.00    +0.000 A 
ATOM     24  H   UNL     1      49.169   3.958  17.310  0.00  0.00    +0.000 HD
ENDBRANCH  11  14
ENDBRANCH   9  10
ENDBRANCH   3   9
BRANCH   6  25
ATOM     25  C   UNL     1      44.120   5.458  10.769  0.00  0.00    +0.000 C 
BRANCH  25  26
ATOM     26  N   UNL     1      44.835   4.756   9.734  0.00  0.00    +0.000 N 
ATOM     27  C   UNL     1      44.668   3.410   9.496  0.00  0.00    +0.000 C 
ATOM     28  O   UNL     1      43.906   2.700  10.139  0.00  0.00    +0.000 OA
ATOM     29  H   UNL     1      45.372   5.315   9.092  0.00  0.00    +0.000 HD
BRANCH  27  30
ATOM     30  C   UNL     1      45.475   2.884   8.408  0.00  0.00    +0.000 A 
ATOM     31  C   UNL     1      46.101   1.617   8.346  0.00  0.00    +0.000 A 
ATOM     32  N   UNL     1      46.778   1.422   7.210  0.00  0.00    +0.000 NA
ATOM     33  N   UNL     1      46.604   2.573   6.541  0.00  0.00    +0.000 N 
ATOM     34  C   UNL     1      47.192   2.755   5.236  0.00  0.00    +0.000 C 
ATOM     35  C   UNL     1      45.836   3.482   7.211  0.00  0.00    +0.000 A 
ENDBRANCH  27  30
ENDBRANCH  25  26
ENDBRANCH   6  25
TORSDOF 7
ENDMDL
MODEL 3
REMARK VINA RESULT:    -7.324      3.486      8.382
REMARK INTER + INTRA:         -11.146
REMARK INTER:                  -9.717
REMARK INTRA:                  -1.429
REMARK UNBOUND:                -0.825
REMARK  Name = 
REMARK  9 active torsions:
REMARK  status: ('A' for Active; 'I' for Inactive)
REMARK    1  A    between atoms: C_1  and  O_2
REMARK    2  A    between atoms: O_2  and  C_3
REMARK    3  A    between atoms: C_5  and  C_6
REMARK    4  A    between atoms: C_6  and  N_7
REMARK    5  A    between atoms: C_8  and  C_10
REMARK    6  A    between atoms: C_22  and  C_23
REMARK    7  A    between atoms: C_23  and  N_24
REMARK    8  A    between atoms: C_25  and  C_27
REMARK    9  A    between atoms: N_30  and  C_31
REMARK                            x       y       z     vdW  Elec       q    Type
REMARK                         _______ _______ _______ _____ _____    ______ ____
ROOT
ATOM      1  C   UNL     1      48.378   5.983  15.781  0.00  0.00    +0.000 A 
ATOM      2  C   UNL     1      48.025   6.352  14.476  0.00  0.00    +0.000 A 
ATOM      3  C   UNL     1      48.774   7.304  13.768  0.00  0.00    +0.000 A 
ATOM      4  C   UNL     1      49.856   7.922  14.403  0.00  0.00    +0.000 A 
ATOM      5  C   UNL     1      50.236   7.529  15.685  0.00  0.00    +0.000 A 
ATOM      6  C   UNL     1      49.532   6.525  16.369  0.00  0.00    +0.000 A 
ENDROOT
BRANCH   1   8
ATOM      7  C   UNL     1      47.515   3.788  15.895  0.00  0.00    +0.000 C 
ATOM      8  O   UNL     1      47.671   5.064  16.516  0.00  0.00    +0.000 OA
ENDBRANCH   1   8
BRANCH   3   9
ATOM      9  C   UNL     1      48.382   7.703  12.370  0.00  0.00    +0.000 C 
BRANCH   9  10
ATOM     10  N   UNL     1      47.615   6.655  11.748  0.00  0.00    +0.000 N 
ATOM     11  C   UNL     1      46.289   6.817  11.445  0.00  0.00    +0.000 C 
ATOM     12  O   UNL     1      45.701   7.878  11.637  0.00  0.00    +0.000 OA
ATOM     13  H   UNL     1      48.003   5.719  11.799  0.00  0.00    +0.000 HD
BRANCH  11  14
ATOM     14  C   UNL     1      45.623   5.672  10.811  0.00  0.00    +0.000 A 
ATOM     15  C   UNL     1      45.716   5.497   9.437  0.00  0.00    +0.000 A 
ATOM     16  S   UNL     1      44.938   4.088   8.872  0.00  0.00    +0.000 S 
ATOM     17  C   UNL     1      44.403   3.690  10.438  0.00  0.00    +0.000 A 
ATOM     18  N   UNL     1      43.645   2.583  10.657  0.00  0.00    +0.000 NA
ATOM     19  C   UNL     1      43.280   2.419  11.885  0.00  0.00    +0.000 A 
ATOM     20  N   UNL     1      43.613   3.257  12.917  0.00  0.00    +0.000 N 
ATOM     21  C   UNL     1      44.403   4.368  12.748  0.00  0.00    +0.000 A 
ATOM     22  O   UNL     1      44.723   5.073  13.701  0.00  0.00    +0.000 OA
ATOM     23  C   UNL     1      44.827   4.608  11.381  0.00  0.00    +0.000 A 
ATOM     24  H   UNL     1      43.303   3.069  13.857  0.00  0.00    +0.000 HD
ENDBRANCH  11  14
ENDBRANCH   9  10
ENDBRANCH   3   9
BRANCH   6  25
ATOM     25  C   UNL     1      50.037   6.074  17.716  0.00  0.00    +0.000 C 
BRANCH  25  26
ATOM     26  N   UNL     1      50.493   4.707  17.694  0.00  0.00    +0.000 N 
ATOM     27  C   UNL     1      51.812   4.359  17.881  0.00  0.00    +0.000 C 
ATOM     28  O   UNL     1      52.704   5.174  18.077  0.00  0.00    +0.000 OA
ATOM     29  H   UNL     1      49.785   3.992  17.669  0.00  0.00    +0.000 HD
BRANCH  27  30
ATOM     30  C   UNL     1      52.074   2.931  17.826  0.00  0.00    +0.000 A 
ATOM     31  C   UNL     1      51.177   1.915  17.421  0.00  0.00    +0.000 A 
ATOM     32  N   UNL     1      51.711   0.690  17.480  0.00  0.00    +0.000 NA
ATOM     33  N   UNL     1      52.952   0.913  17.942  0.00  0.00    +0.000 N 
ATOM     34  C   UNL     1      53.864  -0.187  18.142  0.00  0.00    +0.000 C 
ATOM     35  C   UNL     1      53.220   2.232  18.168  0.00  0.00    +0.000 A 
ENDBRANCH  27  30
ENDBRANCH  25  26
ENDBRANCH   6  25
TORSDOF 7
ENDMDL
MODEL 4
REMARK VINA RESULT:    -7.238      2.053      2.572
REMARK INTER + INTRA:         -11.025
REMARK INTER:                  -9.567
REMARK INTRA:                  -1.458
REMARK UNBOUND:                -0.825
REMARK  Name = 
REMARK  9 active torsions:
REMARK  status: ('A' for Active; 'I' for Inactive)
REMARK    1  A    between atoms: C_1  and  O_2
REMARK    2  A    between atoms: O_2  and  C_3
REMARK    3  A    between atoms: C_5  and  C_6
REMARK    4  A    between atoms: C_6  and  N_7
REMARK    5  A    between atoms: C_8  and  C_10
REMARK    6  A    between atoms: C_22  and  C_23
REMARK    7  A    between atoms: C_23  and  N_24
REMARK    8  A    between atoms: C_25  and  C_27
REMARK    9  A    between atoms: N_30  and  C_31
REMARK                            x       y       z     vdW  Elec       q    Type
REMARK                         _______ _______ _______ _____ _____    ______ ____
ROOT
ATOM      1  C   UNL     1      46.430   6.344  12.749  0.00  0.00    +0.000 A 
ATOM      2  C   UNL     1      47.330   7.028  13.578  0.00  0.00    +0.000 A 
ATOM      3  C   UNL     1      47.274   8.425  13.705  0.00  0.00    +0.000 A 
ATOM      4  C   UNL     1      46.335   9.136  12.951  0.00  0.00    +0.000 A 
ATOM      5  C   UNL     1      45.412   8.458  12.157  0.00  0.00    +0.000 A 
ATOM      6  C   UNL     1      45.418   7.056  12.083  0.00  0.00    +0.000 A 
ENDROOT
BRANCH   1   8
ATOM      7  C   UNL     1      46.485   4.230  13.798  0.00  0.00    +0.000 C 
ATOM      8  O   UNL     1      46.452   4.981  12.585  0.00  0.00    +0.000 OA
ENDBRANCH   1   8
BRANCH   3   9
ATOM      9  C   UNL     1      48.251   9.153  14.589  0.00  0.00    +0.000 C 
BRANCH   9  10
ATOM     10  N   UNL     1      49.258   8.247  15.075  0.00  0.00    +0.000 N 
ATOM     11  C   UNL     1      50.036   8.550  16.161  0.00  0.00    +0.000 C 
ATOM     12  O   UNL     1      49.880   9.584  16.807  0.00  0.00    +0.000 OA
ATOM     13  H   UNL     1      49.560   7.520  14.435  0.00  0.00    +0.000 HD
BRANCH  11  14
ATOM     14  C   UNL     1      51.025   7.539  16.555  0.00  0.00    +0.000 A 
ATOM     15  C   UNL     1      52.375   7.866  16.565  0.00  0.00    +0.000 A 
ATOM     16  S   UNL     1      53.382   6.599  17.104  0.00  0.00    +0.000 S 
ATOM     17  C   UNL     1      52.054   5.550  17.290  0.00  0.00    +0.000 A 
ATOM     18  N   UNL     1      52.229   4.269  17.711  0.00  0.00    +0.000 NA
ATOM     19  C   UNL     1      51.142   3.574  17.776  0.00  0.00    +0.000 A 
ATOM     20  N   UNL     1      49.893   4.048  17.468  0.00  0.00    +0.000 N 
ATOM     21  C   UNL     1      49.666   5.343  17.070  0.00  0.00    +0.000 A 
ATOM     22  O   UNL     1      48.529   5.749  16.847  0.00  0.00    +0.000 OA
ATOM     23  C   UNL     1      50.858   6.163  16.964  0.00  0.00    +0.000 A 
ATOM     24  H   UNL     1      49.081   3.456  17.546  0.00  0.00    +0.000 HD
ENDBRANCH  11  14
ENDBRANCH   9  10
ENDBRANCH   3   9
BRANCH   6  25
ATOM     25  C   UNL     1      44.343   6.366  11.282  0.00  0.00    +0.000 C 
BRANCH  25  26
ATOM     26  N   UNL     1      44.891   5.452  10.313  0.00  0.00    +0.000 N 
ATOM     27  C   UNL     1      44.345   4.213  10.066  0.00  0.00    +0.000 C 
ATOM     28  O   UNL     1      43.356   3.783  10.646  0.00  0.00    +0.000 OA
ATOM     29  H   UNL     1      45.621   5.806   9.717  0.00  0.00    +0.000 HD
BRANCH  27  30
ATOM     30  C   UNL     1      45.038   3.438   9.051  0.00  0.00    +0.000 A 
ATOM     31  C   UNL     1      45.276   2.043   9.058  0.00  0.00    +0.000 A 
ATOM     32  N   UNL     1      45.944   1.621   7.979  0.00  0.00    +0.000 NA
ATOM     33  N   UNL     1      46.155   2.748   7.281  0.00  0.00    +0.000 N 
ATOM     34  C   UNL     1      46.857   2.705   6.021  0.00  0.00    +0.000 C 
ATOM     35  C   UNL     1      45.637   3.862   7.876  0.00  0.00    +0.000 A 
ENDBRANCH  27  30
ENDBRANCH  25  26
ENDBRANCH   6  25
TORSDOF 7
ENDMDL
MODEL 5
REMARK VINA RESULT:    -7.106      3.401      4.957
REMARK INTER + INTRA:         -10.839
REMARK INTER:                  -9.306
REMARK INTRA:                  -1.532
REMARK UNBOUND:                -0.825
REMARK  Name = 
REMARK  9 active torsions:
REMARK  status: ('A' for Active; 'I' for Inactive)
REMARK    1  A    between atoms: C_1  and  O_2
REMARK    2  A    between atoms: O_2  and  C_3
REMARK    3  A    between atoms: C_5  and  C_6
REMARK    4  A    between atoms: C_6  and  N_7
REMARK    5  A    between atoms: C_8  and  C_10
REMARK    6  A    between atoms: C_22  and  C_23
REMARK    7  A    between atoms: C_23  and  N_24
REMARK    8  A    between atoms: C_25  and  C_27
REMARK    9  A    between atoms: N_30  and  C_31
REMARK                            x       y       z     vdW  Elec       q    Type
REMARK                         _______ _______ _______ _____ _____    ______ ____
ROOT
ATOM      1  C   UNL     1      45.711   5.387  13.100  0.00  0.00    +0.000 A 
ATOM      2  C   UNL     1      46.240   6.585  13.597  0.00  0.00    +0.000 A 
ATOM      3  C   UNL     1      45.961   7.811  12.974  0.00  0.00    +0.000 A 
ATOM      4  C   UNL     1      45.181   7.817  11.813  0.00  0.00    +0.000 A 
ATOM      5  C   UNL     1      44.618   6.634  11.338  0.00  0.00    +0.000 A 
ATOM      6  C   UNL     1      44.837   5.416  12.001  0.00  0.00    +0.000 A 
ENDROOT
BRANCH   1   8
ATOM      7  C   UNL     1      47.196   4.076  14.385  0.00  0.00    +0.000 C 
ATOM      8  O   UNL     1      45.964   4.163  13.669  0.00  0.00    +0.000 OA
ENDBRANCH   1   8
BRANCH   3   9
ATOM      9  C   UNL     1      46.542   9.093  13.509  0.00  0.00    +0.000 C 
BRANCH   9  10
ATOM     10  N   UNL     1      47.862   9.304  12.977  0.00  0.00    +0.000 N 
ATOM     11  C   UNL     1      48.084  10.128  11.905  0.00  0.00    +0.000 C 
ATOM     12  O   UNL     1      47.178  10.771  11.379  0.00  0.00    +0.000 OA
ATOM     13  H   UNL     1      48.568   8.620  13.232  0.00  0.00    +0.000 HD
BRANCH  11  14
ATOM     14  C   UNL     1      49.478  10.257  11.461  0.00  0.00    +0.000 A 
ATOM     15  C   UNL     1      49.995  11.514  11.178  0.00  0.00    +0.000 A 
ATOM     16  S   UNL     1      51.642  11.493  10.735  0.00  0.00    +0.000 S 
ATOM     17  C   UNL     1      51.707   9.796  10.853  0.00  0.00    +0.000 A 
ATOM     18  N   UNL     1      52.854   9.120  10.575  0.00  0.00    +0.000 NA
ATOM     19  C   UNL     1      52.755   7.836  10.671  0.00  0.00    +0.000 A 
ATOM     20  N   UNL     1      51.614   7.166  11.032  0.00  0.00    +0.000 N 
ATOM     21  C   UNL     1      50.443   7.809  11.352  0.00  0.00    +0.000 A 
ATOM     22  O   UNL     1      49.453   7.183  11.716  0.00  0.00    +0.000 OA
ATOM     23  C   UNL     1      50.496   9.255  11.243  0.00  0.00    +0.000 A 
ATOM     24  H   UNL     1      51.603   6.160  11.096  0.00  0.00    +0.000 HD
ENDBRANCH  11  14
ENDBRANCH   9  10
ENDBRANCH   3   9
BRANCH   6  25
ATOM     25  C   UNL     1      44.134   4.180  11.499  0.00  0.00    +0.000 C 
BRANCH  25  26
ATOM     26  N   UNL     1      44.911   3.477  10.511  0.00  0.00    +0.000 N 
ATOM     27  C   UNL     1      44.717   3.641   9.157  0.00  0.00    +0.000 C 
ATOM     28  O   UNL     1      43.873   4.389   8.682  0.00  0.00    +0.000 OA
ATOM     29  H   UNL     1      45.703   2.952  10.843  0.00  0.00    +0.000 HD
BRANCH  27  30
ATOM     30  C   UNL     1      45.601   2.848   8.320  0.00  0.00    +0.000 A 
ATOM     31  C   UNL     1      45.835   1.455   8.407  0.00  0.00    +0.000 A 
ATOM     32  N   UNL     1      46.705   1.012   7.493  0.00  0.00    +0.000 NA
ATOM     33  N   UNL     1      47.049   2.125   6.825  0.00  0.00    +0.000 N 
ATOM     34  C   UNL     1      47.990   2.058   5.732  0.00  0.00    +0.000 C 
ATOM     35  C   UNL     1      46.421   3.249   7.278  0.00  0.00    +0.000 A 
ENDBRANCH  27  30
ENDBRANCH  25  26
ENDBRANCH   6  25
TORSDOF 7
ENDMDL
MODEL 6
REMARK VINA RESULT:    -7.077      2.762      4.711
REMARK INTER + INTRA:         -10.798
REMARK INTER:                  -9.380
REMARK INTRA:                  -1.418
REMARK UNBOUND:                -0.825
REMARK  Name = 
REMARK  9 active torsions:
REMARK  status: ('A' for Active; 'I' for Inactive)
REMARK    1  A    between atoms: C_1  and  O_2
REMARK    2  A    between atoms: O_2  and  C_3
REMARK    3  A    between atoms: C_5  and  C_6
REMARK    4  A    between atoms: C_6  and  N_7
REMARK    5  A    between atoms: C_8  and  C_10
REMARK    6  A    between atoms: C_22  and  C_23
REMARK    7  A    between atoms: C_23  and  N_24
REMARK    8  A    between atoms: C_25  and  C_27
REMARK    9  A    between atoms: N_30  and  C_31
REMARK                            x       y       z     vdW  Elec       q    Type
REMARK                         _______ _______ _______ _____ _____    ______ ____
ROOT
ATOM      1  C   UNL     1      44.903   5.238  12.366  0.00  0.00    +0.000 A 
ATOM      2  C   UNL     1      45.811   5.901  13.203  0.00  0.00    +0.000 A 
ATOM      3  C   UNL     1      46.808   5.192  13.890  0.00  0.00    +0.000 A 
ATOM      4  C   UNL     1      46.855   3.800  13.768  0.00  0.00    +0.000 A 
ATOM      5  C   UNL     1      45.981   3.140  12.906  0.00  0.00    +0.000 A 
ATOM      6  C   UNL     1      45.028   3.854  12.162  0.00  0.00    +0.000 A 
ENDROOT
BRANCH   1   8
ATOM      7  C   UNL     1      44.164   7.261  11.399  0.00  0.00    +0.000 C 
ATOM      8  O   UNL     1      43.905   5.886  11.682  0.00  0.00    +0.000 OA
ENDBRANCH   1   8
BRANCH   3   9
ATOM      9  C   UNL     1      47.774   5.912  14.795  0.00  0.00    +0.000 C 
BRANCH   9  10
ATOM     10  N   UNL     1      48.474   6.936  14.066  0.00  0.00    +0.000 N 
ATOM     11  C   UNL     1      49.051   8.004  14.700  0.00  0.00    +0.000 C 
ATOM     12  O   UNL     1      49.049   8.115  15.924  0.00  0.00    +0.000 OA
ATOM     13  H   UNL     1      48.287   6.992  13.069  0.00  0.00    +0.000 HD
BRANCH  11  14
ATOM     14  C   UNL     1      49.736   8.979  13.841  0.00  0.00    +0.000 A 
ATOM     15  C   UNL     1      51.086   9.235  14.034  0.00  0.00    +0.000 A 
ATOM     16  S   UNL     1      51.739  10.345  12.914  0.00  0.00    +0.000 S 
ATOM     17  C   UNL     1      50.226  10.562  12.165  0.00  0.00    +0.000 A 
ATOM     18  N   UNL     1      50.080  11.422  11.122  0.00  0.00    +0.000 NA
ATOM     19  C   UNL     1      48.873  11.516  10.672  0.00  0.00    +0.000 A 
ATOM     20  N   UNL     1      47.800  10.819  11.163  0.00  0.00    +0.000 N 
ATOM     21  C   UNL     1      47.907   9.917  12.193  0.00  0.00    +0.000 A 
ATOM     22  O   UNL     1      46.935   9.274  12.580  0.00  0.00    +0.000 OA
ATOM     23  C   UNL     1      49.241   9.786  12.748  0.00  0.00    +0.000 A 
ATOM     24  H   UNL     1      46.882  10.931  10.762  0.00  0.00    +0.000 HD
ENDBRANCH  11  14
ENDBRANCH   9  10
ENDBRANCH   3   9
BRANCH   6  25
ATOM     25  C   UNL     1      44.167   3.105  11.177  0.00  0.00    +0.000 C 
BRANCH  25  26
ATOM     26  N   UNL     1      44.925   2.621  10.052  0.00  0.00    +0.000 N 
ATOM     27  C   UNL     1      45.234   3.410   8.967  0.00  0.00    +0.000 C 
ATOM     28  O   UNL     1      44.891   4.580   8.865  0.00  0.00    +0.000 OA
ATOM     29  H   UNL     1      45.343   1.709  10.144  0.00  0.00    +0.000 HD
BRANCH  27  30
ATOM     30  C   UNL     1      46.009   2.742   7.935  0.00  0.00    +0.000 A 
ATOM     31  C   UNL     1      46.448   1.397   7.934  0.00  0.00    +0.000 A 
ATOM     32  N   UNL     1      47.144   1.074   6.839  0.00  0.00    +0.000 NA
ATOM     33  N   UNL     1      47.171   2.218   6.137  0.00  0.00    +0.000 N 
ATOM     34  C   UNL     1      47.841   2.276   4.860  0.00  0.00    +0.000 C 
ATOM     35  C   UNL     1      46.510   3.247   6.746  0.00  0.00    +0.000 A 
ENDBRANCH  27  30
ENDBRANCH  25  26
ENDBRANCH   6  25
TORSDOF 7
ENDMDL
MODEL 7
REMARK VINA RESULT:    -6.969      4.529      7.504
REMARK INTER + INTRA:         -10.645
REMARK INTER:                  -9.562
REMARK INTRA:                  -1.084
REMARK UNBOUND:                -0.825
REMARK  Name = 
REMARK  9 active torsions:
REMARK  status: ('A' for Active; 'I' for Inactive)
REMARK    1  A    between atoms: C_1  and  O_2
REMARK    2  A    between atoms: O_2  and  C_3
REMARK    3  A    between atoms: C_5  and  C_6
REMARK    4  A    between atoms: C_6  and  N_7
REMARK    5  A    between atoms: C_8  and  C_10
REMARK    6  A    between atoms: C_22  and  C_23
REMARK    7  A    between atoms: C_23  and  N_24
REMARK    8  A    between atoms: C_25  and  C_27
REMARK    9  A    between atoms: N_30  and  C_31
REMARK                            x       y       z     vdW  Elec       q    Type
REMARK                         _______ _______ _______ _____ _____    ______ ____
ROOT
ATOM      1  C   UNL     1      50.085   9.203  13.228  0.00  0.00    +0.000 A 
ATOM      2  C   UNL     1      48.733   9.072  13.572  0.00  0.00    +0.000 A 
ATOM      3  C   UNL     1      47.884   8.220  12.850  0.00  0.00    +0.000 A 
ATOM      4  C   UNL     1      48.396   7.535  11.743  0.00  0.00    +0.000 A 
ATOM      5  C   UNL     1      49.749   7.630  11.421  0.00  0.00    +0.000 A 
ATOM      6  C   UNL     1      50.616   8.426  12.186  0.00  0.00    +0.000 A 
ENDROOT
BRANCH   1   8
ATOM      7  C   UNL     1      50.374  11.248  14.374  0.00  0.00    +0.000 C 
ATOM      8  O   UNL     1      50.951  10.031  13.899  0.00  0.00    +0.000 OA
ENDBRANCH   1   8
BRANCH   3   9
ATOM      9  C   UNL     1      46.430   8.092  13.220  0.00  0.00    +0.000 C 
BRANCH   9  10
ATOM     10  N   UNL     1      45.929   6.797  12.841  0.00  0.00    +0.000 N 
ATOM     11  C   UNL     1      44.944   6.652  11.901  0.00  0.00    +0.000 C 
ATOM     12  O   UNL     1      44.476   7.613  11.294  0.00  0.00    +0.000 OA
ATOM     13  H   UNL     1      46.123   6.032  13.481  0.00  0.00    +0.000 HD
BRANCH  11  14
ATOM     14  C   UNL     1      44.524   5.276  11.606  0.00  0.00    +0.000 A 
ATOM     15  C   UNL     1      43.775   4.572  12.538  0.00  0.00    +0.000 A 
ATOM     16  S   UNL     1      43.319   3.014  12.015  0.00  0.00    +0.000 S 
ATOM     17  C   UNL     1      44.154   3.206  10.544  0.00  0.00    +0.000 A 
ATOM     18  N   UNL     1      44.185   2.205   9.623  0.00  0.00    +0.000 NA
ATOM     19  C   UNL     1      44.881   2.471   8.568  0.00  0.00    +0.000 A 
ATOM     20  N   UNL     1      45.542   3.652   8.346  0.00  0.00    +0.000 N 
ATOM     21  C   UNL     1      45.512   4.700   9.233  0.00  0.00    +0.000 A 
ATOM     22  O   UNL     1      46.076   5.761   8.984  0.00  0.00    +0.000 OA
ATOM     23  C   UNL     1      44.756   4.446  10.445  0.00  0.00    +0.000 A 
ATOM     24  H   UNL     1      46.064   3.801   7.497  0.00  0.00    +0.000 HD
ENDBRANCH  11  14
ENDBRANCH   9  10
ENDBRANCH   3   9
BRANCH   6  25
ATOM     25  C   UNL     1      52.086   8.425  11.852  0.00  0.00    +0.000 C 
BRANCH  25  26
ATOM     26  N   UNL     1      52.401   7.500  10.794  0.00  0.00    +0.000 N 
ATOM     27  C   UNL     1      52.752   7.909   9.527  0.00  0.00    +0.000 C 
ATOM     28  O   UNL     1      52.823   9.084   9.192  0.00  0.00    +0.000 OA
ATOM     29  H   UNL     1      52.487   6.529  11.048  0.00  0.00    +0.000 HD
BRANCH  27  30
ATOM     30  C   UNL     1      53.036   6.827   8.599  0.00  0.00    +0.000 A 
ATOM     31  C   UNL     1      52.376   6.558   7.376  0.00  0.00    +0.000 A 
ATOM     32  N   UNL     1      52.866   5.487   6.742  0.00  0.00    +0.000 NA
ATOM     33  N   UNL     1      53.833   5.052   7.566  0.00  0.00    +0.000 N 
ATOM     34  C   UNL     1      54.617   3.890   7.221  0.00  0.00    +0.000 C 
ATOM     35  C   UNL     1      53.976   5.814   8.689  0.00  0.00    +0.000 A 
ENDBRANCH  27  30
ENDBRANCH  25  26
ENDBRANCH   6  25
TORSDOF 7
ENDMDL
MODEL 8
REMARK VINA RESULT:    -6.859      3.810      8.437
REMARK INTER + INTRA:         -10.491
REMARK INTER:                  -9.252
REMARK INTRA:                  -1.239
REMARK UNBOUND:                -0.825
REMARK  Name = 
REMARK  9 active torsions:
REMARK  status: ('A' for Active; 'I' for Inactive)
REMARK    1  A    between atoms: C_1  and  O_2
REMARK    2  A    between atoms: O_2  and  C_3
REMARK    3  A    between atoms: C_5  and  C_6
REMARK    4  A    between atoms: C_6  and  N_7
REMARK    5  A    between atoms: C_8  and  C_10
REMARK    6  A    between atoms: C_22  and  C_23
REMARK    7  A    between atoms: C_23  and  N_24
REMARK    8  A    between atoms: C_25  and  C_27
REMARK    9  A    between atoms: N_30  and  C_31
REMARK                            x       y       z     vdW  Elec       q    Type
REMARK                         _______ _______ _______ _____ _____    ______ ____
ROOT
ATOM      1  C   UNL     1      48.886   5.400  17.710  0.00  0.00    +0.000 A 
ATOM      2  C   UNL     1      48.575   6.246  16.638  0.00  0.00    +0.000 A 
ATOM      3  C   UNL     1      49.552   7.075  16.067  0.00  0.00    +0.000 A 
ATOM      4  C   UNL     1      50.838   7.084  16.617  0.00  0.00    +0.000 A 
ATOM      5  C   UNL     1      51.163   6.214  17.657  0.00  0.00    +0.000 A 
ATOM      6  C   UNL     1      50.207   5.331  18.183  0.00  0.00    +0.000 A 
ENDROOT
BRANCH   1   8
ATOM      7  C   UNL     1      47.337   3.639  17.433  0.00  0.00    +0.000 C 
ATOM      8  O   UNL     1      47.962   4.578  18.307  0.00  0.00    +0.000 OA
ENDBRANCH   1   8
BRANCH   3   9
ATOM      9  C   UNL     1      49.208   7.990  14.921  0.00  0.00    +0.000 C 
BRANCH   9  10
ATOM     10  N   UNL     1      47.972   7.579  14.308  0.00  0.00    +0.000 N 
ATOM     11  C   UNL     1      47.950   6.754  13.215  0.00  0.00    +0.000 C 
ATOM     12  O   UNL     1      48.977   6.279  12.735  0.00  0.00    +0.000 OA
ATOM     13  H   UNL     1      47.151   8.133  14.529  0.00  0.00    +0.000 HD
BRANCH  11  14
ATOM     14  C   UNL     1      46.624   6.410  12.686  0.00  0.00    +0.000 A 
ATOM     15  C   UNL     1      45.815   7.408  12.158  0.00  0.00    +0.000 A 
ATOM     16  S   UNL     1      44.336   6.831  11.534  0.00  0.00    +0.000 S 
ATOM     17  C   UNL     1      44.701   5.235  11.997  0.00  0.00    +0.000 A 
ATOM     18  N   UNL     1      43.821   4.223  11.769  0.00  0.00    +0.000 NA
ATOM     19  C   UNL     1      44.209   3.070  12.201  0.00  0.00    +0.000 A 
ATOM     20  N   UNL     1      45.404   2.834  12.832  0.00  0.00    +0.000 N 
ATOM     21  C   UNL     1      46.335   3.818  13.054  0.00  0.00    +0.000 A 
ATOM     22  O   UNL     1      47.415   3.566  13.580  0.00  0.00    +0.000 OA
ATOM     23  C   UNL     1      45.940   5.139  12.602  0.00  0.00    +0.000 A 
ATOM     24  H   UNL     1      45.652   1.907  13.140  0.00  0.00    +0.000 HD
ENDBRANCH  11  14
ENDBRANCH   9  10
ENDBRANCH   3   9
BRANCH   6  25
ATOM     25  C   UNL     1      50.631   4.349  19.245  0.00  0.00    +0.000 C 
BRANCH  25  26
ATOM     26  N   UNL     1      51.786   3.586  18.846  0.00  0.00    +0.000 N 
ATOM     27  C   UNL     1      51.724   2.572  17.917  0.00  0.00    +0.000 C 
ATOM     28  O   UNL     1      50.691   2.232  17.357  0.00  0.00    +0.000 OA
ATOM     29  H   UNL     1      52.681   3.909  19.176  0.00  0.00    +0.000 HD
BRANCH  27  30
ATOM     30  C   UNL     1      52.995   1.922  17.646  0.00  0.00    +0.000 A 
ATOM     31  C   UNL     1      54.264   2.540  17.543  0.00  0.00    +0.000 A 
ATOM     32  N   UNL     1      55.249   1.673  17.285  0.00  0.00    +0.000 NA
ATOM     33  N   UNL     1      54.613   0.494  17.202  0.00  0.00    +0.000 N 
ATOM     34  C   UNL     1      55.353  -0.716  16.932  0.00  0.00    +0.000 C 
ATOM     35  C   UNL     1      53.267   0.584  17.407  0.00  0.00    +0.000 A 
ENDBRANCH  27  30
ENDBRANCH  25  26
ENDBRANCH   6  25
TORSDOF 7
ENDMDL
MODEL 9
REMARK VINA RESULT:    -6.753      2.779      4.538
REMARK INTER + INTRA:         -10.342
REMARK INTER:                  -9.530
REMARK INTRA:                  -0.812
REMARK UNBOUND:                -0.825
REMARK  Name = 
REMARK  9 active torsions:
REMARK  status: ('A' for Active; 'I' for Inactive)
REMARK    1  A    between atoms: C_1  and  O_2
REMARK    2  A    between atoms: O_2  and  C_3
REMARK    3  A    between atoms: C_5  and  C_6
REMARK    4  A    between atoms: C_6  and  N_7
REMARK    5  A    between atoms: C_8  and  C_10
REMARK    6  A    between atoms: C_22  and  C_23
REMARK    7  A    between atoms: C_23  and  N_24
REMARK    8  A    between atoms: C_25  and  C_27
REMARK    9  A    between atoms: N_30  and  C_31
REMARK                            x       y       z     vdW  Elec       q    Type
REMARK                         _______ _______ _______ _____ _____    ______ ____
ROOT
ATOM      1  C   UNL     1      48.048   6.494  14.019  0.00  0.00    +0.000 A 
ATOM      2  C   UNL     1      48.450   6.462  15.362  0.00  0.00    +0.000 A 
ATOM      3  C   UNL     1      48.619   7.647  16.093  0.00  0.00    +0.000 A 
ATOM      4  C   UNL     1      48.428   8.873  15.448  0.00  0.00    +0.000 A 
ATOM      5  C   UNL     1      47.989   8.911  14.125  0.00  0.00    +0.000 A 
ATOM      6  C   UNL     1      47.749   7.725  13.412  0.00  0.00    +0.000 A 
ENDROOT
BRANCH   1   8
ATOM      7  C   UNL     1      47.117   4.328  13.885  0.00  0.00    +0.000 C 
ATOM      8  O   UNL     1      47.878   5.362  13.261  0.00  0.00    +0.000 OA
ENDBRANCH   1   8
BRANCH   3   9
ATOM      9  C   UNL     1      49.061   7.604  17.532  0.00  0.00    +0.000 C 
BRANCH   9  10
ATOM     10  N   UNL     1      50.127   6.651  17.699  0.00  0.00    +0.000 N 
ATOM     11  C   UNL     1      50.031   5.612  18.587  0.00  0.00    +0.000 C 
ATOM     12  O   UNL     1      49.013   5.408  19.245  0.00  0.00    +0.000 OA
ATOM     13  H   UNL     1      51.041   6.929  17.356  0.00  0.00    +0.000 HD
BRANCH  11  14
ATOM     14  C   UNL     1      51.188   4.711  18.660  0.00  0.00    +0.000 A 
ATOM     15  C   UNL     1      52.333   5.116  19.334  0.00  0.00    +0.000 A 
ATOM     16  S   UNL     1      53.558   3.930  19.377  0.00  0.00    +0.000 S 
ATOM     17  C   UNL     1      52.622   2.853  18.449  0.00  0.00    +0.000 A 
ATOM     18  N   UNL     1      53.105   1.631  18.100  0.00  0.00    +0.000 NA
ATOM     19  C   UNL     1      52.305   0.929  17.367  0.00  0.00    +0.000 A 
ATOM     20  N   UNL     1      51.061   1.335  16.961  0.00  0.00    +0.000 N 
ATOM     21  C   UNL     1      50.520   2.546  17.317  0.00  0.00    +0.000 A 
ATOM     22  O   UNL     1      49.384   2.861  16.976  0.00  0.00    +0.000 OA
ATOM     23  C   UNL     1      51.386   3.382  18.127  0.00  0.00    +0.000 A 
ATOM     24  H   UNL     1      50.480   0.736  16.395  0.00  0.00    +0.000 HD
ENDBRANCH  11  14
ENDBRANCH   9  10
ENDBRANCH   3   9
BRANCH   6  25
ATOM     25  C   UNL     1      47.189   7.818  12.016  0.00  0.00    +0.000 C 
BRANCH  25  26
ATOM     26  N   UNL     1      46.511   6.611  11.622  0.00  0.00    +0.000 N 
ATOM     27  C   UNL     1      45.163   6.571  11.341  0.00  0.00    +0.000 C 
ATOM     28  O   UNL     1      44.432   7.550  11.404  0.00  0.00    +0.000 OA
ATOM     29  H   UNL     1      47.087   5.808  11.426  0.00  0.00    +0.000 HD
BRANCH  27  30
ATOM     30  C   UNL     1      44.664   5.261  10.958  0.00  0.00    +0.000 A 
ATOM     31  C   UNL     1      43.557   4.575  11.512  0.00  0.00    +0.000 A 
ATOM     32  N   UNL     1      43.345   3.382  10.948  0.00  0.00    +0.000 NA
ATOM     33  N   UNL     1      44.328   3.287  10.038  0.00  0.00    +0.000 N 
ATOM     34  C   UNL     1      44.437   2.116   9.202  0.00  0.00    +0.000 C 
ATOM     35  C   UNL     1      45.145   4.379  10.004  0.00  0.00    +0.000 A 
ENDBRANCH  27  30
ENDBRANCH  25  26
ENDBRANCH   6  25
TORSDOF 7
ENDMDL
