MODEL 1
REMARK VINA RESULT:    -8.323      0.000      0.000
REMARK INTER + INTRA:         -12.299
REMARK INTER:                 -11.242
REMARK INTRA:                  -1.057
REMARK UNBOUND:                -1.057
REMARK  Name = 
REMARK  7 active torsions:
REMARK  status: ('A' for Active; 'I' for Inactive)
REMARK    1  A    between atoms: C_1  and  O_2
REMARK    2  A    between atoms: O_2  and  C_3
REMARK    3  A    between atoms: C_7  and  C_8
REMARK    4  A    between atoms: C_8  and  C_9
REMARK    5  A    between atoms: C_12  and  C_13
REMARK    6  A    between atoms: C_13  and  N_14
REMARK    7  A    between atoms: C_15  and  C_17
REMARK                            x       y       z     vdW  Elec       q    Type
REMARK                         _______ _______ _______ _____ _____    ______ ____
ROOT
ATOM      1  C   UNL     1      47.321   8.299  13.630  0.00  0.00    +0.000 C 
ENDROOT
BRANCH   1   5
ATOM      2  C   UNL     1      44.767   5.937  11.060  0.00  0.00    +0.000 A 
ATOM      3  C   UNL     1      46.005   5.437  11.485  0.00  0.00    +0.000 A 
ATOM      4  C   UNL     1      46.840   6.204  12.301  0.00  0.00    +0.000 A 
ATOM      5  C   UNL     1      46.454   7.489  12.703  0.00  0.00    +0.000 A 
ATOM      6  C   UNL     1      45.248   8.014  12.221  0.00  0.00    +0.000 A 
ATOM      7  C   UNL     1      44.405   7.241  11.418  0.00  0.00    +0.000 A 
BRANCH   2   8
ATOM      8  C   UNL     1      43.828   5.068  10.257  0.00  0.00    +0.000 C 
BRANCH   8  13
ATOM      9  C   UNL     1      45.875   3.563   7.597  0.00  0.00    +0.000 A 
ATOM     10  C   UNL     1      45.920   2.211   7.885  0.00  0.00    +0.000 A 
ATOM     11  C   UNL     1      45.201   1.754   8.982  0.00  0.00    +0.000 A 
ATOM     12  C   UNL     1      44.483   2.664   9.756  0.00  0.00    +0.000 A 
ATOM     13  C   UNL     1      44.502   4.014   9.407  0.00  0.00    +0.000 A 
ATOM     14  N   UNL     1      45.188   4.465   8.331  0.00  0.00    +0.000 NA
BRANCH   9  16
ATOM     15  C   UNL     1      46.936   2.925   5.625  0.00  0.00    +0.000 C 
ATOM     16  O   UNL     1      46.606   3.994   6.508  0.00  0.00    +0.000 OA
ENDBRANCH   9  16
ENDBRANCH   8  13
ENDBRANCH   2   8
ENDBRANCH   1   5
BRANCH   1  17
ATOM     17  N   UNL     1      47.687   7.550  14.803  0.00  0.00    +0.000 N 
ATOM     18  C   UNL     1      48.912   6.943  14.901  0.00  0.00    +0.000 C 
ATOM     19  O   UNL     1      49.765   7.050  14.023  0.00  0.00    +0.000 OA
ATOM     20  H   UNL     1      46.932   7.257  15.416  0.00  0.00    +0.000 HD
BRANCH  18  21
ATOM     21  C   UNL     1      49.181   6.212  16.144  0.00  0.00    +0.000 A 
ATOM     22  C   UNL     1      50.218   6.622  16.973  0.00  0.00    +0.000 A 
ATOM     23  S   UNL     1      50.362   5.696  18.398  0.00  0.00    +0.000 S 
ATOM     24  C   UNL     1      49.079   4.679  17.931  0.00  0.00    +0.000 A 
ATOM     25  N   UNL     1      48.699   3.633  18.712  0.00  0.00    +0.000 NA
ATOM     26  C   UNL     1      47.734   2.927  18.223  0.00  0.00    +0.000 A 
ATOM     27  N   UNL     1      47.113   3.176  17.029  0.00  0.00    +0.000 N 
ATOM     28  C   UNL     1      47.442   4.238  16.219  0.00  0.00    +0.000 A 
ATOM     29  O   UNL     1      46.834   4.462  15.180  0.00  0.00    +0.000 OA
ATOM     30  C   UNL     1      48.533   5.057  16.717  0.00  0.00    +0.000 A 
ATOM     31  H   UNL     1      46.356   2.590  16.703  0.00  0.00    +0.000 HD
ENDBRANCH  18  21
ENDBRANCH   1  17
TORSDOF 6
ENDMDL
MODEL 2
REMARK VINA RESULT:    -7.646      2.401      3.097
REMARK INTER + INTRA:         -11.384
REMARK INTER:                 -10.339
REMARK INTRA:                  -1.045
REMARK UNBOUND:                -1.057
REMARK  Name = 
REMARK  7 active torsions:
REMARK  status: ('A' for Active; 'I' for Inactive)
REMARK    1  A    between atoms: C_1  and  O_2
REMARK    2  A    between atoms: O_2  and  C_3
REMARK    3  A    between atoms: C_7  and  C_8
REMARK    4  A    between atoms: C_8  and  C_9
REMARK    5  A    between atoms: C_12  and  C_13
REMARK    6  A    between atoms: C_13  and  N_14
REMARK    7  A    between atoms: C_15  and  C_17
REMARK                            x       y       z     vdW  Elec       q    Type
REMARK                         _______ _______ _______ _____ _____    ______ ____
ROOT
ATOM      1  C   UNL     1      48.607   6.913  13.975  0.00  0.00    +0.000 C 
ENDROOT
BRANCH   1   5
ATOM      2  C   UNL     1      45.387   5.497  11.458  0.00  0.00    +0.000 A 
ATOM      3  C   UNL     1      46.124   6.633  11.097  0.00  0.00    +0.000 A 
ATOM      4  C   UNL     1      47.153   7.103  11.916  0.00  0.00    +0.000 A 
ATOM      5  C   UNL     1      47.461   6.448  13.115  0.00  0.00    +0.000 A 
ATOM      6  C   UNL     1      46.679   5.354  13.509  0.00  0.00    +0.000 A 
ATOM      7  C   UNL     1      45.660   4.874  12.682  0.00  0.00    +0.000 A 
BRANCH   2   8
ATOM      8  C   UNL     1      44.340   4.937  10.524  0.00  0.00    +0.000 C 
BRANCH   8  13
ATOM      9  C   UNL     1      45.993   3.552   7.544  0.00  0.00    +0.000 A 
ATOM     10  C   UNL     1      45.983   2.181   7.719  0.00  0.00    +0.000 A 
ATOM     11  C   UNL     1      45.359   1.672   8.851  0.00  0.00    +0.000 A 
ATOM     12  C   UNL     1      44.787   2.551   9.769  0.00  0.00    +0.000 A 
ATOM     13  C   UNL     1      44.853   3.923   9.525  0.00  0.00    +0.000 A 
ATOM     14  N   UNL     1      45.446   4.425   8.417  0.00  0.00    +0.000 NA
BRANCH   9  16
ATOM     15  C   UNL     1      46.987   2.990   5.515  0.00  0.00    +0.000 C 
ATOM     16  O   UNL     1      46.628   4.034   6.416  0.00  0.00    +0.000 OA
ENDBRANCH   9  16
ENDBRANCH   8  13
ENDBRANCH   2   8
ENDBRANCH   1   5
BRANCH   1  17
ATOM     17  N   UNL     1      48.217   7.041  15.354  0.00  0.00    +0.000 N 
ATOM     18  C   UNL     1      48.992   6.523  16.358  0.00  0.00    +0.000 C 
ATOM     19  O   UNL     1      50.069   5.976  16.135  0.00  0.00    +0.000 OA
ATOM     20  H   UNL     1      47.244   7.269  15.537  0.00  0.00    +0.000 HD
BRANCH  18  21
ATOM     21  C   UNL     1      48.501   6.718  17.728  0.00  0.00    +0.000 A 
ATOM     22  C   UNL     1      48.387   5.626  18.579  0.00  0.00    +0.000 A 
ATOM     23  S   UNL     1      47.851   6.033  20.146  0.00  0.00    +0.000 S 
ATOM     24  C   UNL     1      47.699   7.676  19.725  0.00  0.00    +0.000 A 
ATOM     25  N   UNL     1      47.245   8.587  20.626  0.00  0.00    +0.000 NA
ATOM     26  C   UNL     1      47.149   9.790  20.165  0.00  0.00    +0.000 A 
ATOM     27  N   UNL     1      47.473  10.163  18.888  0.00  0.00    +0.000 N 
ATOM     28  C   UNL     1      47.963   9.284  17.951  0.00  0.00    +0.000 A 
ATOM     29  O   UNL     1      48.288   9.660  16.831  0.00  0.00    +0.000 OA
ATOM     30  C   UNL     1      48.076   7.913  18.415  0.00  0.00    +0.000 A 
ATOM     31  H   UNL     1      47.383  11.125  18.588  0.00  0.00    +0.000 HD
ENDBRANCH  18  21
ENDBRANCH   1  17
TORSDOF 6
ENDMDL
MODEL 3
REMARK VINA RESULT:    -7.142      4.668      9.563
REMARK INTER + INTRA:         -10.704
REMARK INTER:                  -9.939
REMARK INTRA:                  -0.766
REMARK UNBOUND:                -1.057
REMARK  Name = 
REMARK  7 active torsions:
REMARK  status: ('A' for Active; 'I' for Inactive)
REMARK    1  A    between atoms: C_1  and  O_2
REMARK    2  A    between atoms: O_2  and  C_3
REMARK    3  A    between atoms: C_7  and  C_8
REMARK    4  A    between atoms: C_8  and  C_9
REMARK    5  A    between atoms: C_12  and  C_13
REMARK    6  A    between atoms: C_13  and  N_14
REMARK    7  A    between atoms: C_15  and  C_17
REMARK                            x       y       z     vdW  Elec       q    Type
REMARK                         _______ _______ _______ _____ _____    ______ ____
ROOT
ATOM      1  C   UNL     1      47.456   3.242  16.999  0.00  0.00    +0.000 C 
ENDROOT
BRANCH   1   5
ATOM      2  C   UNL     1      51.686   3.083  17.885  0.00  0.00    +0.000 A 
ATOM      3  C   UNL     1      50.947   4.243  18.153  0.00  0.00    +0.000 A 
ATOM      4  C   UNL     1      49.585   4.304  17.852  0.00  0.00    +0.000 A 
ATOM      5  C   UNL     1      48.936   3.206  17.273  0.00  0.00    +0.000 A 
ATOM      6  C   UNL     1      49.690   2.073  16.942  0.00  0.00    +0.000 A 
ATOM      7  C   UNL     1      51.049   2.005  17.257  0.00  0.00    +0.000 A 
BRANCH   2   8
ATOM      8  C   UNL     1      53.136   2.988  18.299  0.00  0.00    +0.000 C 
BRANCH   8  13
ATOM      9  C   UNL     1      54.086  -0.562  18.467  0.00  0.00    +0.000 A 
ATOM     10  C   UNL     1      54.844  -0.796  17.335  0.00  0.00    +0.000 A 
ATOM     11  C   UNL     1      55.103   0.276  16.489  0.00  0.00    +0.000 A 
ATOM     12  C   UNL     1      54.581   1.531  16.799  0.00  0.00    +0.000 A 
ATOM     13  C   UNL     1      53.814   1.680  17.953  0.00  0.00    +0.000 A 
ATOM     14  N   UNL     1      53.570   0.643  18.789  0.00  0.00    +0.000 NA
BRANCH   9  16
ATOM     15  C   UNL     1      54.807  -1.774  20.319  0.00  0.00    +0.000 C 
ATOM     16  O   UNL     1      53.835  -1.645  19.285  0.00  0.00    +0.000 OA
ENDBRANCH   9  16
ENDBRANCH   8  13
ENDBRANCH   2   8
ENDBRANCH   1   5
BRANCH   1  17
ATOM     17  N   UNL     1      47.112   4.296  16.082  0.00  0.00    +0.000 N 
ATOM     18  C   UNL     1      47.115   4.085  14.729  0.00  0.00    +0.000 C 
ATOM     19  O   UNL     1      47.361   2.984  14.241  0.00  0.00    +0.000 OA
ATOM     20  H   UNL     1      47.140   5.246  16.442  0.00  0.00    +0.000 HD
BRANCH  18  21
ATOM     21  C   UNL     1      46.741   5.228  13.888  0.00  0.00    +0.000 A 
ATOM     22  C   UNL     1      47.592   6.322  13.796  0.00  0.00    +0.000 A 
ATOM     23  S   UNL     1      47.030   7.538  12.740  0.00  0.00    +0.000 S 
ATOM     24  C   UNL     1      45.603   6.670  12.412  0.00  0.00    +0.000 A 
ATOM     25  N   UNL     1      44.653   7.179  11.584  0.00  0.00    +0.000 NA
ATOM     26  C   UNL     1      43.608   6.430  11.448  0.00  0.00    +0.000 A 
ATOM     27  N   UNL     1      43.434   5.218  12.060  0.00  0.00    +0.000 N 
ATOM     28  C   UNL     1      44.379   4.649  12.881  0.00  0.00    +0.000 A 
ATOM     29  O   UNL     1      44.212   3.540  13.374  0.00  0.00    +0.000 OA
ATOM     30  C   UNL     1      45.568   5.459  13.079  0.00  0.00    +0.000 A 
ATOM     31  H   UNL     1      42.596   4.674  11.907  0.00  0.00    +0.000 HD
ENDBRANCH  18  21
ENDBRANCH   1  17
TORSDOF 6
ENDMDL
MODEL 4
REMARK VINA RESULT:    -7.120      3.455      8.190
REMARK INTER + INTRA:         -10.674
REMARK INTER:                  -9.720
REMARK INTRA:                  -0.954
REMARK UNBOUND:                -1.057
REMARK  Name = 
REMARK  7 active torsions:
REMARK  status: ('A' for Active; 'I' for Inactive)
REMARK    1  A    between atoms: C_1  and  O_2
REMARK    2  A    between atoms: O_2  and  C_3
REMARK    3  A    between atoms: C_7  and  C_8
REMARK    4  A    between atoms: C_8  and  C_9
REMARK    5  A    between atoms: C_12  and  C_13
REMARK    6  A    between atoms: C_13  and  N_14
REMARK    7  A    between atoms: C_15  and  C_17
REMARK                            x       y       z     vdW  Elec       q    Type
REMARK                         _______ _______ _______ _____ _____    ______ ____
ROOT
ATOM      1  C   UNL     1      48.567   8.291  14.735  0.00  0.00    +0.000 C 
ENDROOT
BRANCH   1   5
ATOM      2  C   UNL     1      51.069   6.117  17.512  0.00  0.00    +0.000 A 
ATOM      3  C   UNL     1      49.729   6.382  17.821  0.00  0.00    +0.000 A 
ATOM      4  C   UNL     1      48.923   7.099  16.934  0.00  0.00    +0.000 A 
ATOM      5  C   UNL     1      49.444   7.569  15.723  0.00  0.00    +0.000 A 
ATOM      6  C   UNL     1      50.802   7.363  15.446  0.00  0.00    +0.000 A 
ATOM      7  C   UNL     1      51.605   6.632  16.325  0.00  0.00    +0.000 A 
BRANCH   2   8
ATOM      8  C   UNL     1      51.910   5.261  18.430  0.00  0.00    +0.000 C 
BRANCH   8  13
ATOM      9  C   UNL     1      50.827   2.042  17.016  0.00  0.00    +0.000 A 
ATOM     10  C   UNL     1      51.825   1.141  17.338  0.00  0.00    +0.000 A 
ATOM     11  C   UNL     1      52.892   1.597  18.103  0.00  0.00    +0.000 A 
ATOM     12  C   UNL     1      52.928   2.932  18.498  0.00  0.00    +0.000 A 
ATOM     13  C   UNL     1      51.888   3.780  18.119  0.00  0.00    +0.000 A 
ATOM     14  N   UNL     1      50.837   3.340  17.387  0.00  0.00    +0.000 NA
BRANCH   9  16
ATOM     15  C   UNL     1      48.602   2.351  16.403  0.00  0.00    +0.000 C 
ATOM     16  O   UNL     1      49.782   1.568  16.247  0.00  0.00    +0.000 OA
ENDBRANCH   9  16
ENDBRANCH   8  13
ENDBRANCH   2   8
ENDBRANCH   1   5
BRANCH   1  17
ATOM     17  N   UNL     1      47.498   7.452  14.262  0.00  0.00    +0.000 N 
ATOM     18  C   UNL     1      47.722   6.488  13.314  0.00  0.00    +0.000 C 
ATOM     19  O   UNL     1      48.843   6.265  12.863  0.00  0.00    +0.000 OA
ATOM     20  H   UNL     1      46.550   7.772  14.439  0.00  0.00    +0.000 HD
BRANCH  18  21
ATOM     21  C   UNL     1      46.561   5.686  12.912  0.00  0.00    +0.000 A 
ATOM     22  C   UNL     1      46.576   4.310  13.102  0.00  0.00    +0.000 A 
ATOM     23  S   UNL     1      45.131   3.538  12.627  0.00  0.00    +0.000 S 
ATOM     24  C   UNL     1      44.456   5.009  12.099  0.00  0.00    +0.000 A 
ATOM     25  N   UNL     1      43.216   5.045  11.542  0.00  0.00    +0.000 NA
ATOM     26  C   UNL     1      42.840   6.220  11.157  0.00  0.00    +0.000 A 
ATOM     27  N   UNL     1      43.589   7.359  11.286  0.00  0.00    +0.000 N 
ATOM     28  C   UNL     1      44.834   7.376  11.868  0.00  0.00    +0.000 A 
ATOM     29  O   UNL     1      45.458   8.421  12.011  0.00  0.00    +0.000 OA
ATOM     30  C   UNL     1      45.311   6.076  12.305  0.00  0.00    +0.000 A 
ATOM     31  H   UNL     1      43.235   8.252  10.972  0.00  0.00    +0.000 HD
ENDBRANCH  18  21
ENDBRANCH   1  17
TORSDOF 6
ENDMDL
MODEL 5
REMARK VINA RESULT:    -7.004      3.482      7.874
REMARK INTER + INTRA:         -10.517
REMARK INTER:                  -9.330
REMARK INTRA:                  -1.187
REMARK UNBOUND:                -1.057
REMARK  Name = 
REMARK  7 active torsions:
REMARK  status: ('A' for Active; 'I' for Inactive)
REMARK    1  A    between atoms: C_1  and  O_2
REMARK    2  A    between atoms: O_2  and  C_3
REMARK    3  A    between atoms: C_7  and  C_8
REMARK    4  A    between atoms: C_8  and  C_9
REMARK    5  A    between atoms: C_12  and  C_13
REMARK    6  A    between atoms: C_13  and  N_14
REMARK    7  A    between atoms: C_15  and  C_17
REMARK                            x       y       z     vdW  Elec       q    Type
REMARK                         _______ _______ _______ _____ _____    ______ ____
ROOT
ATOM      1  C   UNL     1      48.348   8.624  14.881  0.00  0.00    +0.000 C 
ENDROOT
BRANCH   1   5
ATOM      2  C   UNL     1      50.841   6.296  17.540  0.00  0.00    +0.000 A 
ATOM      3  C   UNL     1      49.621   6.821  17.987  0.00  0.00    +0.000 A 
ATOM      4  C   UNL     1      48.822   7.587  17.137  0.00  0.00    +0.000 A 
ATOM      5  C   UNL     1      49.230   7.848  15.823  0.00  0.00    +0.000 A 
ATOM      6  C   UNL     1      50.481   7.381  15.398  0.00  0.00    +0.000 A 
ATOM      7  C   UNL     1      51.273   6.601  16.243  0.00  0.00    +0.000 A 
BRANCH   2   8
ATOM      8  C   UNL     1      51.656   5.389  18.432  0.00  0.00    +0.000 C 
BRANCH   8  13
ATOM      9  C   UNL     1      50.483   2.240  16.934  0.00  0.00    +0.000 A 
ATOM     10  C   UNL     1      51.474   1.313  17.198  0.00  0.00    +0.000 A 
ATOM     11  C   UNL     1      52.568   1.724  17.950  0.00  0.00    +0.000 A 
ATOM     12  C   UNL     1      52.636   3.044  18.392  0.00  0.00    +0.000 A 
ATOM     13  C   UNL     1      51.601   3.921  18.070  0.00  0.00    +0.000 A 
ATOM     14  N   UNL     1      50.525   3.524  17.350  0.00  0.00    +0.000 NA
BRANCH   9  16
ATOM     15  C   UNL     1      48.226   2.550  16.455  0.00  0.00    +0.000 C 
ATOM     16  O   UNL     1      49.411   1.810  16.176  0.00  0.00    +0.000 OA
ENDBRANCH   9  16
ENDBRANCH   8  13
ENDBRANCH   2   8
ENDBRANCH   1   5
BRANCH   1  17
ATOM     17  N   UNL     1      47.337   7.787  14.291  0.00  0.00    +0.000 N 
ATOM     18  C   UNL     1      46.989   7.921  12.973  0.00  0.00    +0.000 C 
ATOM     19  O   UNL     1      47.551   8.720  12.228  0.00  0.00    +0.000 OA
ATOM     20  H   UNL     1      46.711   7.303  14.929  0.00  0.00    +0.000 HD
BRANCH  18  21
ATOM     21  C   UNL     1      45.951   7.010  12.476  0.00  0.00    +0.000 A 
ATOM     22  C   UNL     1      44.864   7.521  11.777  0.00  0.00    +0.000 A 
ATOM     23  S   UNL     1      43.781   6.324  11.228  0.00  0.00    +0.000 S 
ATOM     24  C   UNL     1      44.696   5.086  11.954  0.00  0.00    +0.000 A 
ATOM     25  N   UNL     1      44.293   3.789  11.883  0.00  0.00    +0.000 NA
ATOM     26  C   UNL     1      45.064   2.958  12.503  0.00  0.00    +0.000 A 
ATOM     27  N   UNL     1      46.203   3.306  13.179  0.00  0.00    +0.000 N 
ATOM     28  C   UNL     1      46.665   4.599  13.252  0.00  0.00    +0.000 A 
ATOM     29  O   UNL     1      47.714   4.871  13.825  0.00  0.00    +0.000 OA
ATOM     30  C   UNL     1      45.825   5.577  12.583  0.00  0.00    +0.000 A 
ATOM     31  H   UNL     1      46.770   2.607  13.639  0.00  0.00    +0.000 HD
ENDBRANCH  18  21
ENDBRANCH   1  17
TORSDOF 6
ENDMDL
MODEL 6
REMARK VINA RESULT:    -6.808      2.736      8.431
REMARK INTER + INTRA:         -10.252
REMARK INTER:                  -9.195
REMARK INTRA:                  -1.057
REMARK UNBOUND:                -1.057
REMARK  Name = 
REMARK  7 active torsions:
REMARK  status: ('A' for Active; 'I' for Inactive)
REMARK    1  A    between atoms: C_1  and  O_2
REMARK    2  A    between atoms: O_2  and  C_3
REMARK    3  A    between atoms: C_7  and  C_8
REMARK    4  A    between atoms: C_8  and  C_9
REMARK    5  A    between atoms: C_12  and  C_13
REMARK    6  A    between atoms: C_13  and  N_14
REMARK    7  A    between atoms: C_15  and  C_17
REMARK                            x       y       z     vdW  Elec       q    Type
REMARK                         _______ _______ _______ _____ _____    ______ ____
ROOT
ATOM      1  C   UNL     1      47.663   7.922  11.883  0.00  0.00    +0.000 C 
ENDROOT
BRANCH   1   5
ATOM      2  C   UNL     1      49.379   8.101  15.849  0.00  0.00    +0.000 A 
ATOM      3  C   UNL     1      48.285   8.909  15.511  0.00  0.00    +0.000 A 
ATOM      4  C   UNL     1      47.739   8.866  14.226  0.00  0.00    +0.000 A 
ATOM      5  C   UNL     1      48.281   8.018  13.253  0.00  0.00    +0.000 A 
ATOM      6  C   UNL     1      49.417   7.262  13.571  0.00  0.00    +0.000 A 
ATOM      7  C   UNL     1      49.953   7.292  14.861  0.00  0.00    +0.000 A 
BRANCH   2   8
ATOM      8  C   UNL     1      49.905   8.080  17.265  0.00  0.00    +0.000 C 
BRANCH   8  13
ATOM      9  C   UNL     1      48.050   5.090  18.340  0.00  0.00    +0.000 A 
ATOM     10  C   UNL     1      48.817   4.519  19.339  0.00  0.00    +0.000 A 
ATOM     11  C   UNL     1      49.983   5.170  19.720  0.00  0.00    +0.000 A 
ATOM     12  C   UNL     1      50.345   6.353  19.078  0.00  0.00    +0.000 A 
ATOM     13  C   UNL     1      49.524   6.856  18.070  0.00  0.00    +0.000 A 
ATOM     14  N   UNL     1      48.378   6.235  17.703  0.00  0.00    +0.000 NA
BRANCH   9  16
ATOM     15  C   UNL     1      47.185   3.216  17.262  0.00  0.00    +0.000 C 
ATOM     16  O   UNL     1      46.901   4.418  17.973  0.00  0.00    +0.000 OA
ENDBRANCH   9  16
ENDBRANCH   8  13
ENDBRANCH   2   8
ENDBRANCH   1   5
BRANCH   1  17
ATOM     17  N   UNL     1      46.947   6.686  11.710  0.00  0.00    +0.000 N 
ATOM     18  C   UNL     1      45.578   6.662  11.664  0.00  0.00    +0.000 C 
ATOM     19  O   UNL     1      44.905   7.688  11.719  0.00  0.00    +0.000 OA
ATOM     20  H   UNL     1      47.459   5.828  11.899  0.00  0.00    +0.000 HD
BRANCH  18  21
ATOM     21  C   UNL     1      44.954   5.347  11.477  0.00  0.00    +0.000 A 
ATOM     22  C   UNL     1      44.217   4.781  12.510  0.00  0.00    +0.000 A 
ATOM     23  S   UNL     1      43.520   3.277  12.109  0.00  0.00    +0.000 S 
ATOM     24  C   UNL     1      44.226   3.302  10.560  0.00  0.00    +0.000 A 
ATOM     25  N   UNL     1      44.045   2.268   9.696  0.00  0.00    +0.000 NA
ATOM     26  C   UNL     1      44.661   2.404   8.568  0.00  0.00    +0.000 A 
ATOM     27  N   UNL     1      45.434   3.481   8.227  0.00  0.00    +0.000 N 
ATOM     28  C   UNL     1      45.621   4.563   9.055  0.00  0.00    +0.000 A 
ATOM     29  O   UNL     1      46.280   5.533   8.700  0.00  0.00    +0.000 OA
ATOM     30  C   UNL     1      44.961   4.454  10.344  0.00  0.00    +0.000 A 
ATOM     31  H   UNL     1      45.885   3.532   7.323  0.00  0.00    +0.000 HD
ENDBRANCH  18  21
ENDBRANCH   1  17
TORSDOF 6
ENDMDL
MODEL 7
REMARK VINA RESULT:    -6.792      4.982      7.415
REMARK INTER + INTRA:         -10.231
REMARK INTER:                  -9.233
REMARK INTRA:                  -0.998
REMARK UNBOUND:                -1.057
REMARK  Name = 
REMARK  7 active torsions:
REMARK  status: ('A' for Active; 'I' for Inactive)
REMARK    1  A    between atoms: C_1  and  O_2
REMARK    2  A    between atoms: O_2  and  C_3
REMARK    3  A    between atoms: C_7  and  C_8
REMARK    4  A    between atoms: C_8  and  C_9
REMARK    5  A    between atoms: C_12  and  C_13
REMARK    6  A    between atoms: C_13  and  N_14
REMARK    7  A    between atoms: C_15  and  C_17
REMARK                            x       y       z     vdW  Elec       q    Type
REMARK                         _______ _______ _______ _____ _____    ______ ____
ROOT
ATOM      1  C   UNL     1      46.977   8.664  12.231  0.00  0.00    +0.000 C 
ENDROOT
BRANCH   1   5
ATOM      2  C   UNL     1      51.158   8.517  11.134  0.00  0.00    +0.000 A 
ATOM      3  C   UNL     1      50.501   7.365  11.586  0.00  0.00    +0.000 A 
ATOM      4  C   UNL     1      49.156   7.413  11.957  0.00  0.00    +0.000 A 
ATOM      5  C   UNL     1      48.443   8.616  11.889  0.00  0.00    +0.000 A 
ATOM      6  C   UNL     1      49.118   9.781  11.503  0.00  0.00    +0.000 A 
ATOM      7  C   UNL     1      50.459   9.731  11.115  0.00  0.00    +0.000 A 
BRANCH   2   8
ATOM      8  C   UNL     1      52.585   8.441  10.644  0.00  0.00    +0.000 C 
BRANCH   8  13
ATOM      9  C   UNL     1      52.693   6.988   7.266  0.00  0.00    +0.000 A 
ATOM     10  C   UNL     1      52.825   8.062   6.405  0.00  0.00    +0.000 A 
ATOM     11  C   UNL     1      52.935   9.332   6.959  0.00  0.00    +0.000 A 
ATOM     12  C   UNL     1      52.890   9.479   8.344  0.00  0.00    +0.000 A 
ATOM     13  C   UNL     1      52.739   8.346   9.142  0.00  0.00    +0.000 A 
ATOM     14  N   UNL     1      52.647   7.104   8.610  0.00  0.00    +0.000 NA
BRANCH   9  16
ATOM     15  C   UNL     1      53.479   4.796   7.265  0.00  0.00    +0.000 C 
ATOM     16  O   UNL     1      52.576   5.738   6.691  0.00  0.00    +0.000 OA
ENDBRANCH   9  16
ENDBRANCH   8  13
ENDBRANCH   2   8
ENDBRANCH   1   5
BRANCH   1  17
ATOM     17  N   UNL     1      46.379   7.356  12.183  0.00  0.00    +0.000 N 
ATOM     18  C   UNL     1      45.143   7.164  11.622  0.00  0.00    +0.000 C 
ATOM     19  O   UNL     1      44.516   8.080  11.096  0.00  0.00    +0.000 OA
ATOM     20  H   UNL     1      46.762   6.652  12.807  0.00  0.00    +0.000 HD
BRANCH  18  21
ATOM     21  C   UNL     1      44.634   5.788  11.621  0.00  0.00    +0.000 A 
ATOM     22  C   UNL     1      43.932   5.313  12.723  0.00  0.00    +0.000 A 
ATOM     23  S   UNL     1      43.369   3.714  12.537  0.00  0.00    +0.000 S 
ATOM     24  C   UNL     1      44.091   3.581  11.001  0.00  0.00    +0.000 A 
ATOM     25  N   UNL     1      44.009   2.424  10.291  0.00  0.00    +0.000 NA
ATOM     26  C   UNL     1      44.627   2.451   9.157  0.00  0.00    +0.000 A 
ATOM     27  N   UNL     1      45.312   3.531   8.668  0.00  0.00    +0.000 N 
ATOM     28  C   UNL     1      45.397   4.730   9.336  0.00  0.00    +0.000 A 
ATOM     29  O   UNL     1      45.977   5.693   8.848  0.00  0.00    +0.000 OA
ATOM     30  C   UNL     1      44.730   4.748  10.626  0.00  0.00    +0.000 A 
ATOM     31  H   UNL     1      45.770   3.493   7.767  0.00  0.00    +0.000 HD
ENDBRANCH  18  21
ENDBRANCH   1  17
TORSDOF 6
ENDMDL
MODEL 8
REMARK VINA RESULT:    -6.653      4.645      7.708
REMARK INTER + INTRA:         -10.043
REMARK INTER:                  -9.057
REMARK INTRA:                  -0.986
REMARK UNBOUND:                -1.057
REMARK  Name = 
REMARK  7 active torsions:
REMARK  status: ('A' for Active; 'I' for Inactive)
REMARK    1  A    between atoms: C_1  and  O_2
REMARK    2  A    between atoms: O_2  and  C_3
REMARK    3  A    between atoms: C_7  and  C_8
REMARK    4  A    between atoms: C_8  and  C_9
REMARK    5  A    between atoms: C_12  and  C_13
REMARK    6  A    between atoms: C_13  and  N_14
REMARK    7  A    between atoms: C_15  and  C_17
REMARK                            x       y       z     vdW  Elec       q    Type
REMARK                         _______ _______ _______ _____ _____    ______ ____
ROOT
ATOM      1  C   UNL     1      46.591   7.980  13.006  0.00  0.00    +0.000 C 
ENDROOT
BRANCH   1   5
ATOM      2  C   UNL     1      50.489   8.846  11.344  0.00  0.00    +0.000 A 
ATOM      3  C   UNL     1      49.499   9.837  11.388  0.00  0.00    +0.000 A 
ATOM      4  C   UNL     1      48.234   9.556  11.908  0.00  0.00    +0.000 A 
ATOM      5  C   UNL     1      47.933   8.276  12.390  0.00  0.00    +0.000 A 
ATOM      6  C   UNL     1      48.900   7.268  12.282  0.00  0.00    +0.000 A 
ATOM      7  C   UNL     1      50.171   7.553  11.777  0.00  0.00    +0.000 A 
BRANCH   2   8
ATOM      8  C   UNL     1      51.883   9.180  10.869  0.00  0.00    +0.000 C 
BRANCH   8  13
ATOM      9  C   UNL     1      54.238   6.361  10.663  0.00  0.00    +0.000 A 
ATOM     10  C   UNL     1      54.008   5.775   9.433  0.00  0.00    +0.000 A 
ATOM     11  C   UNL     1      53.064   6.361   8.598  0.00  0.00    +0.000 A 
ATOM     12  C   UNL     1      52.377   7.493   9.032  0.00  0.00    +0.000 A 
ATOM     13  C   UNL     1      52.658   8.014  10.295  0.00  0.00    +0.000 A 
ATOM     14  N   UNL     1      53.587   7.458  11.107  0.00  0.00    +0.000 NA
BRANCH   9  16
ATOM     15  C   UNL     1      55.169   4.337  11.340  0.00  0.00    +0.000 C 
ATOM     16  O   UNL     1      55.174   5.755  11.478  0.00  0.00    +0.000 OA
ENDBRANCH   9  16
ENDBRANCH   8  13
ENDBRANCH   2   8
ENDBRANCH   1   5
BRANCH   1  17
ATOM     17  N   UNL     1      46.117   6.672  12.641  0.00  0.00    +0.000 N 
ATOM     18  C   UNL     1      45.000   6.516  11.863  0.00  0.00    +0.000 C 
ATOM     19  O   UNL     1      44.386   7.477  11.404  0.00  0.00    +0.000 OA
ATOM     20  H   UNL     1      46.458   5.889  13.192  0.00  0.00    +0.000 HD
BRANCH  18  21
ATOM     21  C   UNL     1      44.611   5.137  11.546  0.00  0.00    +0.000 A 
ATOM     22  C   UNL     1      43.887   4.396  12.473  0.00  0.00    +0.000 A 
ATOM     23  S   UNL     1      43.476   2.834  11.927  0.00  0.00    +0.000 S 
ATOM     24  C   UNL     1      44.298   3.072  10.456  0.00  0.00    +0.000 A 
ATOM     25  N   UNL     1      44.359   2.084   9.524  0.00  0.00    +0.000 NA
ATOM     26  C   UNL     1      45.041   2.388   8.470  0.00  0.00    +0.000 A 
ATOM     27  N   UNL     1      45.659   3.592   8.262  0.00  0.00    +0.000 N 
ATOM     28  C   UNL     1      45.600   4.631   9.161  0.00  0.00    +0.000 A 
ATOM     29  O   UNL     1      46.124   5.712   8.923  0.00  0.00    +0.000 OA
ATOM     30  C   UNL     1      44.857   4.334  10.373  0.00  0.00    +0.000 A 
ATOM     31  H   UNL     1      46.173   3.773   7.410  0.00  0.00    +0.000 HD
ENDBRANCH  18  21
ENDBRANCH   1  17
TORSDOF 6
ENDMDL
MODEL 9
REMARK VINA RESULT:    -6.522      1.741      2.581
REMARK INTER + INTRA:          -9.866
REMARK INTER:                  -8.706
REMARK INTRA:                  -1.160
REMARK UNBOUND:                -1.057
REMARK  Name = 
REMARK  7 active torsions:
REMARK  status: ('A' for Active; 'I' for Inactive)
REMARK    1  A    between atoms: C_1  and  O_2
REMARK    2  A    between atoms: O_2  and  C_3
REMARK    3  A    between atoms: C_7  and  C_8
REMARK    4  A    between atoms: C_8  and  C_9
REMARK    5  A    between atoms: C_12  and  C_13
REMARK    6  A    between atoms: C_13  and  N_14
REMARK    7  A    between atoms: C_15  and  C_17
REMARK                            x       y       z     vdW  Elec       q    Type
REMARK                         _______ _______ _______ _____ _____    ______ ____
ROOT
ATOM      1  C   UNL     1      49.553   8.387  13.863  0.00  0.00    +0.000 C 
ENDROOT
BRANCH   1   5
ATOM      2  C   UNL     1      45.755   7.496  11.996  0.00  0.00    +0.000 A 
ATOM      3  C   UNL     1      46.905   6.776  11.647  0.00  0.00    +0.000 A 
ATOM      4  C   UNL     1      48.136   7.073  12.235  0.00  0.00    +0.000 A 
ATOM      5  C   UNL     1      48.242   8.100  13.181  0.00  0.00    +0.000 A 
ATOM      6  C   UNL     1      47.106   8.864  13.479  0.00  0.00    +0.000 A 
ATOM      7  C   UNL     1      45.871   8.558  12.903  0.00  0.00    +0.000 A 
BRANCH   2   8
ATOM      8  C   UNL     1      44.409   7.110  11.429  0.00  0.00    +0.000 C 
BRANCH   8  13
ATOM      9  C   UNL     1      44.008   3.554  10.575  0.00  0.00    +0.000 A 
ATOM     10  C   UNL     1      43.614   2.935  11.746  0.00  0.00    +0.000 A 
ATOM     11  C   UNL     1      43.419   3.728  12.870  0.00  0.00    +0.000 A 
ATOM     12  C   UNL     1      43.643   5.101  12.785  0.00  0.00    +0.000 A 
ATOM     13  C   UNL     1      44.054   5.646  11.569  0.00  0.00    +0.000 A 
ATOM     14  N   UNL     1      44.231   4.881  10.465  0.00  0.00    +0.000 NA
BRANCH   9  16
ATOM     15  C   UNL     1      44.683   3.473   8.348  0.00  0.00    +0.000 C 
ATOM     16  O   UNL     1      44.204   2.743   9.474  0.00  0.00    +0.000 OA
ENDBRANCH   9  16
ENDBRANCH   8  13
ENDBRANCH   2   8
ENDBRANCH   1   5
BRANCH   1  17
ATOM     17  N   UNL     1      49.607   7.801  15.176  0.00  0.00    +0.000 N 
ATOM     18  C   UNL     1      50.789   7.352  15.702  0.00  0.00    +0.000 C 
ATOM     19  O   UNL     1      51.856   7.470  15.105  0.00  0.00    +0.000 OA
ATOM     20  H   UNL     1      48.727   7.484  15.575  0.00  0.00    +0.000 HD
BRANCH  18  21
ATOM     21  C   UNL     1      50.728   6.779  17.052  0.00  0.00    +0.000 A 
ATOM     22  C   UNL     1      51.597   7.237  18.034  0.00  0.00    +0.000 A 
ATOM     23  S   UNL     1      51.359   6.504  19.555  0.00  0.00    +0.000 S 
ATOM     24  C   UNL     1      50.123   5.507  18.941  0.00  0.00    +0.000 A 
ATOM     25  N   UNL     1      49.501   4.597  19.738  0.00  0.00    +0.000 NA
ATOM     26  C   UNL     1      48.605   3.887  19.135  0.00  0.00    +0.000 A 
ATOM     27  N   UNL     1      48.273   4.009  17.813  0.00  0.00    +0.000 N 
ATOM     28  C   UNL     1      48.854   4.933  16.976  0.00  0.00    +0.000 A 
ATOM     29  O   UNL     1      48.499   5.049  15.809  0.00  0.00    +0.000 OA
ATOM     30  C   UNL     1      49.880   5.749  17.601  0.00  0.00    +0.000 A 
ATOM     31  H   UNL     1      47.556   3.428  17.400  0.00  0.00    +0.000 HD
ENDBRANCH  18  21
ENDBRANCH   1  17
TORSDOF 6
ENDMDL
