MODEL 1
REMARK VINA RESULT:    -7.297      0.000      0.000
REMARK INTER + INTRA:         -11.345
REMARK INTER:                 -10.283
REMARK INTRA:                  -1.062
REMARK UNBOUND:                -1.062
REMARK  Name = 
REMARK  7 active torsions:
REMARK  status: ('A' for Active; 'I' for Inactive)
REMARK    1  A    between atoms: C_2  and  C_19
REMARK    2  A    between atoms: N_3  and  C_4
REMARK    3  A    between atoms: C_4  and  C_5
REMARK    4  A    between atoms: C_8  and  O_9
REMARK    5  A    between atoms: O_9  and  C_10
REMARK    6  A    between atoms: C_10  and  C_11
REMARK    7  A    between atoms: C_11  and  N_12
REMARK                            x       y       z     vdW  Elec       q    Type
REMARK                         _______ _______ _______ _____ _____    ______ ____
ROOT
ATOM      1  O   UNL     1      48.828   6.797  12.997  0.00  0.00    +0.000 OA
ATOM      2  C   UNL     1      48.134   6.829  14.010  0.00  0.00    +0.000 C 
ATOM      3  N   UNL     1      46.827   7.252  13.997  0.00  0.00    +0.000 N 
ATOM      4  H   UNL     1      46.357   7.437  14.874  0.00  0.00    +0.000 HD
ENDROOT
BRANCH   2   5
ATOM      5  C   UNL     1      48.646   6.351  15.302  0.00  0.00    +0.000 A 
ATOM      6  C   UNL     1      49.671   7.044  15.933  0.00  0.00    +0.000 A 
ATOM      7  S   UNL     1      50.164   6.346  17.409  0.00  0.00    +0.000 S 
ATOM      8  C   UNL     1      48.990   5.121  17.283  0.00  0.00    +0.000 A 
ATOM      9  N   UNL     1      48.851   4.186  18.261  0.00  0.00    +0.000 NA
ATOM     10  C   UNL     1      47.898   3.339  18.058  0.00  0.00    +0.000 A 
ATOM     11  N   UNL     1      47.080   3.333  16.958  0.00  0.00    +0.000 N 
ATOM     12  C   UNL     1      47.233   4.211  15.910  0.00  0.00    +0.000 A 
ATOM     13  O   UNL     1      46.569   4.096  14.886  0.00  0.00    +0.000 OA
ATOM     14  C   UNL     1      48.257   5.219  16.114  0.00  0.00    +0.000 A 
ATOM     15  H   UNL     1      46.371   2.625  16.844  0.00  0.00    +0.000 HD
ENDBRANCH   2   5
BRANCH   3  16
ATOM     16  C   UNL     1      46.177   7.745  12.812  0.00  0.00    +0.000 C 
BRANCH  16  17
ATOM     17  C   UNL     1      45.527   6.632  12.034  0.00  0.00    +0.000 A 
ATOM     18  C   UNL     1      46.036   6.278  10.783  0.00  0.00    +0.000 A 
ATOM     19  C   UNL     1      45.467   5.236  10.055  0.00  0.00    +0.000 A 
ATOM     20  C   UNL     1      44.362   4.532  10.550  0.00  0.00    +0.000 A 
ATOM     21  C   UNL     1      43.834   4.898  11.789  0.00  0.00    +0.000 A 
ATOM     22  C   UNL     1      44.407   5.944  12.525  0.00  0.00    +0.000 A 
BRANCH  20  23
ATOM     23  O   UNL     1      43.729   3.490   9.905  0.00  0.00    +0.000 OA
BRANCH  23  24
ATOM     24  C   UNL     1      44.525   2.305   9.813  0.00  0.00    +0.000 C 
BRANCH  24  25
ATOM     25  C   UNL     1      44.935   1.968   8.369  0.00  0.00    +0.000 C 
BRANCH  25  26
ATOM     26  N   UNL     1      46.318   2.408   8.118  0.00  0.00    +0.000 NA
ATOM     27  C   UNL     1      47.132   1.402   7.442  0.00  0.00    +0.000 C 
ATOM     28  C   UNL     1      47.125   1.790   5.977  0.00  0.00    +0.000 C 
ATOM     29  O   UNL     1      46.790   3.173   5.920  0.00  0.00    +0.000 OA
ATOM     30  C   UNL     1      46.415   3.569   7.236  0.00  0.00    +0.000 C 
ENDBRANCH  25  26
ENDBRANCH  24  25
ENDBRANCH  23  24
ENDBRANCH  20  23
ENDBRANCH  16  17
ENDBRANCH   3  16
TORSDOF 7
ENDMDL
MODEL 2
REMARK VINA RESULT:    -6.960      3.397      7.762
REMARK INTER + INTRA:         -10.869
REMARK INTER:                  -9.828
REMARK INTRA:                  -1.042
REMARK UNBOUND:                -1.062
REMARK  Name = 
REMARK  7 active torsions:
REMARK  status: ('A' for Active; 'I' for Inactive)
REMARK    1  A    between atoms: C_2  and  C_19
REMARK    2  A    between atoms: N_3  and  C_4
REMARK    3  A    between atoms: C_4  and  C_5
REMARK    4  A    between atoms: C_8  and  O_9
REMARK    5  A    between atoms: O_9  and  C_10
REMARK    6  A    between atoms: C_10  and  C_11
REMARK    7  A    between atoms: C_11  and  N_12
REMARK                            x       y       z     vdW  Elec       q    Type
REMARK                         _______ _______ _______ _____ _____    ______ ____
ROOT
ATOM      1  O   UNL     1      45.492   7.924  11.714  0.00  0.00    +0.000 OA
ATOM      2  C   UNL     1      46.188   6.970  11.377  0.00  0.00    +0.000 C 
ATOM      3  N   UNL     1      47.548   6.941  11.577  0.00  0.00    +0.000 N 
ATOM      4  H   UNL     1      48.100   6.225  11.121  0.00  0.00    +0.000 HD
ENDROOT
BRANCH   2   5
ATOM      5  C   UNL     1      45.595   5.760  10.790  0.00  0.00    +0.000 A 
ATOM      6  C   UNL     1      45.802   5.477   9.447  0.00  0.00    +0.000 A 
ATOM      7  S   UNL     1      45.027   4.052   8.918  0.00  0.00    +0.000 S 
ATOM      8  C   UNL     1      44.429   3.735  10.479  0.00  0.00    +0.000 A 
ATOM      9  N   UNL     1      43.692   2.619  10.730  0.00  0.00    +0.000 NA
ATOM     10  C   UNL     1      43.335   2.482  11.963  0.00  0.00    +0.000 A 
ATOM     11  N   UNL     1      43.635   3.368  12.966  0.00  0.00    +0.000 N 
ATOM     12  C   UNL     1      44.310   4.545  12.745  0.00  0.00    +0.000 A 
ATOM     13  O   UNL     1      44.449   5.373  13.637  0.00  0.00    +0.000 OA
ATOM     14  C   UNL     1      44.782   4.722  11.383  0.00  0.00    +0.000 A 
ATOM     15  H   UNL     1      43.300   3.217  13.906  0.00  0.00    +0.000 HD
ENDBRANCH   2   5
BRANCH   3  16
ATOM     16  C   UNL     1      48.277   8.042  12.146  0.00  0.00    +0.000 C 
BRANCH  16  17
ATOM     17  C   UNL     1      48.928   7.661  13.448  0.00  0.00    +0.000 A 
ATOM     18  C   UNL     1      48.217   6.895  14.374  0.00  0.00    +0.000 A 
ATOM     19  C   UNL     1      48.805   6.509  15.576  0.00  0.00    +0.000 A 
ATOM     20  C   UNL     1      50.113   6.896  15.893  0.00  0.00    +0.000 A 
ATOM     21  C   UNL     1      50.819   7.683  14.982  0.00  0.00    +0.000 A 
ATOM     22  C   UNL     1      50.231   8.069  13.771  0.00  0.00    +0.000 A 
BRANCH  20  23
ATOM     23  O   UNL     1      50.780   6.567  17.055  0.00  0.00    +0.000 OA
BRANCH  23  24
ATOM     24  C   UNL     1      50.230   5.432  17.730  0.00  0.00    +0.000 C 
BRANCH  24  25
ATOM     25  C   UNL     1      51.080   4.162  17.560  0.00  0.00    +0.000 C 
BRANCH  25  26
ATOM     26  N   UNL     1      50.282   2.968  17.887  0.00  0.00    +0.000 NA
ATOM     27  C   UNL     1      48.841   3.193  17.800  0.00  0.00    +0.000 C 
ATOM     28  C   UNL     1      48.427   2.656  16.444  0.00  0.00    +0.000 C 
ATOM     29  O   UNL     1      49.437   1.736  16.041  0.00  0.00    +0.000 OA
ATOM     30  C   UNL     1      50.503   1.844  16.980  0.00  0.00    +0.000 C 
ENDBRANCH  25  26
ENDBRANCH  24  25
ENDBRANCH  23  24
ENDBRANCH  20  23
ENDBRANCH  16  17
ENDBRANCH   3  16
TORSDOF 7
ENDMDL
MODEL 3
REMARK VINA RESULT:    -6.823      2.778      8.175
REMARK INTER + INTRA:         -10.677
REMARK INTER:                  -9.556
REMARK INTRA:                  -1.122
REMARK UNBOUND:                -1.062
REMARK  Name = 
REMARK  7 active torsions:
REMARK  status: ('A' for Active; 'I' for Inactive)
REMARK    1  A    between atoms: C_2  and  C_19
REMARK    2  A    between atoms: N_3  and  C_4
REMARK    3  A    between atoms: C_4  and  C_5
REMARK    4  A    between atoms: C_8  and  O_9
REMARK    5  A    between atoms: O_9  and  C_10
REMARK    6  A    between atoms: C_10  and  C_11
REMARK    7  A    between atoms: C_11  and  N_12
REMARK                            x       y       z     vdW  Elec       q    Type
REMARK                         _______ _______ _______ _____ _____    ______ ____
ROOT
ATOM      1  O   UNL     1      44.851   7.423  11.966  0.00  0.00    +0.000 OA
ATOM      2  C   UNL     1      45.529   6.424  11.738  0.00  0.00    +0.000 C 
ATOM      3  N   UNL     1      46.898   6.419  11.853  0.00  0.00    +0.000 N 
ATOM      4  H   UNL     1      47.424   5.639  11.479  0.00  0.00    +0.000 HD
ENDROOT
BRANCH   2   5
ATOM      5  C   UNL     1      44.904   5.141  11.385  0.00  0.00    +0.000 A 
ATOM      6  C   UNL     1      44.081   4.504  12.303  0.00  0.00    +0.000 A 
ATOM      7  S   UNL     1      43.455   3.017  11.748  0.00  0.00    +0.000 S 
ATOM      8  C   UNL     1      44.223   3.196  10.241  0.00  0.00    +0.000 A 
ATOM      9  N   UNL     1      44.067   2.263   9.264  0.00  0.00    +0.000 NA
ATOM     10  C   UNL     1      44.672   2.541   8.158  0.00  0.00    +0.000 A 
ATOM     11  N   UNL     1      45.431   3.663   7.945  0.00  0.00    +0.000 N 
ATOM     12  C   UNL     1      45.679   4.594   8.926  0.00  0.00    +0.000 A 
ATOM     13  O   UNL     1      46.465   5.516   8.741  0.00  0.00    +0.000 OA
ATOM     14  C   UNL     1      44.977   4.355  10.174  0.00  0.00    +0.000 A 
ATOM     15  H   UNL     1      45.903   3.808   7.065  0.00  0.00    +0.000 HD
ENDBRANCH   2   5
BRANCH   3  16
ATOM     16  C   UNL     1      47.657   7.592  12.195  0.00  0.00    +0.000 C 
BRANCH  16  17
ATOM     17  C   UNL     1      48.494   7.370  13.426  0.00  0.00    +0.000 A 
ATOM     18  C   UNL     1      47.968   6.635  14.491  0.00  0.00    +0.000 A 
ATOM     19  C   UNL     1      48.731   6.395  15.631  0.00  0.00    +0.000 A 
ATOM     20  C   UNL     1      50.032   6.900  15.746  0.00  0.00    +0.000 A 
ATOM     21  C   UNL     1      50.552   7.656  14.695  0.00  0.00    +0.000 A 
ATOM     22  C   UNL     1      49.788   7.896  13.545  0.00  0.00    +0.000 A 
BRANCH  20  23
ATOM     23  O   UNL     1      50.862   6.719  16.832  0.00  0.00    +0.000 OA
BRANCH  23  24
ATOM     24  C   UNL     1      50.467   5.638  17.682  0.00  0.00    +0.000 C 
BRANCH  24  25
ATOM     25  C   UNL     1      51.238   4.338  17.399  0.00  0.00    +0.000 C 
BRANCH  25  26
ATOM     26  N   UNL     1      50.461   3.176  17.864  0.00  0.00    +0.000 NA
ATOM     27  C   UNL     1      49.017   3.374  17.784  0.00  0.00    +0.000 C 
ATOM     28  C   UNL     1      48.584   2.694  16.500  0.00  0.00    +0.000 C 
ATOM     29  O   UNL     1      49.597   1.749  16.173  0.00  0.00    +0.000 OA
ATOM     30  C   UNL     1      50.681   1.966  17.073  0.00  0.00    +0.000 C 
ENDBRANCH  25  26
ENDBRANCH  24  25
ENDBRANCH  23  24
ENDBRANCH  20  23
ENDBRANCH  16  17
ENDBRANCH   3  16
TORSDOF 7
ENDMDL
MODEL 4
REMARK VINA RESULT:    -6.664      1.925      2.425
REMARK INTER + INTRA:         -10.453
REMARK INTER:                  -9.694
REMARK INTRA:                  -0.758
REMARK UNBOUND:                -1.062
REMARK  Name = 
REMARK  7 active torsions:
REMARK  status: ('A' for Active; 'I' for Inactive)
REMARK    1  A    between atoms: C_2  and  C_19
REMARK    2  A    between atoms: N_3  and  C_4
REMARK    3  A    between atoms: C_4  and  C_5
REMARK    4  A    between atoms: C_8  and  O_9
REMARK    5  A    between atoms: O_9  and  C_10
REMARK    6  A    between atoms: C_10  and  C_11
REMARK    7  A    between atoms: C_11  and  N_12
REMARK                            x       y       z     vdW  Elec       q    Type
REMARK                         _______ _______ _______ _____ _____    ______ ____
ROOT
ATOM      1  O   UNL     1      50.092   6.273  15.525  0.00  0.00    +0.000 OA
ATOM      2  C   UNL     1      49.070   6.776  15.983  0.00  0.00    +0.000 C 
ATOM      3  N   UNL     1      48.044   7.222  15.186  0.00  0.00    +0.000 N 
ATOM      4  H   UNL     1      47.312   7.792  15.592  0.00  0.00    +0.000 HD
ENDROOT
BRANCH   2   5
ATOM      5  C   UNL     1      48.852   6.875  17.434  0.00  0.00    +0.000 A 
ATOM      6  C   UNL     1      48.643   8.119  18.013  0.00  0.00    +0.000 A 
ATOM      7  S   UNL     1      48.429   8.063  19.704  0.00  0.00    +0.000 S 
ATOM      8  C   UNL     1      48.557   6.367  19.717  0.00  0.00    +0.000 A 
ATOM      9  N   UNL     1      48.428   5.666  20.876  0.00  0.00    +0.000 NA
ATOM     10  C   UNL     1      48.509   4.385  20.737  0.00  0.00    +0.000 A 
ATOM     11  N   UNL     1      48.720   3.741  19.545  0.00  0.00    +0.000 N 
ATOM     12  C   UNL     1      48.931   4.409  18.363  0.00  0.00    +0.000 A 
ATOM     13  O   UNL     1      49.244   3.808  17.342  0.00  0.00    +0.000 OA
ATOM     14  C   UNL     1      48.797   5.852  18.454  0.00  0.00    +0.000 A 
ATOM     15  H   UNL     1      48.801   2.736  19.508  0.00  0.00    +0.000 HD
ENDBRANCH   2   5
BRANCH   3  16
ATOM     16  C   UNL     1      48.101   7.188  13.749  0.00  0.00    +0.000 C 
BRANCH  16  17
ATOM     17  C   UNL     1      46.906   6.486  13.163  0.00  0.00    +0.000 A 
ATOM     18  C   UNL     1      46.313   6.989  12.004  0.00  0.00    +0.000 A 
ATOM     19  C   UNL     1      45.220   6.343  11.429  0.00  0.00    +0.000 A 
ATOM     20  C   UNL     1      44.680   5.188  12.009  0.00  0.00    +0.000 A 
ATOM     21  C   UNL     1      45.254   4.696  13.182  0.00  0.00    +0.000 A 
ATOM     22  C   UNL     1      46.355   5.342  13.760  0.00  0.00    +0.000 A 
BRANCH  20  23
ATOM     23  O   UNL     1      43.603   4.481  11.518  0.00  0.00    +0.000 OA
BRANCH  23  24
ATOM     24  C   UNL     1      43.770   4.047  10.166  0.00  0.00    +0.000 C 
BRANCH  24  25
ATOM     25  C   UNL     1      44.803   2.917  10.022  0.00  0.00    +0.000 C 
BRANCH  25  26
ATOM     26  N   UNL     1      44.847   2.444   8.627  0.00  0.00    +0.000 NA
ATOM     27  C   UNL     1      45.028   3.519   7.656  0.00  0.00    +0.000 C 
ATOM     28  C   UNL     1      46.506   3.523   7.322  0.00  0.00    +0.000 C 
ATOM     29  O   UNL     1      47.006   2.233   7.660  0.00  0.00    +0.000 OA
ATOM     30  C   UNL     1      45.964   1.544   8.345  0.00  0.00    +0.000 C 
ENDBRANCH  25  26
ENDBRANCH  24  25
ENDBRANCH  23  24
ENDBRANCH  20  23
ENDBRANCH  16  17
ENDBRANCH   3  16
TORSDOF 7
ENDMDL
MODEL 5
REMARK VINA RESULT:    -6.347      3.872      8.673
REMARK INTER + INTRA:         -10.006
REMARK INTER:                  -8.953
REMARK INTRA:                  -1.053
REMARK UNBOUND:                -1.062
REMARK  Name = 
REMARK  7 active torsions:
REMARK  status: ('A' for Active; 'I' for Inactive)
REMARK    1  A    between atoms: C_2  and  C_19
REMARK    2  A    between atoms: N_3  and  C_4
REMARK    3  A    between atoms: C_4  and  C_5
REMARK    4  A    between atoms: C_8  and  O_9
REMARK    5  A    between atoms: O_9  and  C_10
REMARK    6  A    between atoms: C_10  and  C_11
REMARK    7  A    between atoms: C_11  and  N_12
REMARK                            x       y       z     vdW  Elec       q    Type
REMARK                         _______ _______ _______ _____ _____    ______ ____
ROOT
ATOM      1  O   UNL     1      47.416   3.061  14.175  0.00  0.00    +0.000 OA
ATOM      2  C   UNL     1      46.955   4.120  14.594  0.00  0.00    +0.000 C 
ATOM      3  N   UNL     1      46.838   4.396  15.935  0.00  0.00    +0.000 N 
ATOM      4  H   UNL     1      46.287   5.192  16.231  0.00  0.00    +0.000 HD
ENDROOT
BRANCH   2   5
ATOM      5  C   UNL     1      46.552   5.195  13.675  0.00  0.00    +0.000 A 
ATOM      6  C   UNL     1      47.439   6.226  13.395  0.00  0.00    +0.000 A 
ATOM      7  S   UNL     1      46.811   7.401  12.331  0.00  0.00    +0.000 S 
ATOM      8  C   UNL     1      45.349   6.547  12.165  0.00  0.00    +0.000 A 
ATOM      9  N   UNL     1      44.363   7.005  11.347  0.00  0.00    +0.000 NA
ATOM     10  C   UNL     1      43.324   6.241  11.285  0.00  0.00    +0.000 A 
ATOM     11  N   UNL     1      43.175   5.067  11.978  0.00  0.00    +0.000 N 
ATOM     12  C   UNL     1      44.111   4.606  12.873  0.00  0.00    +0.000 A 
ATOM     13  O   UNL     1      43.890   3.622  13.570  0.00  0.00    +0.000 OA
ATOM     14  C   UNL     1      45.324   5.401  12.940  0.00  0.00    +0.000 A 
ATOM     15  H   UNL     1      42.324   4.530  11.908  0.00  0.00    +0.000 HD
ENDBRANCH   2   5
BRANCH   3  16
ATOM     16  C   UNL     1      47.194   3.452  16.960  0.00  0.00    +0.000 C 
BRANCH  16  17
ATOM     17  C   UNL     1      48.671   3.477  17.247  0.00  0.00    +0.000 A 
ATOM     18  C   UNL     1      49.437   2.333  17.014  0.00  0.00    +0.000 A 
ATOM     19  C   UNL     1      50.810   2.339  17.249  0.00  0.00    +0.000 A 
ATOM     20  C   UNL     1      51.450   3.483  17.741  0.00  0.00    +0.000 A 
ATOM     21  C   UNL     1      50.686   4.621  17.999  0.00  0.00    +0.000 A 
ATOM     22  C   UNL     1      49.305   4.618  17.760  0.00  0.00    +0.000 A 
BRANCH  20  23
ATOM     23  O   UNL     1      52.800   3.586  18.007  0.00  0.00    +0.000 OA
BRANCH  23  24
ATOM     24  C   UNL     1      53.258   4.935  18.134  0.00  0.00    +0.000 C 
BRANCH  24  25
ATOM     25  C   UNL     1      54.158   5.376  16.968  0.00  0.00    +0.000 C 
BRANCH  25  26
ATOM     26  N   UNL     1      54.043   6.830  16.760  0.00  0.00    +0.000 NA
ATOM     27  C   UNL     1      53.603   7.190  15.415  0.00  0.00    +0.000 C 
ATOM     28  C   UNL     1      52.114   7.453  15.531  0.00  0.00    +0.000 C 
ATOM     29  O   UNL     1      51.853   7.738  16.902  0.00  0.00    +0.000 OA
ATOM     30  C   UNL     1      53.053   7.472  17.623  0.00  0.00    +0.000 C 
ENDBRANCH  25  26
ENDBRANCH  24  25
ENDBRANCH  23  24
ENDBRANCH  20  23
ENDBRANCH  16  17
ENDBRANCH   3  16
TORSDOF 7
ENDMDL
MODEL 6
REMARK VINA RESULT:    -6.319      1.514      2.111
REMARK INTER + INTRA:          -9.967
REMARK INTER:                  -8.967
REMARK INTRA:                  -1.000
REMARK UNBOUND:                -1.062
REMARK  Name = 
REMARK  7 active torsions:
REMARK  status: ('A' for Active; 'I' for Inactive)
REMARK    1  A    between atoms: C_2  and  C_19
REMARK    2  A    between atoms: N_3  and  C_4
REMARK    3  A    between atoms: C_4  and  C_5
REMARK    4  A    between atoms: C_8  and  O_9
REMARK    5  A    between atoms: O_9  and  C_10
REMARK    6  A    between atoms: C_10  and  C_11
REMARK    7  A    between atoms: C_11  and  N_12
REMARK                            x       y       z     vdW  Elec       q    Type
REMARK                         _______ _______ _______ _____ _____    ______ ____
ROOT
ATOM      1  O   UNL     1      50.285   7.503  14.906  0.00  0.00    +0.000 OA
ATOM      2  C   UNL     1      49.305   7.262  15.606  0.00  0.00    +0.000 C 
ATOM      3  N   UNL     1      48.054   7.753  15.321  0.00  0.00    +0.000 N 
ATOM      4  H   UNL     1      47.324   7.684  16.018  0.00  0.00    +0.000 HD
ENDROOT
BRANCH   2   5
ATOM      5  C   UNL     1      49.400   6.370  16.771  0.00  0.00    +0.000 A 
ATOM      6  C   UNL     1      50.240   6.704  17.824  0.00  0.00    +0.000 A 
ATOM      7  S   UNL     1      50.252   5.555  19.085  0.00  0.00    +0.000 S 
ATOM      8  C   UNL     1      49.095   4.594  18.290  0.00  0.00    +0.000 A 
ATOM      9  N   UNL     1      48.629   3.450  18.860  0.00  0.00    +0.000 NA
ATOM     10  C   UNL     1      47.726   2.838  18.168  0.00  0.00    +0.000 A 
ATOM     11  N   UNL     1      47.257   3.260  16.951  0.00  0.00    +0.000 N 
ATOM     12  C   UNL     1      47.752   4.367  16.303  0.00  0.00    +0.000 A 
ATOM     13  O   UNL     1      47.402   4.642  15.161  0.00  0.00    +0.000 OA
ATOM     14  C   UNL     1      48.732   5.122  17.063  0.00  0.00    +0.000 A 
ATOM     15  H   UNL     1      46.570   2.720  16.446  0.00  0.00    +0.000 HD
ENDBRANCH   2   5
BRANCH   3  16
ATOM     16  C   UNL     1      47.795   8.634  14.213  0.00  0.00    +0.000 C 
BRANCH  16  17
ATOM     17  C   UNL     1      46.974   7.957  13.149  0.00  0.00    +0.000 A 
ATOM     18  C   UNL     1      47.536   6.918  12.404  0.00  0.00    +0.000 A 
ATOM     19  C   UNL     1      46.789   6.259  11.430  0.00  0.00    +0.000 A 
ATOM     20  C   UNL     1      45.467   6.635  11.161  0.00  0.00    +0.000 A 
ATOM     21  C   UNL     1      44.909   7.689  11.885  0.00  0.00    +0.000 A 
ATOM     22  C   UNL     1      45.658   8.351  12.868  0.00  0.00    +0.000 A 
BRANCH  20  23
ATOM     23  O   UNL     1      44.650   6.048  10.218  0.00  0.00    +0.000 OA
BRANCH  23  24
ATOM     24  C   UNL     1      45.254   4.939   9.546  0.00  0.00    +0.000 C 
BRANCH  24  25
ATOM     25  C   UNL     1      44.524   3.611   9.803  0.00  0.00    +0.000 C 
BRANCH  25  26
ATOM     26  N   UNL     1      44.504   2.796   8.575  0.00  0.00    +0.000 NA
ATOM     27  C   UNL     1      45.407   3.288   7.539  0.00  0.00    +0.000 C 
ATOM     28  C   UNL     1      46.657   2.439   7.651  0.00  0.00    +0.000 C 
ATOM     29  O   UNL     1      46.280   1.240   8.322  0.00  0.00    +0.000 OA
ATOM     30  C   UNL     1      44.941   1.416   8.776  0.00  0.00    +0.000 C 
ENDBRANCH  25  26
ENDBRANCH  24  25
ENDBRANCH  23  24
ENDBRANCH  20  23
ENDBRANCH  16  17
ENDBRANCH   3  16
TORSDOF 7
ENDMDL
MODEL 7
REMARK VINA RESULT:    -6.023      4.750      7.356
REMARK INTER + INTRA:          -9.550
REMARK INTER:                  -8.649
REMARK INTRA:                  -0.901
REMARK UNBOUND:                -1.062
REMARK  Name = 
REMARK  7 active torsions:
REMARK  status: ('A' for Active; 'I' for Inactive)
REMARK    1  A    between atoms: C_2  and  C_19
REMARK    2  A    between atoms: N_3  and  C_4
REMARK    3  A    between atoms: C_4  and  C_5
REMARK    4  A    between atoms: C_8  and  O_9
REMARK    5  A    between atoms: O_9  and  C_10
REMARK    6  A    between atoms: C_10  and  C_11
REMARK    7  A    between atoms: C_11  and  N_12
REMARK                            x       y       z     vdW  Elec       q    Type
REMARK                         _______ _______ _______ _____ _____    ______ ____
ROOT
ATOM      1  O   UNL     1      44.500   7.751  11.028  0.00  0.00    +0.000 OA
ATOM      2  C   UNL     1      45.070   6.832  11.611  0.00  0.00    +0.000 C 
ATOM      3  N   UNL     1      46.121   7.042  12.470  0.00  0.00    +0.000 N 
ATOM      4  H   UNL     1      46.674   6.252  12.780  0.00  0.00    +0.000 HD
ENDROOT
BRANCH   2   5
ATOM      5  C   UNL     1      44.615   5.441  11.472  0.00  0.00    +0.000 A 
ATOM      6  C   UNL     1      43.869   4.859  12.488  0.00  0.00    +0.000 A 
ATOM      7  S   UNL     1      43.441   3.236  12.182  0.00  0.00    +0.000 S 
ATOM      8  C   UNL     1      44.195   3.269  10.658  0.00  0.00    +0.000 A 
ATOM      9  N   UNL     1      44.167   2.181   9.842  0.00  0.00    +0.000 NA
ATOM     10  C   UNL     1      44.743   2.355   8.700  0.00  0.00    +0.000 A 
ATOM     11  N   UNL     1      45.358   3.515   8.304  0.00  0.00    +0.000 N 
ATOM     12  C   UNL     1      45.476   4.613   9.123  0.00  0.00    +0.000 A 
ATOM     13  O   UNL     1      46.142   5.585   8.786  0.00  0.00    +0.000 OA
ATOM     14  C   UNL     1      44.798   4.489  10.400  0.00  0.00    +0.000 A 
ATOM     15  H   UNL     1      45.816   3.577   7.407  0.00  0.00    +0.000 HD
ENDBRANCH   2   5
BRANCH   3  16
ATOM     16  C   UNL     1      46.679   8.344  12.718  0.00  0.00    +0.000 C 
BRANCH  16  17
ATOM     17  C   UNL     1      48.078   8.460  12.174  0.00  0.00    +0.000 A 
ATOM     18  C   UNL     1      48.868   7.314  12.060  0.00  0.00    +0.000 A 
ATOM     19  C   UNL     1      50.156   7.391  11.537  0.00  0.00    +0.000 A 
ATOM     20  C   UNL     1      50.696   8.618  11.132  0.00  0.00    +0.000 A 
ATOM     21  C   UNL     1      49.920   9.769  11.267  0.00  0.00    +0.000 A 
ATOM     22  C   UNL     1      48.622   9.694  11.790  0.00  0.00    +0.000 A 
BRANCH  20  23
ATOM     23  O   UNL     1      51.959   8.796  10.606  0.00  0.00    +0.000 OA
BRANCH  23  24
ATOM     24  C   UNL     1      52.445   7.661   9.884  0.00  0.00    +0.000 C 
BRANCH  24  25
ATOM     25  C   UNL     1      53.764   7.939   9.145  0.00  0.00    +0.000 C 
BRANCH  25  26
ATOM     26  N   UNL     1      53.559   7.852   7.689  0.00  0.00    +0.000 NA
ATOM     27  C   UNL     1      54.645   7.171   6.990  0.00  0.00    +0.000 C 
ATOM     28  C   UNL     1      54.166   5.749   6.780  0.00  0.00    +0.000 C 
ATOM     29  O   UNL     1      52.745   5.777   6.869  0.00  0.00    +0.000 OA
ATOM     30  C   UNL     1      52.377   7.082   7.306  0.00  0.00    +0.000 C 
ENDBRANCH  25  26
ENDBRANCH  24  25
ENDBRANCH  23  24
ENDBRANCH  20  23
ENDBRANCH  16  17
ENDBRANCH   3  16
TORSDOF 7
ENDMDL
MODEL 8
REMARK VINA RESULT:    -5.702      5.529      7.937
REMARK INTER + INTRA:          -9.098
REMARK INTER:                  -8.357
REMARK INTRA:                  -0.741
REMARK UNBOUND:                -1.062
REMARK  Name = 
REMARK  7 active torsions:
REMARK  status: ('A' for Active; 'I' for Inactive)
REMARK    1  A    between atoms: C_2  and  C_19
REMARK    2  A    between atoms: N_3  and  C_4
REMARK    3  A    between atoms: C_4  and  C_5
REMARK    4  A    between atoms: C_8  and  O_9
REMARK    5  A    between atoms: O_9  and  C_10
REMARK    6  A    between atoms: C_10  and  C_11
REMARK    7  A    between atoms: C_11  and  N_12
REMARK                            x       y       z     vdW  Elec       q    Type
REMARK                         _______ _______ _______ _____ _____    ______ ____
ROOT
ATOM      1  O   UNL     1      53.832   8.680  10.978  0.00  0.00    +0.000 OA
ATOM      2  C   UNL     1      52.872   8.514  10.231  0.00  0.00    +0.000 C 
ATOM      3  N   UNL     1      51.575   8.718  10.638  0.00  0.00    +0.000 N 
ATOM      4  H   UNL     1      50.815   8.393  10.054  0.00  0.00    +0.000 HD
ENDROOT
BRANCH   2   5
ATOM      5  C   UNL     1      53.056   8.145   8.820  0.00  0.00    +0.000 A 
ATOM      6  C   UNL     1      52.916   9.113   7.834  0.00  0.00    +0.000 A 
ATOM      7  S   UNL     1      53.138   8.517   6.251  0.00  0.00    +0.000 S 
ATOM      8  C   UNL     1      53.480   6.955   6.830  0.00  0.00    +0.000 A 
ATOM      9  N   UNL     1      53.797   5.947   5.973  0.00  0.00    +0.000 NA
ATOM     10  C   UNL     1      54.071   4.824   6.547  0.00  0.00    +0.000 A 
ATOM     11  N   UNL     1      54.044   4.613   7.902  0.00  0.00    +0.000 N 
ATOM     12  C   UNL     1      53.656   5.579   8.800  0.00  0.00    +0.000 A 
ATOM     13  O   UNL     1      53.519   5.319   9.990  0.00  0.00    +0.000 OA
ATOM     14  C   UNL     1      53.389   6.878   8.209  0.00  0.00    +0.000 A 
ATOM     15  H   UNL     1      54.241   3.701   8.287  0.00  0.00    +0.000 HD
ENDBRANCH   2   5
BRANCH   3  16
ATOM     16  C   UNL     1      51.229   9.087  11.985  0.00  0.00    +0.000 C 
BRANCH  16  17
ATOM     17  C   UNL     1      50.107   8.239  12.520  0.00  0.00    +0.000 A 
ATOM     18  C   UNL     1      50.123   7.842  13.859  0.00  0.00    +0.000 A 
ATOM     19  C   UNL     1      49.084   7.077  14.384  0.00  0.00    +0.000 A 
ATOM     20  C   UNL     1      48.011   6.673  13.580  0.00  0.00    +0.000 A 
ATOM     21  C   UNL     1      48.003   7.046  12.236  0.00  0.00    +0.000 A 
ATOM     22  C   UNL     1      49.045   7.818  11.706  0.00  0.00    +0.000 A 
BRANCH  20  23
ATOM     23  O   UNL     1      46.940   5.915  14.006  0.00  0.00    +0.000 OA
BRANCH  23  24
ATOM     24  C   UNL     1      46.007   5.606  12.967  0.00  0.00    +0.000 C 
BRANCH  24  25
ATOM     25  C   UNL     1      45.664   4.108  12.894  0.00  0.00    +0.000 C 
BRANCH  25  26
ATOM     26  N   UNL     1      44.226   3.905  13.140  0.00  0.00    +0.000 NA
ATOM     27  C   UNL     1      43.422   5.099  12.898  0.00  0.00    +0.000 C 
ATOM     28  C   UNL     1      42.842   4.925  11.508  0.00  0.00    +0.000 C 
ATOM     29  O   UNL     1      42.879   3.531  11.219  0.00  0.00    +0.000 OA
ATOM     30  C   UNL     1      43.615   2.904  12.266  0.00  0.00    +0.000 C 
ENDBRANCH  25  26
ENDBRANCH  24  25
ENDBRANCH  23  24
ENDBRANCH  20  23
ENDBRANCH  16  17
ENDBRANCH   3  16
TORSDOF 7
ENDMDL
MODEL 9
REMARK VINA RESULT:    -5.581      3.821      8.361
REMARK INTER + INTRA:          -8.927
REMARK INTER:                  -7.940
REMARK INTRA:                  -0.987
REMARK UNBOUND:                -1.062
REMARK  Name = 
REMARK  7 active torsions:
REMARK  status: ('A' for Active; 'I' for Inactive)
REMARK    1  A    between atoms: C_2  and  C_19
REMARK    2  A    between atoms: N_3  and  C_4
REMARK    3  A    between atoms: C_4  and  C_5
REMARK    4  A    between atoms: C_8  and  O_9
REMARK    5  A    between atoms: O_9  and  C_10
REMARK    6  A    between atoms: C_10  and  C_11
REMARK    7  A    between atoms: C_11  and  N_12
REMARK                            x       y       z     vdW  Elec       q    Type
REMARK                         _______ _______ _______ _____ _____    ______ ____
ROOT
ATOM      1  O   UNL     1      43.697   7.289  11.349  0.00  0.00    +0.000 OA
ATOM      2  C   UNL     1      44.522   6.434  11.660  0.00  0.00    +0.000 C 
ATOM      3  N   UNL     1      45.662   6.728  12.367  0.00  0.00    +0.000 N 
ATOM      4  H   UNL     1      46.395   6.034  12.438  0.00  0.00    +0.000 HD
ENDROOT
BRANCH   2   5
ATOM      5  C   UNL     1      44.305   5.014  11.345  0.00  0.00    +0.000 A 
ATOM      6  C   UNL     1      43.545   4.229  12.202  0.00  0.00    +0.000 A 
ATOM      7  S   UNL     1      43.409   2.603  11.705  0.00  0.00    +0.000 S 
ATOM      8  C   UNL     1      44.318   2.902  10.299  0.00  0.00    +0.000 A 
ATOM      9  N   UNL     1      44.551   1.911   9.396  0.00  0.00    +0.000 NA
ATOM     10  C   UNL     1      45.221   2.283   8.356  0.00  0.00    +0.000 A 
ATOM     11  N   UNL     1      45.692   3.554   8.144  0.00  0.00    +0.000 N 
ATOM     12  C   UNL     1      45.546   4.566   9.063  0.00  0.00    +0.000 A 
ATOM     13  O   UNL     1      46.089   5.653   8.900  0.00  0.00    +0.000 OA
ATOM     14  C   UNL     1      44.753   4.214  10.227  0.00  0.00    +0.000 A 
ATOM     15  H   UNL     1      46.235   3.773   7.323  0.00  0.00    +0.000 HD
ENDBRANCH   2   5
BRANCH   3  16
ATOM     16  C   UNL     1      46.015   8.067  12.756  0.00  0.00    +0.000 C 
BRANCH  16  17
ATOM     17  C   UNL     1      47.417   8.415  12.333  0.00  0.00    +0.000 A 
ATOM     18  C   UNL     1      47.874   9.726  12.478  0.00  0.00    +0.000 A 
ATOM     19  C   UNL     1      49.175  10.068  12.116  0.00  0.00    +0.000 A 
ATOM     20  C   UNL     1      50.047   9.111  11.582  0.00  0.00    +0.000 A 
ATOM     21  C   UNL     1      49.588   7.805  11.411  0.00  0.00    +0.000 A 
ATOM     22  C   UNL     1      48.280   7.458  11.778  0.00  0.00    +0.000 A 
BRANCH  20  23
ATOM     23  O   UNL     1      51.349   9.352  11.193  0.00  0.00    +0.000 OA
BRANCH  23  24
ATOM     24  C   UNL     1      52.111  10.081  12.159  0.00  0.00    +0.000 C 
BRANCH  24  25
ATOM     25  C   UNL     1      53.218   9.236  12.812  0.00  0.00    +0.000 C 
BRANCH  25  26
ATOM     26  N   UNL     1      53.100   9.292  14.279  0.00  0.00    +0.000 NA
ATOM     27  C   UNL     1      51.719   9.256  14.752  0.00  0.00    +0.000 C 
ATOM     28  C   UNL     1      51.461   7.815  15.146  0.00  0.00    +0.000 C 
ATOM     29  O   UNL     1      52.734   7.220  15.380  0.00  0.00    +0.000 OA
ATOM     30  C   UNL     1      53.721   8.160  14.964  0.00  0.00    +0.000 C 
ENDBRANCH  25  26
ENDBRANCH  24  25
ENDBRANCH  23  24
ENDBRANCH  20  23
ENDBRANCH  16  17
ENDBRANCH   3  16
TORSDOF 7
ENDMDL
