MODEL 1
REMARK VINA RESULT:    -8.530      0.000      0.000
REMARK INTER + INTRA:         -13.335
REMARK INTER:                 -12.519
REMARK INTRA:                  -0.816
REMARK UNBOUND:                -0.816
REMARK  Name = 
REMARK  9 active torsions:
REMARK  status: ('A' for Active; 'I' for Inactive)
REMARK    1  A    between atoms: C_1  and  O_2
REMARK    2  A    between atoms: O_2  and  C_3
REMARK    3  A    between atoms: C_5  and  C_6
REMARK    4  A    between atoms: C_6  and  N_7
REMARK    5  A    between atoms: C_8  and  C_10
REMARK    6  A    between atoms: C_22  and  C_23
REMARK    7  A    between atoms: C_23  and  N_24
REMARK    8  A    between atoms: N_24  and  C_25
REMARK    9  A    between atoms: C_25  and  C_26
REMARK                            x       y       z     vdW  Elec       q    Type
REMARK                         _______ _______ _______ _____ _____    ______ ____
ROOT
ATOM      1  C   UNL     1      44.567   5.255  11.869  0.00  0.00    +0.000 A 
ATOM      2  C   UNL     1      45.589   6.130  12.297  0.00  0.00    +0.000 A 
ATOM      3  C   UNL     1      46.684   5.674  13.052  0.00  0.00    +0.000 A 
ATOM      4  C   UNL     1      46.753   4.312  13.358  0.00  0.00    +0.000 A 
ATOM      5  C   UNL     1      45.774   3.432  12.891  0.00  0.00    +0.000 A 
ATOM      6  C   UNL     1      44.694   3.875  12.102  0.00  0.00    +0.000 A 
ENDROOT
BRANCH   1   8
ATOM      7  C   UNL     1      42.270   5.875  11.767  0.00  0.00    +0.000 C 
ATOM      8  O   UNL     1      43.559   5.849  11.149  0.00  0.00    +0.000 OA
ENDBRANCH   1   8
BRANCH   3   9
ATOM      9  C   UNL     1      47.785   6.606  13.506  0.00  0.00    +0.000 C 
BRANCH   9  10
ATOM     10  N   UNL     1      47.814   6.743  14.944  0.00  0.00    +0.000 N 
ATOM     11  C   UNL     1      48.999   6.756  15.646  0.00  0.00    +0.000 C 
ATOM     12  O   UNL     1      50.087   6.702  15.087  0.00  0.00    +0.000 OA
ATOM     13  H   UNL     1      46.951   6.543  15.436  0.00  0.00    +0.000 HD
BRANCH  11  14
ATOM     14  C   UNL     1      48.893   6.897  17.107  0.00  0.00    +0.000 A 
ATOM     15  C   UNL     1      48.715   8.155  17.670  0.00  0.00    +0.000 A 
ATOM     16  S   UNL     1      48.550   8.132  19.369  0.00  0.00    +0.000 S 
ATOM     17  C   UNL     1      48.770   6.445  19.420  0.00  0.00    +0.000 A 
ATOM     18  N   UNL     1      48.762   5.773  20.605  0.00  0.00    +0.000 NA
ATOM     19  C   UNL     1      48.963   4.501  20.494  0.00  0.00    +0.000 A 
ATOM     20  N   UNL     1      49.173   3.843  19.310  0.00  0.00    +0.000 N 
ATOM     21  C   UNL     1      49.177   4.480  18.091  0.00  0.00    +0.000 A 
ATOM     22  O   UNL     1      49.353   3.861  17.051  0.00  0.00    +0.000 OA
ATOM     23  C   UNL     1      48.951   5.908  18.158  0.00  0.00    +0.000 A 
ATOM     24  H   UNL     1      49.314   2.843  19.285  0.00  0.00    +0.000 HD
ENDBRANCH  11  14
ENDBRANCH   9  10
ENDBRANCH   3   9
BRANCH   6  25
ATOM     25  C   UNL     1      43.791   2.815  11.511  0.00  0.00    +0.000 C 
BRANCH  25  26
ATOM     26  N   UNL     1      44.319   2.147  10.317  0.00  0.00    +0.000 NA
ATOM     27  H   UNL     1      43.648   1.441  10.010  0.00  0.00    +0.000 HD
BRANCH  26  28
ATOM     28  C   UNL     1      44.488   3.056   9.176  0.00  0.00    +0.000 C 
BRANCH  28  29
ATOM     29  C   UNL     1      45.582   2.571   8.238  0.00  0.00    +0.000 A 
ATOM     30  C   UNL     1      46.099   3.424   7.262  0.00  0.00    +0.000 A 
ATOM     31  C   UNL     1      47.107   2.959   6.422  0.00  0.00    +0.000 A 
ATOM     32  C   UNL     1      47.572   1.660   6.574  0.00  0.00    +0.000 A 
ATOM     33  C   UNL     1      47.011   0.877   7.569  0.00  0.00    +0.000 A 
ATOM     34  N   UNL     1      46.031   1.298   8.399  0.00  0.00    +0.000 NA
ENDBRANCH  28  29
ENDBRANCH  26  28
ENDBRANCH  25  26
ENDBRANCH   6  25
TORSDOF 8
ENDMDL
MODEL 2
REMARK VINA RESULT:    -8.363      1.577      2.326
REMARK INTER + INTRA:         -13.090
REMARK INTER:                 -12.496
REMARK INTRA:                  -0.595
REMARK UNBOUND:                -0.816
REMARK  Name = 
REMARK  9 active torsions:
REMARK  status: ('A' for Active; 'I' for Inactive)
REMARK    1  A    between atoms: C_1  and  O_2
REMARK    2  A    between atoms: O_2  and  C_3
REMARK    3  A    between atoms: C_5  and  C_6
REMARK    4  A    between atoms: C_6  and  N_7
REMARK    5  A    between atoms: C_8  and  C_10
REMARK    6  A    between atoms: C_22  and  C_23
REMARK    7  A    between atoms: C_23  and  N_24
REMARK    8  A    between atoms: N_24  and  C_25
REMARK    9  A    between atoms: C_25  and  C_26
REMARK                            x       y       z     vdW  Elec       q    Type
REMARK                         _______ _______ _______ _____ _____    ______ ____
ROOT
ATOM      1  C   UNL     1      44.884   4.807  12.577  0.00  0.00    +0.000 A 
ATOM      2  C   UNL     1      45.925   5.338  13.368  0.00  0.00    +0.000 A 
ATOM      3  C   UNL     1      46.912   6.180  12.824  0.00  0.00    +0.000 A 
ATOM      4  C   UNL     1      46.829   6.502  11.467  0.00  0.00    +0.000 A 
ATOM      5  C   UNL     1      45.770   6.024  10.690  0.00  0.00    +0.000 A 
ATOM      6  C   UNL     1      44.757   5.211  11.237  0.00  0.00    +0.000 A 
ENDROOT
BRANCH   1   8
ATOM      7  C   UNL     1      43.667   2.760  12.608  0.00  0.00    +0.000 C 
ATOM      8  O   UNL     1      44.003   3.994  13.247  0.00  0.00    +0.000 OA
ENDBRANCH   1   8
BRANCH   3   9
ATOM      9  C   UNL     1      48.025   6.757  13.669  0.00  0.00    +0.000 C 
BRANCH   9  10
ATOM     10  N   UNL     1      47.904   6.368  15.055  0.00  0.00    +0.000 N 
ATOM     11  C   UNL     1      48.997   6.321  15.892  0.00  0.00    +0.000 C 
ATOM     12  O   UNL     1      50.115   6.654  15.521  0.00  0.00    +0.000 OA
ATOM     13  H   UNL     1      47.063   5.864  15.313  0.00  0.00    +0.000 HD
BRANCH  11  14
ATOM     14  C   UNL     1      48.741   5.905  17.281  0.00  0.00    +0.000 A 
ATOM     15  C   UNL     1      48.925   4.579  17.652  0.00  0.00    +0.000 A 
ATOM     16  S   UNL     1      48.643   4.282  19.309  0.00  0.00    +0.000 S 
ATOM     17  C   UNL     1      48.206   5.905  19.579  0.00  0.00    +0.000 A 
ATOM     18  N   UNL     1      47.824   6.331  20.815  0.00  0.00    +0.000 NA
ATOM     19  C   UNL     1      47.500   7.582  20.868  0.00  0.00    +0.000 A 
ATOM     20  N   UNL     1      47.521   8.440  19.800  0.00  0.00    +0.000 N 
ATOM     21  C   UNL     1      47.910   8.056  18.538  0.00  0.00    +0.000 A 
ATOM     22  O   UNL     1      47.932   8.850  17.610  0.00  0.00    +0.000 OA
ATOM     23  C   UNL     1      48.290   6.663  18.425  0.00  0.00    +0.000 A 
ATOM     24  H   UNL     1      47.266   9.412  19.904  0.00  0.00    +0.000 HD
ENDBRANCH  11  14
ENDBRANCH   9  10
ENDBRANCH   3   9
BRANCH   6  25
ATOM     25  C   UNL     1      43.574   4.893  10.350  0.00  0.00    +0.000 C 
BRANCH  25  26
ATOM     26  N   UNL     1      43.903   4.180   9.111  0.00  0.00    +0.000 NA
ATOM     27  H   UNL     1      44.609   4.713   8.602  0.00  0.00    +0.000 HD
BRANCH  26  28
ATOM     28  C   UNL     1      44.500   2.859   9.349  0.00  0.00    +0.000 C 
BRANCH  28  29
ATOM     29  C   UNL     1      45.573   2.541   8.319  0.00  0.00    +0.000 A 
ATOM     30  C   UNL     1      45.982   3.517   7.409  0.00  0.00    +0.000 A 
ATOM     31  C   UNL     1      46.973   3.205   6.483  0.00  0.00    +0.000 A 
ATOM     32  C   UNL     1      47.529   1.933   6.486  0.00  0.00    +0.000 A 
ATOM     33  C   UNL     1      47.073   1.023   7.424  0.00  0.00    +0.000 A 
ATOM     34  N   UNL     1      46.112   1.294   8.334  0.00  0.00    +0.000 NA
ENDBRANCH  28  29
ENDBRANCH  26  28
ENDBRANCH  25  26
ENDBRANCH   6  25
TORSDOF 8
ENDMDL
MODEL 3
REMARK VINA RESULT:    -8.318      1.735      2.466
REMARK INTER + INTRA:         -13.023
REMARK INTER:                 -11.571
REMARK INTRA:                  -1.453
REMARK UNBOUND:                -0.816
REMARK  Name = 
REMARK  9 active torsions:
REMARK  status: ('A' for Active; 'I' for Inactive)
REMARK    1  A    between atoms: C_1  and  O_2
REMARK    2  A    between atoms: O_2  and  C_3
REMARK    3  A    between atoms: C_5  and  C_6
REMARK    4  A    between atoms: C_6  and  N_7
REMARK    5  A    between atoms: C_8  and  C_10
REMARK    6  A    between atoms: C_22  and  C_23
REMARK    7  A    between atoms: C_23  and  N_24
REMARK    8  A    between atoms: N_24  and  C_25
REMARK    9  A    between atoms: C_25  and  C_26
REMARK                            x       y       z     vdW  Elec       q    Type
REMARK                         _______ _______ _______ _____ _____    ______ ____
ROOT
ATOM      1  C   UNL     1      45.727   4.845  12.798  0.00  0.00    +0.000 A 
ATOM      2  C   UNL     1      46.246   6.074  13.259  0.00  0.00    +0.000 A 
ATOM      3  C   UNL     1      45.997   7.281  12.582  0.00  0.00    +0.000 A 
ATOM      4  C   UNL     1      45.198   7.243  11.437  0.00  0.00    +0.000 A 
ATOM      5  C   UNL     1      44.636   6.039  11.006  0.00  0.00    +0.000 A 
ATOM      6  C   UNL     1      44.849   4.832  11.701  0.00  0.00    +0.000 A 
ENDROOT
BRANCH   1   8
ATOM      7  C   UNL     1      47.130   3.933  14.492  0.00  0.00    +0.000 C 
ATOM      8  O   UNL     1      46.063   3.751  13.559  0.00  0.00    +0.000 OA
ENDBRANCH   1   8
BRANCH   3   9
ATOM      9  C   UNL     1      46.546   8.601  13.077  0.00  0.00    +0.000 C 
BRANCH   9  10
ATOM     10  N   UNL     1      47.075   8.495  14.417  0.00  0.00    +0.000 N 
ATOM     11  C   UNL     1      48.102   9.302  14.855  0.00  0.00    +0.000 C 
ATOM     12  O   UNL     1      48.585  10.180  14.153  0.00  0.00    +0.000 OA
ATOM     13  H   UNL     1      46.872   7.638  14.918  0.00  0.00    +0.000 HD
BRANCH  11  14
ATOM     14  C   UNL     1      48.553   9.092  16.241  0.00  0.00    +0.000 A 
ATOM     15  C   UNL     1      48.404  10.106  17.179  0.00  0.00    +0.000 A 
ATOM     16  S   UNL     1      48.923   9.674  18.747  0.00  0.00    +0.000 S 
ATOM     17  C   UNL     1      49.420   8.136  18.216  0.00  0.00    +0.000 A 
ATOM     18  N   UNL     1      49.987   7.246  19.078  0.00  0.00    +0.000 NA
ATOM     19  C   UNL     1      50.335   6.127  18.532  0.00  0.00    +0.000 A 
ATOM     20  N   UNL     1      50.172   5.819  17.207  0.00  0.00    +0.000 N 
ATOM     21  C   UNL     1      49.594   6.682  16.305  0.00  0.00    +0.000 A 
ATOM     22  O   UNL     1      49.449   6.371  15.132  0.00  0.00    +0.000 OA
ATOM     23  C   UNL     1      49.179   7.951  16.867  0.00  0.00    +0.000 A 
ATOM     24  H   UNL     1      50.455   4.922  16.839  0.00  0.00    +0.000 HD
ENDBRANCH  11  14
ENDBRANCH   9  10
ENDBRANCH   3   9
BRANCH   6  25
ATOM     25  C   UNL     1      44.058   3.625  11.246  0.00  0.00    +0.000 C 
BRANCH  25  26
ATOM     26  N   UNL     1      44.866   2.507  10.747  0.00  0.00    +0.000 NA
ATOM     27  H   UNL     1      44.745   1.709  11.371  0.00  0.00    +0.000 HD
BRANCH  26  28
ATOM     28  C   UNL     1      44.445   2.040   9.419  0.00  0.00    +0.000 C 
BRANCH  28  29
ATOM     29  C   UNL     1      45.563   2.189   8.399  0.00  0.00    +0.000 A 
ATOM     30  C   UNL     1      45.768   3.411   7.757  0.00  0.00    +0.000 A 
ATOM     31  C   UNL     1      46.805   3.524   6.835  0.00  0.00    +0.000 A 
ATOM     32  C   UNL     1      47.607   2.421   6.576  0.00  0.00    +0.000 A 
ATOM     33  C   UNL     1      47.342   1.246   7.258  0.00  0.00    +0.000 A 
ATOM     34  N   UNL     1      46.344   1.103   8.157  0.00  0.00    +0.000 NA
ENDBRANCH  28  29
ENDBRANCH  26  28
ENDBRANCH  25  26
ENDBRANCH   6  25
TORSDOF 8
ENDMDL
MODEL 4
REMARK VINA RESULT:    -7.777      1.917      3.126
REMARK INTER + INTRA:         -12.231
REMARK INTER:                 -10.887
REMARK INTRA:                  -1.343
REMARK UNBOUND:                -0.816
REMARK  Name = 
REMARK  9 active torsions:
REMARK  status: ('A' for Active; 'I' for Inactive)
REMARK    1  A    between atoms: C_1  and  O_2
REMARK    2  A    between atoms: O_2  and  C_3
REMARK    3  A    between atoms: C_5  and  C_6
REMARK    4  A    between atoms: C_6  and  N_7
REMARK    5  A    between atoms: C_8  and  C_10
REMARK    6  A    between atoms: C_22  and  C_23
REMARK    7  A    between atoms: C_23  and  N_24
REMARK    8  A    between atoms: N_24  and  C_25
REMARK    9  A    between atoms: C_25  and  C_26
REMARK                            x       y       z     vdW  Elec       q    Type
REMARK                         _______ _______ _______ _____ _____    ______ ____
ROOT
ATOM      1  C   UNL     1      45.561   3.936  12.222  0.00  0.00    +0.000 A 
ATOM      2  C   UNL     1      46.084   3.568  13.481  0.00  0.00    +0.000 A 
ATOM      3  C   UNL     1      46.920   4.429  14.214  0.00  0.00    +0.000 A 
ATOM      4  C   UNL     1      47.213   5.683  13.672  0.00  0.00    +0.000 A 
ATOM      5  C   UNL     1      46.656   6.075  12.452  0.00  0.00    +0.000 A 
ATOM      6  C   UNL     1      45.786   5.232  11.731  0.00  0.00    +0.000 A 
ENDROOT
BRANCH   1   8
ATOM      7  C   UNL     1      43.420   2.902  12.090  0.00  0.00    +0.000 C 
ATOM      8  O   UNL     1      44.769   2.987  11.623  0.00  0.00    +0.000 OA
ENDBRANCH   1   8
BRANCH   3   9
ATOM      9  C   UNL     1      47.476   4.042  15.566  0.00  0.00    +0.000 C 
BRANCH   9  10
ATOM     10  N   UNL     1      47.376   5.124  16.518  0.00  0.00    +0.000 N 
ATOM     11  C   UNL     1      48.492   5.774  16.995  0.00  0.00    +0.000 C 
ATOM     12  O   UNL     1      49.620   5.505  16.603  0.00  0.00    +0.000 OA
ATOM     13  H   UNL     1      46.504   5.196  17.032  0.00  0.00    +0.000 HD
BRANCH  11  14
ATOM     14  C   UNL     1      48.255   6.857  17.964  0.00  0.00    +0.000 A 
ATOM     15  C   UNL     1      48.109   6.559  19.314  0.00  0.00    +0.000 A 
ATOM     16  S   UNL     1      47.902   7.934  20.303  0.00  0.00    +0.000 S 
ATOM     17  C   UNL     1      47.939   8.974  18.957  0.00  0.00    +0.000 A 
ATOM     18  N   UNL     1      47.793  10.320  19.107  0.00  0.00    +0.000 NA
ATOM     19  C   UNL     1      47.820  10.983  17.997  0.00  0.00    +0.000 A 
ATOM     20  N   UNL     1      47.978  10.424  16.756  0.00  0.00    +0.000 N 
ATOM     21  C   UNL     1      48.140   9.072  16.560  0.00  0.00    +0.000 A 
ATOM     22  O   UNL     1      48.293   8.606  15.441  0.00  0.00    +0.000 OA
ATOM     23  C   UNL     1      48.123   8.282  17.774  0.00  0.00    +0.000 A 
ATOM     24  H   UNL     1      48.002  10.995  15.924  0.00  0.00    +0.000 HD
ENDBRANCH  11  14
ENDBRANCH   9  10
ENDBRANCH   3   9
BRANCH   6  25
ATOM     25  C   UNL     1      45.109   5.822  10.512  0.00  0.00    +0.000 C 
BRANCH  25  26
ATOM     26  N   UNL     1      44.805   4.860   9.448  0.00  0.00    +0.000 NA
ATOM     27  H   UNL     1      43.926   5.128   9.003  0.00  0.00    +0.000 HD
BRANCH  26  28
ATOM     28  C   UNL     1      45.807   4.854   8.374  0.00  0.00    +0.000 C 
BRANCH  28  29
ATOM     29  C   UNL     1      46.233   3.438   8.020  0.00  0.00    +0.000 A 
ATOM     30  C   UNL     1      47.295   3.223   7.140  0.00  0.00    +0.000 A 
ATOM     31  C   UNL     1      47.672   1.918   6.841  0.00  0.00    +0.000 A 
ATOM     32  C   UNL     1      46.983   0.862   7.422  0.00  0.00    +0.000 A 
ATOM     33  C   UNL     1      45.944   1.157   8.288  0.00  0.00    +0.000 A 
ATOM     34  N   UNL     1      45.553   2.413   8.598  0.00  0.00    +0.000 NA
ENDBRANCH  28  29
ENDBRANCH  26  28
ENDBRANCH  25  26
ENDBRANCH   6  25
TORSDOF 8
ENDMDL
MODEL 5
REMARK VINA RESULT:    -7.555      1.685      2.056
REMARK INTER + INTRA:         -11.904
REMARK INTER:                 -10.837
REMARK INTRA:                  -1.067
REMARK UNBOUND:                -0.816
REMARK  Name = 
REMARK  9 active torsions:
REMARK  status: ('A' for Active; 'I' for Inactive)
REMARK    1  A    between atoms: C_1  and  O_2
REMARK    2  A    between atoms: O_2  and  C_3
REMARK    3  A    between atoms: C_5  and  C_6
REMARK    4  A    between atoms: C_6  and  N_7
REMARK    5  A    between atoms: C_8  and  C_10
REMARK    6  A    between atoms: C_22  and  C_23
REMARK    7  A    between atoms: C_23  and  N_24
REMARK    8  A    between atoms: N_24  and  C_25
REMARK    9  A    between atoms: C_25  and  C_26
REMARK                            x       y       z     vdW  Elec       q    Type
REMARK                         _______ _______ _______ _____ _____    ______ ____
ROOT
ATOM      1  C   UNL     1      45.244   5.534  10.510  0.00  0.00    +0.000 A 
ATOM      2  C   UNL     1      46.008   6.547  11.130  0.00  0.00    +0.000 A 
ATOM      3  C   UNL     1      45.896   6.821  12.505  0.00  0.00    +0.000 A 
ATOM      4  C   UNL     1      45.014   6.046  13.262  0.00  0.00    +0.000 A 
ATOM      5  C   UNL     1      44.296   5.006  12.666  0.00  0.00    +0.000 A 
ATOM      6  C   UNL     1      44.432   4.701  11.297  0.00  0.00    +0.000 A 
ENDROOT
BRANCH   1   8
ATOM      7  C   UNL     1      46.809   5.515   8.715  0.00  0.00    +0.000 C 
ATOM      8  O   UNL     1      45.456   5.391   9.161  0.00  0.00    +0.000 OA
ENDBRANCH   1   8
BRANCH   3   9
ATOM      9  C   UNL     1      46.718   7.900  13.174  0.00  0.00    +0.000 C 
BRANCH   9  10
ATOM     10  N   UNL     1      47.345   7.425  14.385  0.00  0.00    +0.000 N 
ATOM     11  C   UNL     1      48.566   6.787  14.365  0.00  0.00    +0.000 C 
ATOM     12  O   UNL     1      49.204   6.634  13.332  0.00  0.00    +0.000 OA
ATOM     13  H   UNL     1      46.745   7.317  15.195  0.00  0.00    +0.000 HD
BRANCH  11  14
ATOM     14  C   UNL     1      49.096   6.348  15.667  0.00  0.00    +0.000 A 
ATOM     15  C   UNL     1      50.195   6.993  16.220  0.00  0.00    +0.000 A 
ATOM     16  S   UNL     1      50.640   6.399  17.757  0.00  0.00    +0.000 S 
ATOM     17  C   UNL     1      49.415   5.218  17.714  0.00  0.00    +0.000 A 
ATOM     18  N   UNL     1      49.253   4.338  18.741  0.00  0.00    +0.000 NA
ATOM     19  C   UNL     1      48.299   3.485  18.562  0.00  0.00    +0.000 A 
ATOM     20  N   UNL     1      47.496   3.430  17.452  0.00  0.00    +0.000 N 
ATOM     21  C   UNL     1      47.617   4.306  16.398  0.00  0.00    +0.000 A 
ATOM     22  O   UNL     1      46.876   4.240  15.429  0.00  0.00    +0.000 OA
ATOM     23  C   UNL     1      48.670   5.288  16.551  0.00  0.00    +0.000 A 
ATOM     24  H   UNL     1      46.758   2.746  17.373  0.00  0.00    +0.000 HD
ENDBRANCH  11  14
ENDBRANCH   9  10
ENDBRANCH   3   9
BRANCH   6  25
ATOM     25  C   UNL     1      43.738   3.452  10.797  0.00  0.00    +0.000 C 
BRANCH  25  26
ATOM     26  N   UNL     1      43.954   3.151   9.377  0.00  0.00    +0.000 NA
ATOM     27  H   UNL     1      44.570   3.861   8.980  0.00  0.00    +0.000 HD
BRANCH  26  28
ATOM     28  C   UNL     1      44.634   1.868   9.158  0.00  0.00    +0.000 C 
BRANCH  28  29
ATOM     29  C   UNL     1      45.667   1.972   8.047  0.00  0.00    +0.000 A 
ATOM     30  C   UNL     1      45.571   2.985   7.091  0.00  0.00    +0.000 A 
ATOM     31  C   UNL     1      46.535   3.064   6.090  0.00  0.00    +0.000 A 
ATOM     32  C   UNL     1      47.566   2.135   6.066  0.00  0.00    +0.000 A 
ATOM     33  C   UNL     1      47.594   1.163   7.052  0.00  0.00    +0.000 A 
ATOM     34  N   UNL     1      46.673   1.058   8.035  0.00  0.00    +0.000 NA
ENDBRANCH  28  29
ENDBRANCH  26  28
ENDBRANCH  25  26
ENDBRANCH   6  25
TORSDOF 8
ENDMDL
MODEL 6
REMARK VINA RESULT:    -7.541      4.126      5.197
REMARK INTER + INTRA:         -11.884
REMARK INTER:                 -10.414
REMARK INTRA:                  -1.470
REMARK UNBOUND:                -0.816
REMARK  Name = 
REMARK  9 active torsions:
REMARK  status: ('A' for Active; 'I' for Inactive)
REMARK    1  A    between atoms: C_1  and  O_2
REMARK    2  A    between atoms: O_2  and  C_3
REMARK    3  A    between atoms: C_5  and  C_6
REMARK    4  A    between atoms: C_6  and  N_7
REMARK    5  A    between atoms: C_8  and  C_10
REMARK    6  A    between atoms: C_22  and  C_23
REMARK    7  A    between atoms: C_23  and  N_24
REMARK    8  A    between atoms: N_24  and  C_25
REMARK    9  A    between atoms: C_25  and  C_26
REMARK                            x       y       z     vdW  Elec       q    Type
REMARK                         _______ _______ _______ _____ _____    ______ ____
ROOT
ATOM      1  C   UNL     1      44.492   5.925  11.737  0.00  0.00    +0.000 A 
ATOM      2  C   UNL     1      44.873   7.237  12.092  0.00  0.00    +0.000 A 
ATOM      3  C   UNL     1      46.041   7.493  12.832  0.00  0.00    +0.000 A 
ATOM      4  C   UNL     1      46.841   6.408  13.198  0.00  0.00    +0.000 A 
ATOM      5  C   UNL     1      46.499   5.112  12.804  0.00  0.00    +0.000 A 
ATOM      6  C   UNL     1      45.350   4.852  12.030  0.00  0.00    +0.000 A 
ENDROOT
BRANCH   1   8
ATOM      7  C   UNL     1      42.127   5.654  11.787  0.00  0.00    +0.000 C 
ATOM      8  O   UNL     1      43.322   5.833  11.023  0.00  0.00    +0.000 OA
ENDBRANCH   1   8
BRANCH   3   9
ATOM      9  C   UNL     1      46.457   8.898  13.207  0.00  0.00    +0.000 C 
BRANCH   9  10
ATOM     10  N   UNL     1      47.862   9.127  12.963  0.00  0.00    +0.000 N 
ATOM     11  C   UNL     1      48.301  10.179  12.190  0.00  0.00    +0.000 C 
ATOM     12  O   UNL     1      47.530  11.002  11.712  0.00  0.00    +0.000 OA
ATOM     13  H   UNL     1      48.485   8.344  13.131  0.00  0.00    +0.000 HD
BRANCH  11  14
ATOM     14  C   UNL     1      49.758  10.300  12.015  0.00  0.00    +0.000 A 
ATOM     15  C   UNL     1      50.386  11.515  12.258  0.00  0.00    +0.000 A 
ATOM     16  S   UNL     1      52.081  11.463  12.066  0.00  0.00    +0.000 S 
ATOM     17  C   UNL     1      52.032   9.829  11.594  0.00  0.00    +0.000 A 
ATOM     18  N   UNL     1      53.170   9.161  11.260  0.00  0.00    +0.000 NA
ATOM     19  C   UNL     1      52.979   7.934  10.901  0.00  0.00    +0.000 A 
ATOM     20  N   UNL     1      51.756   7.317  10.843  0.00  0.00    +0.000 N 
ATOM     21  C   UNL     1      50.583   7.951  11.182  0.00  0.00    +0.000 A 
ATOM     22  O   UNL     1      49.509   7.368  11.134  0.00  0.00    +0.000 OA
ATOM     23  C   UNL     1      50.742   9.328  11.598  0.00  0.00    +0.000 A 
ATOM     24  H   UNL     1      51.669   6.351  10.564  0.00  0.00    +0.000 HD
ENDBRANCH  11  14
ENDBRANCH   9  10
ENDBRANCH   3   9
BRANCH   6  25
ATOM     25  C   UNL     1      45.169   3.439  11.519  0.00  0.00    +0.000 C 
BRANCH  25  26
ATOM     26  N   UNL     1      44.436   3.329  10.254  0.00  0.00    +0.000 NA
ATOM     27  H   UNL     1      44.784   4.038   9.607  0.00  0.00    +0.000 HD
BRANCH  26  28
ATOM     28  C   UNL     1      44.643   2.041   9.578  0.00  0.00    +0.000 C 
BRANCH  28  29
ATOM     29  C   UNL     1      45.662   2.162   8.456  0.00  0.00    +0.000 A 
ATOM     30  C   UNL     1      45.867   3.389   7.823  0.00  0.00    +0.000 A 
ATOM     31  C   UNL     1      46.813   3.476   6.806  0.00  0.00    +0.000 A 
ATOM     32  C   UNL     1      47.527   2.341   6.444  0.00  0.00    +0.000 A 
ATOM     33  C   UNL     1      47.269   1.162   7.122  0.00  0.00    +0.000 A 
ATOM     34  N   UNL     1      46.357   1.045   8.112  0.00  0.00    +0.000 NA
ENDBRANCH  28  29
ENDBRANCH  26  28
ENDBRANCH  25  26
ENDBRANCH   6  25
TORSDOF 8
ENDMDL
MODEL 7
REMARK VINA RESULT:    -7.221      1.842      2.300
REMARK INTER + INTRA:         -11.415
REMARK INTER:                 -10.481
REMARK INTRA:                  -0.934
REMARK UNBOUND:                -0.816
REMARK  Name = 
REMARK  9 active torsions:
REMARK  status: ('A' for Active; 'I' for Inactive)
REMARK    1  A    between atoms: C_1  and  O_2
REMARK    2  A    between atoms: O_2  and  C_3
REMARK    3  A    between atoms: C_5  and  C_6
REMARK    4  A    between atoms: C_6  and  N_7
REMARK    5  A    between atoms: C_8  and  C_10
REMARK    6  A    between atoms: C_22  and  C_23
REMARK    7  A    between atoms: C_23  and  N_24
REMARK    8  A    between atoms: N_24  and  C_25
REMARK    9  A    between atoms: C_25  and  C_26
REMARK                            x       y       z     vdW  Elec       q    Type
REMARK                         _______ _______ _______ _____ _____    ______ ____
ROOT
ATOM      1  C   UNL     1      45.004   7.580  11.885  0.00  0.00    +0.000 A 
ATOM      2  C   UNL     1      45.932   8.280  12.686  0.00  0.00    +0.000 A 
ATOM      3  C   UNL     1      46.995   7.623  13.331  0.00  0.00    +0.000 A 
ATOM      4  C   UNL     1      47.128   6.244  13.146  0.00  0.00    +0.000 A 
ATOM      5  C   UNL     1      46.245   5.554  12.311  0.00  0.00    +0.000 A 
ATOM      6  C   UNL     1      45.201   6.213  11.631  0.00  0.00    +0.000 A 
ENDROOT
BRANCH   1   8
ATOM      7  C   UNL     1      44.363   9.714  11.045  0.00  0.00    +0.000 C 
ATOM      8  O   UNL     1      44.016   8.356  11.329  0.00  0.00    +0.000 OA
ENDBRANCH   1   8
BRANCH   3   9
ATOM      9  C   UNL     1      47.996   8.370  14.183  0.00  0.00    +0.000 C 
BRANCH   9  10
ATOM     10  N   UNL     1      48.278   7.673  15.417  0.00  0.00    +0.000 N 
ATOM     11  C   UNL     1      48.468   8.349  16.602  0.00  0.00    +0.000 C 
ATOM     12  O   UNL     1      48.360   9.565  16.683  0.00  0.00    +0.000 OA
ATOM     13  H   UNL     1      48.610   6.719  15.333  0.00  0.00    +0.000 HD
BRANCH  11  14
ATOM     14  C   UNL     1      48.752   7.523  17.788  0.00  0.00    +0.000 A 
ATOM     15  C   UNL     1      48.049   7.738  18.967  0.00  0.00    +0.000 A 
ATOM     16  S   UNL     1      48.459   6.655  20.221  0.00  0.00    +0.000 S 
ATOM     17  C   UNL     1      49.634   5.896  19.252  0.00  0.00    +0.000 A 
ATOM     18  N   UNL     1      50.387   4.870  19.738  0.00  0.00    +0.000 NA
ATOM     19  C   UNL     1      51.254   4.405  18.899  0.00  0.00    +0.000 A 
ATOM     20  N   UNL     1      51.437   4.872  17.624  0.00  0.00    +0.000 N 
ATOM     21  C   UNL     1      50.692   5.897  17.089  0.00  0.00    +0.000 A 
ATOM     22  O   UNL     1      50.870   6.281  15.943  0.00  0.00    +0.000 OA
ATOM     23  C   UNL     1      49.700   6.451  17.987  0.00  0.00    +0.000 A 
ATOM     24  H   UNL     1      52.125   4.461  17.010  0.00  0.00    +0.000 HD
ENDBRANCH  11  14
ENDBRANCH   9  10
ENDBRANCH   3   9
BRANCH   6  25
ATOM     25  C   UNL     1      44.414   5.401  10.625  0.00  0.00    +0.000 C 
BRANCH  25  26
ATOM     26  N   UNL     1      45.148   5.049   9.405  0.00  0.00    +0.000 NA
ATOM     27  H   UNL     1      46.091   4.755   9.660  0.00  0.00    +0.000 HD
BRANCH  26  28
ATOM     28  C   UNL     1      44.559   3.910   8.688  0.00  0.00    +0.000 C 
BRANCH  28  29
ATOM     29  C   UNL     1      45.623   3.107   7.955  0.00  0.00    +0.000 A 
ATOM     30  C   UNL     1      45.911   1.800   8.350  0.00  0.00    +0.000 A 
ATOM     31  C   UNL     1      46.882   1.082   7.657  0.00  0.00    +0.000 A 
ATOM     32  C   UNL     1      47.538   1.683   6.591  0.00  0.00    +0.000 A 
ATOM     33  C   UNL     1      47.192   2.981   6.258  0.00  0.00    +0.000 A 
ATOM     34  N   UNL     1      46.256   3.704   6.911  0.00  0.00    +0.000 NA
ENDBRANCH  28  29
ENDBRANCH  26  28
ENDBRANCH  25  26
ENDBRANCH   6  25
TORSDOF 8
ENDMDL
MODEL 8
REMARK VINA RESULT:    -7.101      3.296      9.166
REMARK INTER + INTRA:         -11.238
REMARK INTER:                  -9.319
REMARK INTRA:                  -1.919
REMARK UNBOUND:                -0.816
REMARK  Name = 
REMARK  9 active torsions:
REMARK  status: ('A' for Active; 'I' for Inactive)
REMARK    1  A    between atoms: C_1  and  O_2
REMARK    2  A    between atoms: O_2  and  C_3
REMARK    3  A    between atoms: C_5  and  C_6
REMARK    4  A    between atoms: C_6  and  N_7
REMARK    5  A    between atoms: C_8  and  C_10
REMARK    6  A    between atoms: C_22  and  C_23
REMARK    7  A    between atoms: C_23  and  N_24
REMARK    8  A    between atoms: N_24  and  C_25
REMARK    9  A    between atoms: C_25  and  C_26
REMARK                            x       y       z     vdW  Elec       q    Type
REMARK                         _______ _______ _______ _____ _____    ______ ____
ROOT
ATOM      1  C   UNL     1      48.750   4.874  18.045  0.00  0.00    +0.000 A 
ATOM      2  C   UNL     1      48.779   5.428  16.747  0.00  0.00    +0.000 A 
ATOM      3  C   UNL     1      48.728   6.818  16.536  0.00  0.00    +0.000 A 
ATOM      4  C   UNL     1      48.668   7.653  17.654  0.00  0.00    +0.000 A 
ATOM      5  C   UNL     1      48.695   7.114  18.942  0.00  0.00    +0.000 A 
ATOM      6  C   UNL     1      48.784   5.724  19.162  0.00  0.00    +0.000 A 
ENDROOT
BRANCH   1   8
ATOM      7  C   UNL     1      49.948   2.887  17.508  0.00  0.00    +0.000 C 
ATOM      8  O   UNL     1      48.796   3.502  18.090  0.00  0.00    +0.000 OA
ENDBRANCH   1   8
BRANCH   3   9
ATOM      9  C   UNL     1      48.767   7.417  15.147  0.00  0.00    +0.000 C 
BRANCH   9  10
ATOM     10  N   UNL     1      47.551   7.151  14.414  0.00  0.00    +0.000 N 
ATOM     11  C   UNL     1      47.539   6.335  13.305  0.00  0.00    +0.000 C 
ATOM     12  O   UNL     1      48.542   5.754  12.912  0.00  0.00    +0.000 OA
ATOM     13  H   UNL     1      46.782   7.796  14.561  0.00  0.00    +0.000 HD
BRANCH  11  14
ATOM     14  C   UNL     1      46.236   6.148  12.644  0.00  0.00    +0.000 A 
ATOM     15  C   UNL     1      45.574   7.240  12.096  0.00  0.00    +0.000 A 
ATOM     16  S   UNL     1      44.109   6.837  11.318  0.00  0.00    +0.000 S 
ATOM     17  C   UNL     1      44.277   5.196  11.736  0.00  0.00    +0.000 A 
ATOM     18  N   UNL     1      43.331   4.282  11.382  0.00  0.00    +0.000 NA
ATOM     19  C   UNL     1      43.579   3.079  11.785  0.00  0.00    +0.000 A 
ATOM     20  N   UNL     1      44.682   2.709  12.509  0.00  0.00    +0.000 N 
ATOM     21  C   UNL     1      45.667   3.595  12.877  0.00  0.00    +0.000 A 
ATOM     22  O   UNL     1      46.646   3.230  13.510  0.00  0.00    +0.000 OA
ATOM     23  C   UNL     1      45.441   4.959  12.445  0.00  0.00    +0.000 A 
ATOM     24  H   UNL     1      44.827   1.749  12.788  0.00  0.00    +0.000 HD
ENDBRANCH  11  14
ENDBRANCH   9  10
ENDBRANCH   3   9
BRANCH   6  25
ATOM     25  C   UNL     1      48.976   5.263  20.590  0.00  0.00    +0.000 C 
BRANCH  25  26
ATOM     26  N   UNL     1      50.128   4.382  20.806  0.00  0.00    +0.000 NA
ATOM     27  H   UNL     1      50.208   3.744  20.013  0.00  0.00    +0.000 HD
BRANCH  26  28
ATOM     28  C   UNL     1      51.405   5.106  20.861  0.00  0.00    +0.000 C 
BRANCH  28  29
ATOM     29  C   UNL     1      52.307   4.729  19.697  0.00  0.00    +0.000 A 
ATOM     30  C   UNL     1      52.363   5.540  18.562  0.00  0.00    +0.000 A 
ATOM     31  C   UNL     1      53.205   5.179  17.514  0.00  0.00    +0.000 A 
ATOM     32  C   UNL     1      53.966   4.023  17.621  0.00  0.00    +0.000 A 
ATOM     33  C   UNL     1      53.858   3.275  18.782  0.00  0.00    +0.000 A 
ATOM     34  N   UNL     1      53.050   3.597  19.815  0.00  0.00    +0.000 NA
ENDBRANCH  28  29
ENDBRANCH  26  28
ENDBRANCH  25  26
ENDBRANCH   6  25
TORSDOF 8
ENDMDL
MODEL 9
REMARK VINA RESULT:    -7.052      3.782      9.092
REMARK INTER + INTRA:         -11.166
REMARK INTER:                  -9.227
REMARK INTRA:                  -1.940
REMARK UNBOUND:                -0.816
REMARK  Name = 
REMARK  9 active torsions:
REMARK  status: ('A' for Active; 'I' for Inactive)
REMARK    1  A    between atoms: C_1  and  O_2
REMARK    2  A    between atoms: O_2  and  C_3
REMARK    3  A    between atoms: C_5  and  C_6
REMARK    4  A    between atoms: C_6  and  N_7
REMARK    5  A    between atoms: C_8  and  C_10
REMARK    6  A    between atoms: C_22  and  C_23
REMARK    7  A    between atoms: C_23  and  N_24
REMARK    8  A    between atoms: N_24  and  C_25
REMARK    9  A    between atoms: C_25  and  C_26
REMARK                            x       y       z     vdW  Elec       q    Type
REMARK                         _______ _______ _______ _____ _____    ______ ____
ROOT
ATOM      1  C   UNL     1      50.264   4.738  18.712  0.00  0.00    +0.000 A 
ATOM      2  C   UNL     1      49.525   4.086  17.702  0.00  0.00    +0.000 A 
ATOM      3  C   UNL     1      48.126   4.208  17.613  0.00  0.00    +0.000 A 
ATOM      4  C   UNL     1      47.475   5.017  18.548  0.00  0.00    +0.000 A 
ATOM      5  C   UNL     1      48.206   5.709  19.516  0.00  0.00    +0.000 A 
ATOM      6  C   UNL     1      49.611   5.622  19.587  0.00  0.00    +0.000 A 
ENDROOT
BRANCH   1   8
ATOM      7  C   UNL     1      52.047   3.325  18.007  0.00  0.00    +0.000 C 
ATOM      8  O   UNL     1      51.619   4.515  18.674  0.00  0.00    +0.000 OA
ENDBRANCH   1   8
BRANCH   3   9
ATOM      9  C   UNL     1      47.331   3.517  16.529  0.00  0.00    +0.000 C 
BRANCH   9  10
ATOM     10  N   UNL     1      46.738   4.462  15.611  0.00  0.00    +0.000 N 
ATOM     11  C   UNL     1      46.700   4.228  14.255  0.00  0.00    +0.000 C 
ATOM     12  O   UNL     1      47.120   3.189  13.761  0.00  0.00    +0.000 OA
ATOM     13  H   UNL     1      46.614   5.409  15.953  0.00  0.00    +0.000 HD
BRANCH  11  14
ATOM     14  C   UNL     1      46.071   5.271  13.428  0.00  0.00    +0.000 A 
ATOM     15  C   UNL     1      46.745   6.462  13.185  0.00  0.00    +0.000 A 
ATOM     16  S   UNL     1      45.900   7.534  12.160  0.00  0.00    +0.000 S 
ATOM     17  C   UNL     1      44.576   6.470  12.050  0.00  0.00    +0.000 A 
ATOM     18  N   UNL     1      43.473   6.796  11.321  0.00  0.00    +0.000 NA
ATOM     19  C   UNL     1      42.539   5.903  11.346  0.00  0.00    +0.000 A 
ATOM     20  N   UNL     1      42.606   4.719  12.033  0.00  0.00    +0.000 N 
ATOM     21  C   UNL     1      43.704   4.345  12.771  0.00  0.00    +0.000 A 
ATOM     22  O   UNL     1      43.739   3.275  13.361  0.00  0.00    +0.000 OA
ATOM     23  C   UNL     1      44.785   5.309  12.773  0.00  0.00    +0.000 A 
ATOM     24  H   UNL     1      41.846   4.055  12.006  0.00  0.00    +0.000 HD
ENDBRANCH  11  14
ENDBRANCH   9  10
ENDBRANCH   3   9
BRANCH   6  25
ATOM     25  C   UNL     1      50.311   6.543  20.563  0.00  0.00    +0.000 C 
BRANCH  25  26
ATOM     26  N   UNL     1      51.249   7.492  19.954  0.00  0.00    +0.000 NA
ATOM     27  H   UNL     1      51.843   6.990  19.293  0.00  0.00    +0.000 HD
BRANCH  26  28
ATOM     28  C   UNL     1      50.581   8.538  19.169  0.00  0.00    +0.000 C 
BRANCH  28  29
ATOM     29  C   UNL     1      50.384   8.107  17.724  0.00  0.00    +0.000 A 
ATOM     30  C   UNL     1      49.147   8.281  17.102  0.00  0.00    +0.000 A 
ATOM     31  C   UNL     1      48.996   7.888  15.775  0.00  0.00    +0.000 A 
ATOM     32  C   UNL     1      50.077   7.333  15.104  0.00  0.00    +0.000 A 
ATOM     33  C   UNL     1      51.273   7.198  15.789  0.00  0.00    +0.000 A 
ATOM     34  N   UNL     1      51.451   7.568  17.076  0.00  0.00    +0.000 NA
ENDBRANCH  28  29
ENDBRANCH  26  28
ENDBRANCH  25  26
ENDBRANCH   6  25
TORSDOF 8
ENDMDL
