MODEL 1
REMARK VINA RESULT:    -7.855      0.000      0.000
REMARK INTER + INTRA:         -11.206
REMARK INTER:                 -10.610
REMARK INTRA:                  -0.596
REMARK UNBOUND:                -0.596
REMARK  Name = 
REMARK  7 active torsions:
REMARK  status: ('A' for Active; 'I' for Inactive)
REMARK    1  A    between atoms: N_1  and  C_2
REMARK    2  A    between atoms: C_2  and  C_3
REMARK    3  A    between atoms: C_6  and  C_7
REMARK    4  A    between atoms: C_7  and  N_8
REMARK    5  A    between atoms: N_8  and  C_9
REMARK    6  A    between atoms: CA_12  and  C_13
REMARK    7  A    between atoms: C_13  and  OXT_15
REMARK                            x       y       z     vdW  Elec       q    Type
REMARK                         _______ _______ _______ _____ _____    ______ ____
ROOT
ATOM      1  N   UNL     1      43.730   4.743   9.691  0.00  0.00    +0.000 N 
ATOM      2  H   UNL     1      43.911   5.715   9.453  0.00  0.00    +0.000 HD
ENDROOT
BRANCH   1   3
ATOM      3  C   UNL     1      44.586   3.850   9.029  0.00  0.00    +0.000 A 
ATOM      4  C   UNL     1      45.551   4.260   8.101  0.00  0.00    +0.000 A 
ATOM      5  C   UNL     1      46.424   3.340   7.517  0.00  0.00    +0.000 A 
ATOM      6  CA  UNL     1      46.325   2.017   7.904  0.00  0.00    +0.000 A 
ATOM      7  N   UNL     1      45.444   1.554   8.835  0.00  0.00    +0.000 NA
ATOM      8  C   UNL     1      44.621   2.492   9.379  0.00  0.00    +0.000 A 
BRANCH   6   9
ATOM      9  C   UNL     1      47.228   0.992   7.298  0.00  0.00    +0.000 C 
ATOM     10  O   UNL     1      48.109   1.226   6.491  0.00  0.00    +0.000 OA
BRANCH   9  11
ATOM     11  OXT UNL     1      46.922  -0.243   7.766  0.00  0.00    +0.000 OA
ATOM     12  HXT UNL     1      47.654  -0.543   8.356  0.00  0.00    +0.000 HD
ENDBRANCH   9  11
ENDBRANCH   6   9
ENDBRANCH   1   3
BRANCH   1  13
ATOM     13  C   UNL     1      43.559   4.568  11.133  0.00  0.00    +0.000 C 
BRANCH  13  17
ATOM     14  C   UNL     1      47.049   6.132  13.177  0.00  0.00    +0.000 A 
ATOM     15  C   UNL     1      46.440   4.944  13.609  0.00  0.00    +0.000 A 
ATOM     16  C   UNL     1      45.287   4.462  12.982  0.00  0.00    +0.000 A 
ATOM     17  C   UNL     1      44.716   5.157  11.908  0.00  0.00    +0.000 A 
ATOM     18  C   UNL     1      45.304   6.362  11.498  0.00  0.00    +0.000 A 
ATOM     19  C   UNL     1      46.459   6.843  12.125  0.00  0.00    +0.000 A 
BRANCH  14  20
ATOM     20  C   UNL     1      48.315   6.629  13.829  0.00  0.00    +0.000 C 
BRANCH  20  21
ATOM     21  N   UNL     1      49.430   6.658  12.889  0.00  0.00    +0.000 NA
ATOM     22  H   UNL     1      49.190   6.107  12.069  0.00  0.00    +0.000 HD
ATOM     23  H   UNL     1      50.234   6.203  13.319  0.00  0.00    +0.000 HD
ENDBRANCH  20  21
ENDBRANCH  14  20
ENDBRANCH  13  17
ENDBRANCH   1  13
TORSDOF 7
ENDMDL
MODEL 2
REMARK VINA RESULT:    -7.842      3.417      6.295
REMARK INTER + INTRA:         -11.189
REMARK INTER:                 -10.635
REMARK INTRA:                  -0.554
REMARK UNBOUND:                -0.596
REMARK  Name = 
REMARK  7 active torsions:
REMARK  status: ('A' for Active; 'I' for Inactive)
REMARK    1  A    between atoms: N_1  and  C_2
REMARK    2  A    between atoms: C_2  and  C_3
REMARK    3  A    between atoms: C_6  and  C_7
REMARK    4  A    between atoms: C_7  and  N_8
REMARK    5  A    between atoms: N_8  and  C_9
REMARK    6  A    between atoms: CA_12  and  C_13
REMARK    7  A    between atoms: C_13  and  OXT_15
REMARK                            x       y       z     vdW  Elec       q    Type
REMARK                         _______ _______ _______ _____ _____    ______ ____
ROOT
ATOM      1  N   UNL     1      44.459   5.549  10.425  0.00  0.00    +0.000 N 
ATOM      2  H   UNL     1      43.808   6.317  10.568  0.00  0.00    +0.000 HD
ENDROOT
BRANCH   1   3
ATOM      3  C   UNL     1      45.229   5.266  11.564  0.00  0.00    +0.000 A 
ATOM      4  C   UNL     1      46.378   5.987  11.911  0.00  0.00    +0.000 A 
ATOM      5  C   UNL     1      47.073   5.710  13.089  0.00  0.00    +0.000 A 
ATOM      6  CA  UNL     1      46.575   4.720  13.917  0.00  0.00    +0.000 A 
ATOM      7  N   UNL     1      45.439   4.011  13.667  0.00  0.00    +0.000 NA
ATOM      8  C   UNL     1      44.796   4.325  12.509  0.00  0.00    +0.000 A 
BRANCH   6   9
ATOM      9  C   UNL     1      47.291   4.377  15.183  0.00  0.00    +0.000 C 
ATOM     10  O   UNL     1      47.601   3.252  15.529  0.00  0.00    +0.000 OA
BRANCH   9  11
ATOM     11  OXT UNL     1      47.541   5.498  15.903  0.00  0.00    +0.000 OA
ATOM     12  HXT UNL     1      47.102   6.261  15.455  0.00  0.00    +0.000 HD
ENDBRANCH   9  11
ENDBRANCH   6   9
ENDBRANCH   1   3
BRANCH   1  13
ATOM     13  C   UNL     1      43.817   4.422   9.749  0.00  0.00    +0.000 C 
BRANCH  13  17
ATOM     14  C   UNL     1      46.824   2.203   7.549  0.00  0.00    +0.000 A 
ATOM     15  C   UNL     1      46.673   3.585   7.359  0.00  0.00    +0.000 A 
ATOM     16  C   UNL     1      45.674   4.295   8.031  0.00  0.00    +0.000 A 
ATOM     17  C   UNL     1      44.801   3.640   8.910  0.00  0.00    +0.000 A 
ATOM     18  C   UNL     1      44.929   2.253   9.074  0.00  0.00    +0.000 A 
ATOM     19  C   UNL     1      45.930   1.544   8.402  0.00  0.00    +0.000 A 
BRANCH  14  20
ATOM     20  C   UNL     1      47.927   1.446   6.853  0.00  0.00    +0.000 C 
BRANCH  20  21
ATOM     21  N   UNL     1      48.336   2.106   5.617  0.00  0.00    +0.000 NA
ATOM     22  H   UNL     1      49.093   2.754   5.819  0.00  0.00    +0.000 HD
ATOM     23  H   UNL     1      47.559   2.667   5.271  0.00  0.00    +0.000 HD
ENDBRANCH  20  21
ENDBRANCH  14  20
ENDBRANCH  13  17
ENDBRANCH   1  13
TORSDOF 7
ENDMDL
MODEL 3
REMARK VINA RESULT:    -7.828      3.429      6.250
REMARK INTER + INTRA:         -11.170
REMARK INTER:                 -10.665
REMARK INTRA:                  -0.505
REMARK UNBOUND:                -0.596
REMARK  Name = 
REMARK  7 active torsions:
REMARK  status: ('A' for Active; 'I' for Inactive)
REMARK    1  A    between atoms: N_1  and  C_2
REMARK    2  A    between atoms: C_2  and  C_3
REMARK    3  A    between atoms: C_6  and  C_7
REMARK    4  A    between atoms: C_7  and  N_8
REMARK    5  A    between atoms: N_8  and  C_9
REMARK    6  A    between atoms: CA_12  and  C_13
REMARK    7  A    between atoms: C_13  and  OXT_15
REMARK                            x       y       z     vdW  Elec       q    Type
REMARK                         _______ _______ _______ _____ _____    ______ ____
ROOT
ATOM      1  N   UNL     1      44.637   5.716  10.523  0.00  0.00    +0.000 N 
ATOM      2  H   UNL     1      44.017   6.508  10.679  0.00  0.00    +0.000 HD
ENDROOT
BRANCH   1   3
ATOM      3  C   UNL     1      45.355   5.350  11.673  0.00  0.00    +0.000 A 
ATOM      4  C   UNL     1      46.507   6.019  12.102  0.00  0.00    +0.000 A 
ATOM      5  C   UNL     1      47.149   5.659  13.287  0.00  0.00    +0.000 A 
ATOM      6  CA  UNL     1      46.595   4.639  14.040  0.00  0.00    +0.000 A 
ATOM      7  N   UNL     1      45.451   3.977  13.709  0.00  0.00    +0.000 NA
ATOM      8  C   UNL     1      44.861   4.371  12.548  0.00  0.00    +0.000 A 
BRANCH   6   9
ATOM      9  C   UNL     1      47.252   4.208  15.310  0.00  0.00    +0.000 C 
ATOM     10  O   UNL     1      47.740   3.110  15.508  0.00  0.00    +0.000 OA
BRANCH   9  11
ATOM     11  OXT UNL     1      47.222   5.211  16.222  0.00  0.00    +0.000 OA
ATOM     12  HXT UNL     1      47.863   4.999  16.942  0.00  0.00    +0.000 HD
ENDBRANCH   9  11
ENDBRANCH   6   9
ENDBRANCH   1   3
BRANCH   1  13
ATOM     13  C   UNL     1      43.967   4.650   9.779  0.00  0.00    +0.000 C 
BRANCH  13  17
ATOM     14  C   UNL     1      46.613   2.109   7.468  0.00  0.00    +0.000 A 
ATOM     15  C   UNL     1      45.821   1.572   8.493  0.00  0.00    +0.000 A 
ATOM     16  C   UNL     1      45.002   2.395   9.272  0.00  0.00    +0.000 A 
ATOM     17  C   UNL     1      44.957   3.777   9.043  0.00  0.00    +0.000 A 
ATOM     18  C   UNL     1      45.774   4.319   8.041  0.00  0.00    +0.000 A 
ATOM     19  C   UNL     1      46.593   3.494   7.262  0.00  0.00    +0.000 A 
BRANCH  14  20
ATOM     20  C   UNL     1      47.467   1.214   6.604  0.00  0.00    +0.000 C 
BRANCH  20  21
ATOM     21  N   UNL     1      48.529   1.961   5.939  0.00  0.00    +0.000 NA
ATOM     22  H   UNL     1      49.207   1.308   5.554  0.00  0.00    +0.000 HD
ATOM     23  H   UNL     1      49.024   2.517   6.633  0.00  0.00    +0.000 HD
ENDBRANCH  20  21
ENDBRANCH  14  20
ENDBRANCH  13  17
ENDBRANCH   1  13
TORSDOF 7
ENDMDL
MODEL 4
REMARK VINA RESULT:    -6.746      3.596      6.616
REMARK INTER + INTRA:          -9.708
REMARK INTER:                  -9.272
REMARK INTRA:                  -0.436
REMARK UNBOUND:                -0.596
REMARK  Name = 
REMARK  7 active torsions:
REMARK  status: ('A' for Active; 'I' for Inactive)
REMARK    1  A    between atoms: N_1  and  C_2
REMARK    2  A    between atoms: C_2  and  C_3
REMARK    3  A    between atoms: C_6  and  C_7
REMARK    4  A    between atoms: C_7  and  N_8
REMARK    5  A    between atoms: N_8  and  C_9
REMARK    6  A    between atoms: CA_12  and  C_13
REMARK    7  A    between atoms: C_13  and  OXT_15
REMARK                            x       y       z     vdW  Elec       q    Type
REMARK                         _______ _______ _______ _____ _____    ______ ____
ROOT
ATOM      1  N   UNL     1      44.652   3.619  11.772  0.00  0.00    +0.000 N 
ATOM      2  H   UNL     1      44.950   2.647  11.729  0.00  0.00    +0.000 HD
ENDROOT
BRANCH   1   3
ATOM      3  C   UNL     1      45.577   4.445  12.429  0.00  0.00    +0.000 A 
ATOM      4  C   UNL     1      46.295   4.042  13.562  0.00  0.00    +0.000 A 
ATOM      5  C   UNL     1      47.252   4.876  14.141  0.00  0.00    +0.000 A 
ATOM      6  CA  UNL     1      47.490   6.101  13.546  0.00  0.00    +0.000 A 
ATOM      7  N   UNL     1      46.864   6.539  12.417  0.00  0.00    +0.000 NA
ATOM      8  C   UNL     1      45.946   5.685  11.888  0.00  0.00    +0.000 A 
BRANCH   6   9
ATOM      9  C   UNL     1      48.496   7.035  14.136  0.00  0.00    +0.000 C 
ATOM     10  O   UNL     1      49.466   6.697  14.789  0.00  0.00    +0.000 OA
BRANCH   9  11
ATOM     11  OXT UNL     1      48.171   8.320  13.852  0.00  0.00    +0.000 OA
ATOM     12  HXT UNL     1      47.907   8.768  14.690  0.00  0.00    +0.000 HD
ENDBRANCH   9  11
ENDBRANCH   6   9
ENDBRANCH   1   3
BRANCH   1  13
ATOM     13  C   UNL     1      44.137   4.078  10.483  0.00  0.00    +0.000 C 
BRANCH  13  17
ATOM     14  C   UNL     1      46.579   2.380   7.327  0.00  0.00    +0.000 A 
ATOM     15  C   UNL     1      46.312   3.757   7.363  0.00  0.00    +0.000 A 
ATOM     16  C   UNL     1      45.486   4.301   8.351  0.00  0.00    +0.000 A 
ATOM     17  C   UNL     1      44.908   3.480   9.328  0.00  0.00    +0.000 A 
ATOM     18  C   UNL     1      45.146   2.100   9.273  0.00  0.00    +0.000 A 
ATOM     19  C   UNL     1      45.973   1.556   8.284  0.00  0.00    +0.000 A 
BRANCH  14  20
ATOM     20  C   UNL     1      47.501   1.801   6.283  0.00  0.00    +0.000 C 
BRANCH  20  21
ATOM     21  N   UNL     1      48.791   2.482   6.267  0.00  0.00    +0.000 NA
ATOM     22  H   UNL     1      49.455   1.928   5.731  0.00  0.00    +0.000 HD
ATOM     23  H   UNL     1      49.153   2.525   7.219  0.00  0.00    +0.000 HD
ENDBRANCH  20  21
ENDBRANCH  14  20
ENDBRANCH  13  17
ENDBRANCH   1  13
TORSDOF 7
ENDMDL
MODEL 5
REMARK VINA RESULT:    -6.101      4.468      6.217
REMARK INTER + INTRA:          -8.837
REMARK INTER:                  -8.517
REMARK INTRA:                  -0.320
REMARK UNBOUND:                -0.596
REMARK  Name = 
REMARK  7 active torsions:
REMARK  status: ('A' for Active; 'I' for Inactive)
REMARK    1  A    between atoms: N_1  and  C_2
REMARK    2  A    between atoms: C_2  and  C_3
REMARK    3  A    between atoms: C_6  and  C_7
REMARK    4  A    between atoms: C_7  and  N_8
REMARK    5  A    between atoms: N_8  and  C_9
REMARK    6  A    between atoms: CA_12  and  C_13
REMARK    7  A    between atoms: C_13  and  OXT_15
REMARK                            x       y       z     vdW  Elec       q    Type
REMARK                         _______ _______ _______ _____ _____    ______ ____
ROOT
ATOM      1  N   UNL     1      47.560   5.412  15.159  0.00  0.00    +0.000 N 
ATOM      2  H   UNL     1      48.531   5.413  14.855  0.00  0.00    +0.000 HD
ENDROOT
BRANCH   1   3
ATOM      3  C   UNL     1      46.684   4.908  14.185  0.00  0.00    +0.000 A 
ATOM      4  C   UNL     1      45.844   5.721  13.415  0.00  0.00    +0.000 A 
ATOM      5  C   UNL     1      45.039   5.179  12.413  0.00  0.00    +0.000 A 
ATOM      6  CA  UNL     1      45.116   3.817  12.184  0.00  0.00    +0.000 A 
ATOM      7  N   UNL     1      45.944   2.973  12.862  0.00  0.00    +0.000 NA
ATOM      8  C   UNL     1      46.713   3.553  13.823  0.00  0.00    +0.000 A 
BRANCH   6   9
ATOM      9  C   UNL     1      44.264   3.187  11.131  0.00  0.00    +0.000 C 
ATOM     10  O   UNL     1      43.054   3.296  11.053  0.00  0.00    +0.000 OA
BRANCH   9  11
ATOM     11  OXT UNL     1      45.028   2.465  10.276  0.00  0.00    +0.000 OA
ATOM     12  HXT UNL     1      44.721   2.644   9.355  0.00  0.00    +0.000 HD
ENDBRANCH   9  11
ENDBRANCH   6   9
ENDBRANCH   1   3
BRANCH   1  13
ATOM     13  C   UNL     1      47.425   4.892  16.519  0.00  0.00    +0.000 C 
BRANCH  13  17
ATOM     14  C   UNL     1      50.897   2.436  17.365  0.00  0.00    +0.000 A 
ATOM     15  C   UNL     1      49.699   1.854  16.926  0.00  0.00    +0.000 A 
ATOM     16  C   UNL     1      48.564   2.637  16.698  0.00  0.00    +0.000 A 
ATOM     17  C   UNL     1      48.600   4.022  16.903  0.00  0.00    +0.000 A 
ATOM     18  C   UNL     1      49.787   4.600  17.375  0.00  0.00    +0.000 A 
ATOM     19  C   UNL     1      50.923   3.816  17.602  0.00  0.00    +0.000 A 
BRANCH  14  20
ATOM     20  C   UNL     1      52.131   1.595  17.574  0.00  0.00    +0.000 C 
BRANCH  20  21
ATOM     21  N   UNL     1      51.799   0.269  18.085  0.00  0.00    +0.000 NA
ATOM     22  H   UNL     1      50.976   0.336  18.678  0.00  0.00    +0.000 HD
ATOM     23  H   UNL     1      52.560  -0.053  18.682  0.00  0.00    +0.000 HD
ENDBRANCH  20  21
ENDBRANCH  14  20
ENDBRANCH  13  17
ENDBRANCH   1  13
TORSDOF 7
ENDMDL
MODEL 6
REMARK VINA RESULT:    -5.937      4.158      6.804
REMARK INTER + INTRA:          -8.615
REMARK INTER:                  -8.237
REMARK INTRA:                  -0.378
REMARK UNBOUND:                -0.596
REMARK  Name = 
REMARK  7 active torsions:
REMARK  status: ('A' for Active; 'I' for Inactive)
REMARK    1  A    between atoms: N_1  and  C_2
REMARK    2  A    between atoms: C_2  and  C_3
REMARK    3  A    between atoms: C_6  and  C_7
REMARK    4  A    between atoms: C_7  and  N_8
REMARK    5  A    between atoms: N_8  and  C_9
REMARK    6  A    between atoms: CA_12  and  C_13
REMARK    7  A    between atoms: C_13  and  OXT_15
REMARK                            x       y       z     vdW  Elec       q    Type
REMARK                         _______ _______ _______ _____ _____    ______ ____
ROOT
ATOM      1  N   UNL     1      46.031   5.692  13.513  0.00  0.00    +0.000 N 
ATOM      2  H   UNL     1      45.825   6.632  13.843  0.00  0.00    +0.000 HD
ENDROOT
BRANCH   1   3
ATOM      3  C   UNL     1      46.864   4.976  14.387  0.00  0.00    +0.000 A 
ATOM      4  C   UNL     1      47.402   5.527  15.556  0.00  0.00    +0.000 A 
ATOM      5  C   UNL     1      48.172   4.755  16.427  0.00  0.00    +0.000 A 
ATOM      6  CA  UNL     1      48.363   3.422  16.114  0.00  0.00    +0.000 A 
ATOM      7  N   UNL     1      47.831   2.807  15.020  0.00  0.00    +0.000 NA
ATOM      8  C   UNL     1      47.083   3.602  14.208  0.00  0.00    +0.000 A 
BRANCH   6   9
ATOM      9  C   UNL     1      49.190   2.557  17.008  0.00  0.00    +0.000 C 
ATOM     10  O   UNL     1      49.919   1.657  16.633  0.00  0.00    +0.000 OA
BRANCH   9  11
ATOM     11  OXT UNL     1      49.009   2.908  18.305  0.00  0.00    +0.000 OA
ATOM     12  HXT UNL     1      49.893   2.964  18.740  0.00  0.00    +0.000 HD
ENDBRANCH   9  11
ENDBRANCH   6   9
ENDBRANCH   1   3
BRANCH   1  13
ATOM     13  C   UNL     1      44.825   5.019  13.029  0.00  0.00    +0.000 C 
BRANCH  13  17
ATOM     14  C   UNL     1      45.392   3.888   8.882  0.00  0.00    +0.000 A 
ATOM     15  C   UNL     1      45.714   5.180   9.321  0.00  0.00    +0.000 A 
ATOM     16  C   UNL     1      45.489   5.564  10.646  0.00  0.00    +0.000 A 
ATOM     17  C   UNL     1      44.935   4.662  11.565  0.00  0.00    +0.000 A 
ATOM     18  C   UNL     1      44.580   3.381  11.118  0.00  0.00    +0.000 A 
ATOM     19  C   UNL     1      44.807   2.998   9.792  0.00  0.00    +0.000 A 
BRANCH  14  20
ATOM     20  C   UNL     1      45.672   3.465   7.462  0.00  0.00    +0.000 C 
BRANCH  20  21
ATOM     21  N   UNL     1      46.812   4.181   6.901  0.00  0.00    +0.000 NA
ATOM     22  H   UNL     1      46.494   5.066   6.514  0.00  0.00    +0.000 HD
ATOM     23  H   UNL     1      47.188   3.643   6.122  0.00  0.00    +0.000 HD
ENDBRANCH  20  21
ENDBRANCH  14  20
ENDBRANCH  13  17
ENDBRANCH   1  13
TORSDOF 7
ENDMDL
MODEL 7
REMARK VINA RESULT:    -5.613      4.185      7.082
REMARK INTER + INTRA:          -8.178
REMARK INTER:                  -7.802
REMARK INTRA:                  -0.376
REMARK UNBOUND:                -0.596
REMARK  Name = 
REMARK  7 active torsions:
REMARK  status: ('A' for Active; 'I' for Inactive)
REMARK    1  A    between atoms: N_1  and  C_2
REMARK    2  A    between atoms: C_2  and  C_3
REMARK    3  A    between atoms: C_6  and  C_7
REMARK    4  A    between atoms: C_7  and  N_8
REMARK    5  A    between atoms: N_8  and  C_9
REMARK    6  A    between atoms: CA_12  and  C_13
REMARK    7  A    between atoms: C_13  and  OXT_15
REMARK                            x       y       z     vdW  Elec       q    Type
REMARK                         _______ _______ _______ _____ _____    ______ ____
ROOT
ATOM      1  N   UNL     1      45.533   3.687  13.314  0.00  0.00    +0.000 N 
ATOM      2  H   UNL     1      45.945   2.908  12.805  0.00  0.00    +0.000 HD
ENDROOT
BRANCH   1   3
ATOM      3  C   UNL     1      46.480   4.432  14.034  0.00  0.00    +0.000 A 
ATOM      4  C   UNL     1      46.901   4.093  15.325  0.00  0.00    +0.000 A 
ATOM      5  C   UNL     1      47.894   4.828  15.974  0.00  0.00    +0.000 A 
ATOM      6  CA  UNL     1      48.470   5.883  15.291  0.00  0.00    +0.000 A 
ATOM      7  N   UNL     1      48.145   6.240  14.017  0.00  0.00    +0.000 NA
ATOM      8  C   UNL     1      47.177   5.488  13.427  0.00  0.00    +0.000 A 
BRANCH   6   9
ATOM      9  C   UNL     1      49.529   6.708  15.948  0.00  0.00    +0.000 C 
ATOM     10  O   UNL     1      50.634   6.307  16.263  0.00  0.00    +0.000 OA
BRANCH   9  11
ATOM     11  OXT UNL     1      49.081   7.971  16.156  0.00  0.00    +0.000 OA
ATOM     12  HXT UNL     1      48.982   8.112  17.127  0.00  0.00    +0.000 HD
ENDBRANCH   9  11
ENDBRANCH   6   9
ENDBRANCH   1   3
BRANCH   1  13
ATOM     13  C   UNL     1      44.584   4.427  12.483  0.00  0.00    +0.000 C 
BRANCH  13  17
ATOM     14  C   UNL     1      45.463   3.563   8.326  0.00  0.00    +0.000 A 
ATOM     15  C   UNL     1      45.662   4.850   8.846  0.00  0.00    +0.000 A 
ATOM     16  C   UNL     1      45.335   5.145  10.173  0.00  0.00    +0.000 A 
ATOM     17  C   UNL     1      44.801   4.158  11.012  0.00  0.00    +0.000 A 
ATOM     18  C   UNL     1      44.570   2.880  10.483  0.00  0.00    +0.000 A 
ATOM     19  C   UNL     1      44.898   2.586   9.155  0.00  0.00    +0.000 A 
BRANCH  14  20
ATOM     20  C   UNL     1      45.852   3.238   6.906  0.00  0.00    +0.000 C 
BRANCH  20  21
ATOM     21  N   UNL     1      47.024   3.996   6.481  0.00  0.00    +0.000 NA
ATOM     22  H   UNL     1      47.588   4.224   7.297  0.00  0.00    +0.000 HD
ATOM     23  H   UNL     1      46.717   4.882   6.085  0.00  0.00    +0.000 HD
ENDBRANCH  20  21
ENDBRANCH  14  20
ENDBRANCH  13  17
ENDBRANCH   1  13
TORSDOF 7
ENDMDL
MODEL 8
REMARK VINA RESULT:    -5.407      3.874      5.555
REMARK INTER + INTRA:          -7.899
REMARK INTER:                  -7.560
REMARK INTRA:                  -0.340
REMARK UNBOUND:                -0.596
REMARK  Name = 
REMARK  7 active torsions:
REMARK  status: ('A' for Active; 'I' for Inactive)
REMARK    1  A    between atoms: N_1  and  C_2
REMARK    2  A    between atoms: C_2  and  C_3
REMARK    3  A    between atoms: C_6  and  C_7
REMARK    4  A    between atoms: C_7  and  N_8
REMARK    5  A    between atoms: N_8  and  C_9
REMARK    6  A    between atoms: CA_12  and  C_13
REMARK    7  A    between atoms: C_13  and  OXT_15
REMARK                            x       y       z     vdW  Elec       q    Type
REMARK                         _______ _______ _______ _____ _____    ______ ____
ROOT
ATOM      1  N   UNL     1      46.992   6.733  14.069  0.00  0.00    +0.000 N 
ATOM      2  H   UNL     1      47.015   7.705  13.768  0.00  0.00    +0.000 HD
ENDROOT
BRANCH   1   3
ATOM      3  C   UNL     1      46.239   5.913  13.215  0.00  0.00    +0.000 A 
ATOM      4  C   UNL     1      46.033   6.203  11.860  0.00  0.00    +0.000 A 
ATOM      5  C   UNL     1      45.332   5.323  11.035  0.00  0.00    +0.000 A 
ATOM      6  CA  UNL     1      44.871   4.143  11.590  0.00  0.00    +0.000 A 
ATOM      7  N   UNL     1      45.074   3.774  12.886  0.00  0.00    +0.000 NA
ATOM      8  C   UNL     1      45.770   4.664  13.645  0.00  0.00    +0.000 A 
BRANCH   6   9
ATOM      9  C   UNL     1      44.102   3.174  10.751  0.00  0.00    +0.000 C 
ATOM     10  O   UNL     1      44.526   2.625   9.751  0.00  0.00    +0.000 OA
BRANCH   9  11
ATOM     11  OXT UNL     1      42.856   2.998  11.255  0.00  0.00    +0.000 OA
ATOM     12  HXT UNL     1      42.306   3.778  11.007  0.00  0.00    +0.000 HD
ENDBRANCH   9  11
ENDBRANCH   6   9
ENDBRANCH   1   3
BRANCH   1  13
ATOM     13  C   UNL     1      48.322   6.262  14.456  0.00  0.00    +0.000 C 
BRANCH  13  17
ATOM     14  C   UNL     1      48.767   5.177  18.630  0.00  0.00    +0.000 A 
ATOM     15  C   UNL     1      48.295   4.244  17.695  0.00  0.00    +0.000 A 
ATOM     16  C   UNL     1      48.105   4.604  16.358  0.00  0.00    +0.000 A 
ATOM     17  C   UNL     1      48.383   5.907  15.924  0.00  0.00    +0.000 A 
ATOM     18  C   UNL     1      48.822   6.849  16.865  0.00  0.00    +0.000 A 
ATOM     19  C   UNL     1      49.012   6.487  18.203  0.00  0.00    +0.000 A 
BRANCH  14  20
ATOM     20  C   UNL     1      49.007   4.776  20.064  0.00  0.00    +0.000 C 
BRANCH  20  21
ATOM     21  N   UNL     1      48.348   3.516  20.389  0.00  0.00    +0.000 NA
ATOM     22  H   UNL     1      47.656   3.677  21.117  0.00  0.00    +0.000 HD
ATOM     23  H   UNL     1      49.037   2.875  20.781  0.00  0.00    +0.000 HD
ENDBRANCH  20  21
ENDBRANCH  14  20
ENDBRANCH  13  17
ENDBRANCH   1  13
TORSDOF 7
ENDMDL
MODEL 9
REMARK VINA RESULT:    -5.308      3.303      4.986
REMARK INTER + INTRA:          -7.766
REMARK INTER:                  -7.377
REMARK INTRA:                  -0.389
REMARK UNBOUND:                -0.596
REMARK  Name = 
REMARK  7 active torsions:
REMARK  status: ('A' for Active; 'I' for Inactive)
REMARK    1  A    between atoms: N_1  and  C_2
REMARK    2  A    between atoms: C_2  and  C_3
REMARK    3  A    between atoms: C_6  and  C_7
REMARK    4  A    between atoms: C_7  and  N_8
REMARK    5  A    between atoms: N_8  and  C_9
REMARK    6  A    between atoms: CA_12  and  C_13
REMARK    7  A    between atoms: C_13  and  OXT_15
REMARK                            x       y       z     vdW  Elec       q    Type
REMARK                         _______ _______ _______ _____ _____    ______ ____
ROOT
ATOM      1  N   UNL     1      46.764   6.762  13.627  0.00  0.00    +0.000 N 
ATOM      2  H   UNL     1      46.603   6.714  14.631  0.00  0.00    +0.000 HD
ENDROOT
BRANCH   1   3
ATOM      3  C   UNL     1      46.001   5.831  12.907  0.00  0.00    +0.000 A 
ATOM      4  C   UNL     1      45.651   6.003  11.562  0.00  0.00    +0.000 A 
ATOM      5  C   UNL     1      44.946   5.017  10.870  0.00  0.00    +0.000 A 
ATOM      6  CA  UNL     1      44.629   3.853  11.545  0.00  0.00    +0.000 A 
ATOM      7  N   UNL     1      44.978   3.597  12.837  0.00  0.00    +0.000 NA
ATOM      8  C   UNL     1      45.670   4.587  13.464  0.00  0.00    +0.000 A 
BRANCH   6   9
ATOM      9  C   UNL     1      43.864   2.773  10.851  0.00  0.00    +0.000 C 
ATOM     10  O   UNL     1      43.995   2.464   9.682  0.00  0.00    +0.000 OA
BRANCH   9  11
ATOM     11  OXT UNL     1      42.991   2.188  11.708  0.00  0.00    +0.000 OA
ATOM     12  HXT UNL     1      42.946   2.734  12.529  0.00  0.00    +0.000 HD
ENDBRANCH   9  11
ENDBRANCH   6   9
ENDBRANCH   1   3
BRANCH   1  13
ATOM     13  C   UNL     1      46.764   8.145  13.151  0.00  0.00    +0.000 C 
BRANCH  13  17
ATOM     14  C   UNL     1      50.528   9.158  11.250  0.00  0.00    +0.000 A 
ATOM     15  C   UNL     1      49.514  10.118  11.387  0.00  0.00    +0.000 A 
ATOM     16  C   UNL     1      48.282   9.783  11.957  0.00  0.00    +0.000 A 
ATOM     17  C   UNL     1      48.034   8.479  12.403  0.00  0.00    +0.000 A 
ATOM     18  C   UNL     1      49.034   7.509  12.234  0.00  0.00    +0.000 A 
ATOM     19  C   UNL     1      50.267   7.846  11.665  0.00  0.00    +0.000 A 
BRANCH  14  20
ATOM     20  C   UNL     1      51.869   9.531  10.671  0.00  0.00    +0.000 C 
BRANCH  20  21
ATOM     21  N   UNL     1      52.967   9.073  11.516  0.00  0.00    +0.000 NA
ATOM     22  H   UNL     1      53.508   9.877  11.826  0.00  0.00    +0.000 HD
ATOM     23  H   UNL     1      53.596   8.500  10.956  0.00  0.00    +0.000 HD
ENDBRANCH  20  21
ENDBRANCH  14  20
ENDBRANCH  13  17
ENDBRANCH   1  13
TORSDOF 7
ENDMDL
