MODEL 1
REMARK VINA RESULT:    -8.274      0.000      0.000
REMARK INTER + INTRA:         -11.742
REMARK INTER:                 -10.693
REMARK INTRA:                  -1.049
REMARK UNBOUND:                -1.049
REMARK  Name = 
REMARK  7 active torsions:
REMARK  status: ('A' for Active; 'I' for Inactive)
REMARK    1  A    between atoms: C_1  and  C_2
REMARK    2  A    between atoms: C_4  and  C_5
REMARK    3  A    between atoms: C_9  and  C_10
REMARK    4  A    between atoms: C_10  and  N_11
REMARK    5  A    between atoms: N_11  and  C_12
REMARK    6  A    between atoms: C_15  and  C_16
REMARK    7  A    between atoms: C_20  and  C_21
REMARK                            x       y       z     vdW  Elec       q    Type
REMARK                         _______ _______ _______ _____ _____    ______ ____
ROOT
ATOM      1  C   UNL     1      44.715   6.210  10.570  0.00  0.00    +0.000 C 
ENDROOT
BRANCH   1   6
ATOM      2  C   UNL     1      47.730   6.278  12.940  0.00  0.00    +0.000 A 
ATOM      3  C   UNL     1      47.286   5.366  13.914  0.00  0.00    +0.000 A 
ATOM      4  C   UNL     1      46.078   4.676  13.774  0.00  0.00    +0.000 A 
ATOM      5  C   UNL     1      45.259   4.909  12.673  0.00  0.00    +0.000 A 
ATOM      6  C   UNL     1      45.645   5.834  11.699  0.00  0.00    +0.000 A 
ATOM      7  C   UNL     1      46.894   6.471  11.823  0.00  0.00    +0.000 A 
BRANCH   2  11
ATOM      8  C   UNL     1      51.666   8.705  10.948  0.00  0.00    +0.000 C 
ATOM      9  C   UNL     1      50.901   8.204  12.136  0.00  0.00    +0.000 A 
ATOM     10  C   UNL     1      49.696   7.523  11.972  0.00  0.00    +0.000 A 
ATOM     11  C   UNL     1      49.003   7.025  13.088  0.00  0.00    +0.000 A 
ATOM     12  C   UNL     1      49.576   7.272  14.342  0.00  0.00    +0.000 A 
ATOM     13  C   UNL     1      50.771   7.973  14.420  0.00  0.00    +0.000 A 
ATOM     14  N   UNL     1      51.443   8.438  13.350  0.00  0.00    +0.000 NA
ENDBRANCH   2  11
ENDBRANCH   1   6
BRANCH   1  15
ATOM     15  N   UNL     1      44.029   5.039  10.035  0.00  0.00    +0.000 N 
ATOM     16  H   UNL     1      43.212   5.306   9.497  0.00  0.00    +0.000 HD
BRANCH  15  17
ATOM     17  C   UNL     1      44.868   4.232   9.242  0.00  0.00    +0.000 A 
ATOM     18  N   UNL     1      45.684   4.831   8.344  0.00  0.00    +0.000 NA
ATOM     19  C   UNL     1      46.499   4.063   7.583  0.00  0.00    +0.000 A 
ATOM     20  C   UNL     1      46.567   2.687   7.665  0.00  0.00    +0.000 A 
ATOM     21  C   UNL     1      45.748   2.075   8.615  0.00  0.00    +0.000 A 
ATOM     22  C   UNL     1      44.879   2.840   9.414  0.00  0.00    +0.000 A 
ATOM     23  C   UNL     1      44.036   2.145  10.445  0.00  0.00    +0.000 C 
BRANCH  20  24
ATOM     24  C   UNL     1      47.441   1.851   6.808  0.00  0.00    +0.000 C 
ATOM     25  N   UNL     1      48.457   2.445   6.113  0.00  0.00    +0.000 N 
ATOM     26  O   UNL     1      47.257   0.642   6.706  0.00  0.00    +0.000 OA
ATOM     27  H   UNL     1      48.683   3.425   6.104  0.00  0.00    +0.000 HD
ATOM     28  H   UNL     1      49.012   1.836   5.522  0.00  0.00    +0.000 HD
ENDBRANCH  20  24
ENDBRANCH  15  17
ENDBRANCH   1  15
TORSDOF 5
ENDMDL
MODEL 2
REMARK VINA RESULT:    -8.016      2.812      6.864
REMARK INTER + INTRA:         -11.409
REMARK INTER:                 -10.088
REMARK INTRA:                  -1.321
REMARK UNBOUND:                -1.049
REMARK  Name = 
REMARK  7 active torsions:
REMARK  status: ('A' for Active; 'I' for Inactive)
REMARK    1  A    between atoms: C_1  and  C_2
REMARK    2  A    between atoms: C_4  and  C_5
REMARK    3  A    between atoms: C_9  and  C_10
REMARK    4  A    between atoms: C_10  and  N_11
REMARK    5  A    between atoms: N_11  and  C_12
REMARK    6  A    between atoms: C_15  and  C_16
REMARK    7  A    between atoms: C_20  and  C_21
REMARK                            x       y       z     vdW  Elec       q    Type
REMARK                         _______ _______ _______ _____ _____    ______ ____
ROOT
ATOM      1  C   UNL     1      44.219   7.145  11.731  0.00  0.00    +0.000 C 
ENDROOT
BRANCH   1   6
ATOM      2  C   UNL     1      44.659   3.768   9.965  0.00  0.00    +0.000 A 
ATOM      3  C   UNL     1      43.873   2.958  10.804  0.00  0.00    +0.000 A 
ATOM      4  C   UNL     1      43.145   3.497  11.869  0.00  0.00    +0.000 A 
ATOM      5  C   UNL     1      43.215   4.858  12.152  0.00  0.00    +0.000 A 
ATOM      6  C   UNL     1      44.014   5.694  11.365  0.00  0.00    +0.000 A 
ATOM      7  C   UNL     1      44.687   5.146  10.258  0.00  0.00    +0.000 A 
BRANCH   2  11
ATOM      8  C   UNL     1      46.762  -0.146   7.598  0.00  0.00    +0.000 C 
ATOM      9  C   UNL     1      46.458   1.319   7.690  0.00  0.00    +0.000 A 
ATOM     10  C   UNL     1      45.697   1.823   8.743  0.00  0.00    +0.000 A 
ATOM     11  C   UNL     1      45.446   3.202   8.842  0.00  0.00    +0.000 A 
ATOM     12  C   UNL     1      45.977   4.010   7.828  0.00  0.00    +0.000 A 
ATOM     13  C   UNL     1      46.709   3.426   6.805  0.00  0.00    +0.000 A 
ATOM     14  N   UNL     1      46.962   2.106   6.717  0.00  0.00    +0.000 NA
ENDBRANCH   2  11
ENDBRANCH   1   6
BRANCH   1  15
ATOM     15  N   UNL     1      44.970   7.278  12.974  0.00  0.00    +0.000 N 
ATOM     16  H   UNL     1      44.814   6.483  13.584  0.00  0.00    +0.000 HD
BRANCH  15  17
ATOM     17  C   UNL     1      46.353   7.439  12.759  0.00  0.00    +0.000 A 
ATOM     18  N   UNL     1      46.804   8.627  12.293  0.00  0.00    +0.000 NA
ATOM     19  C   UNL     1      48.132   8.792  12.090  0.00  0.00    +0.000 A 
ATOM     20  C   UNL     1      49.080   7.821  12.339  0.00  0.00    +0.000 A 
ATOM     21  C   UNL     1      48.617   6.608  12.851  0.00  0.00    +0.000 A 
ATOM     22  C   UNL     1      47.241   6.397  13.062  0.00  0.00    +0.000 A 
ATOM     23  C   UNL     1      46.787   5.088  13.643  0.00  0.00    +0.000 C 
BRANCH  20  24
ATOM     24  C   UNL     1      50.530   7.999  12.087  0.00  0.00    +0.000 C 
ATOM     25  N   UNL     1      51.110   7.339  11.038  0.00  0.00    +0.000 N 
ATOM     26  O   UNL     1      51.215   8.715  12.810  0.00  0.00    +0.000 OA
ATOM     27  H   UNL     1      50.651   6.712  10.399  0.00  0.00    +0.000 HD
ATOM     28  H   UNL     1      52.108   7.473  10.921  0.00  0.00    +0.000 HD
ENDBRANCH  20  24
ENDBRANCH  15  17
ENDBRANCH   1  15
TORSDOF 5
ENDMDL
MODEL 3
REMARK VINA RESULT:    -7.926      1.965      3.281
REMARK INTER + INTRA:         -11.292
REMARK INTER:                 -11.370
REMARK INTRA:                   0.078
REMARK UNBOUND:                -1.049
REMARK  Name = 
REMARK  7 active torsions:
REMARK  status: ('A' for Active; 'I' for Inactive)
REMARK    1  A    between atoms: C_1  and  C_2
REMARK    2  A    between atoms: C_4  and  C_5
REMARK    3  A    between atoms: C_9  and  C_10
REMARK    4  A    between atoms: C_10  and  N_11
REMARK    5  A    between atoms: N_11  and  C_12
REMARK    6  A    between atoms: C_15  and  C_16
REMARK    7  A    between atoms: C_20  and  C_21
REMARK                            x       y       z     vdW  Elec       q    Type
REMARK                         _______ _______ _______ _____ _____    ______ ____
ROOT
ATOM      1  C   UNL     1      44.207   4.873  11.414  0.00  0.00    +0.000 C 
ENDROOT
BRANCH   1   6
ATOM      2  C   UNL     1      47.133   5.897  13.673  0.00  0.00    +0.000 A 
ATOM      3  C   UNL     1      47.782   6.809  12.822  0.00  0.00    +0.000 A 
ATOM      4  C   UNL     1      47.247   7.156  11.577  0.00  0.00    +0.000 A 
ATOM      5  C   UNL     1      46.067   6.567  11.130  0.00  0.00    +0.000 A 
ATOM      6  C   UNL     1      45.409   5.629  11.930  0.00  0.00    +0.000 A 
ATOM      7  C   UNL     1      45.926   5.341  13.207  0.00  0.00    +0.000 A 
BRANCH   2  11
ATOM      8  C   UNL     1      47.353   2.799  17.636  0.00  0.00    +0.000 C 
ATOM      9  C   UNL     1      47.819   4.020  16.901  0.00  0.00    +0.000 A 
ATOM     10  C   UNL     1      47.285   4.348  15.656  0.00  0.00    +0.000 A 
ATOM     11  C   UNL     1      47.701   5.513  14.989  0.00  0.00    +0.000 A 
ATOM     12  C   UNL     1      48.676   6.288  15.630  0.00  0.00    +0.000 A 
ATOM     13  C   UNL     1      49.168   5.882  16.862  0.00  0.00    +0.000 A 
ATOM     14  N   UNL     1      48.759   4.774  17.509  0.00  0.00    +0.000 NA
ENDBRANCH   2  11
ENDBRANCH   1   6
BRANCH   1  15
ATOM     15  N   UNL     1      44.037   5.061   9.978  0.00  0.00    +0.000 N 
ATOM     16  H   UNL     1      44.209   6.024   9.711  0.00  0.00    +0.000 HD
BRANCH  15  17
ATOM     17  C   UNL     1      44.860   4.210   9.217  0.00  0.00    +0.000 A 
ATOM     18  N   UNL     1      45.702   4.760   8.310  0.00  0.00    +0.000 NA
ATOM     19  C   UNL     1      46.502   3.948   7.579  0.00  0.00    +0.000 A 
ATOM     20  C   UNL     1      46.532   2.574   7.702  0.00  0.00    +0.000 A 
ATOM     21  C   UNL     1      45.687   2.012   8.660  0.00  0.00    +0.000 A 
ATOM     22  C   UNL     1      44.832   2.823   9.429  0.00  0.00    +0.000 A 
ATOM     23  C   UNL     1      43.961   2.182  10.470  0.00  0.00    +0.000 C 
BRANCH  20  24
ATOM     24  C   UNL     1      47.390   1.690   6.878  0.00  0.00    +0.000 C 
ATOM     25  N   UNL     1      48.400   2.242   6.140  0.00  0.00    +0.000 N 
ATOM     26  O   UNL     1      47.199   0.479   6.840  0.00  0.00    +0.000 OA
ATOM     27  H   UNL     1      48.631   3.219   6.078  0.00  0.00    +0.000 HD
ATOM     28  H   UNL     1      48.944   1.600   5.574  0.00  0.00    +0.000 HD
ENDBRANCH  20  24
ENDBRANCH  15  17
ENDBRANCH   1  15
TORSDOF 5
ENDMDL
MODEL 4
REMARK VINA RESULT:    -7.586      1.106      2.033
REMARK INTER + INTRA:         -10.853
REMARK INTER:                 -10.224
REMARK INTRA:                  -0.629
REMARK UNBOUND:                -1.049
REMARK  Name = 
REMARK  7 active torsions:
REMARK  status: ('A' for Active; 'I' for Inactive)
REMARK    1  A    between atoms: C_1  and  C_2
REMARK    2  A    between atoms: C_4  and  C_5
REMARK    3  A    between atoms: C_9  and  C_10
REMARK    4  A    between atoms: C_10  and  N_11
REMARK    5  A    between atoms: N_11  and  C_12
REMARK    6  A    between atoms: C_15  and  C_16
REMARK    7  A    between atoms: C_20  and  C_21
REMARK                            x       y       z     vdW  Elec       q    Type
REMARK                         _______ _______ _______ _____ _____    ______ ____
ROOT
ATOM      1  C   UNL     1      44.849   4.985  11.321  0.00  0.00    +0.000 C 
ENDROOT
BRANCH   1   6
ATOM      2  C   UNL     1      47.246   7.839  12.229  0.00  0.00    +0.000 A 
ATOM      3  C   UNL     1      46.375   8.935  12.085  0.00  0.00    +0.000 A 
ATOM      4  C   UNL     1      45.021   8.758  11.785  0.00  0.00    +0.000 A 
ATOM      5  C   UNL     1      44.507   7.481  11.579  0.00  0.00    +0.000 A 
ATOM      6  C   UNL     1      45.345   6.367  11.676  0.00  0.00    +0.000 A 
ATOM      7  C   UNL     1      46.690   6.558  12.043  0.00  0.00    +0.000 A 
BRANCH   2  11
ATOM      8  C   UNL     1      51.146   7.536  15.398  0.00  0.00    +0.000 C 
ATOM      9  C   UNL     1      50.575   7.869  14.052  0.00  0.00    +0.000 A 
ATOM     10  C   UNL     1      49.222   7.671  13.784  0.00  0.00    +0.000 A 
ATOM     11  C   UNL     1      48.686   8.019  12.532  0.00  0.00    +0.000 A 
ATOM     12  C   UNL     1      49.583   8.541  11.591  0.00  0.00    +0.000 A 
ATOM     13  C   UNL     1      50.920   8.690  11.932  0.00  0.00    +0.000 A 
ATOM     14  N   UNL     1      51.430   8.371  13.137  0.00  0.00    +0.000 NA
ENDBRANCH   2  11
ENDBRANCH   1   6
BRANCH   1  15
ATOM     15  N   UNL     1      44.307   4.946   9.967  0.00  0.00    +0.000 N 
ATOM     16  H   UNL     1      44.131   5.881   9.616  0.00  0.00    +0.000 HD
BRANCH  15  17
ATOM     17  C   UNL     1      45.143   4.258   9.067  0.00  0.00    +0.000 A 
ATOM     18  N   UNL     1      46.011   4.970   8.312  0.00  0.00    +0.000 NA
ATOM     19  C   UNL     1      46.823   4.315   7.449  0.00  0.00    +0.000 A 
ATOM     20  C   UNL     1      46.838   2.945   7.288  0.00  0.00    +0.000 A 
ATOM     21  C   UNL     1      45.965   2.209   8.091  0.00  0.00    +0.000 A 
ATOM     22  C   UNL     1      45.097   2.858   8.990  0.00  0.00    +0.000 A 
ATOM     23  C   UNL     1      44.195   2.028   9.858  0.00  0.00    +0.000 C 
BRANCH  20  24
ATOM     24  C   UNL     1      47.709   2.236   6.321  0.00  0.00    +0.000 C 
ATOM     25  N   UNL     1      48.094   2.879   5.176  0.00  0.00    +0.000 N 
ATOM     26  O   UNL     1      48.076   1.084   6.525  0.00  0.00    +0.000 OA
ATOM     27  H   UNL     1      47.834   3.811   4.897  0.00  0.00    +0.000 HD
ATOM     28  H   UNL     1      48.669   2.346   4.535  0.00  0.00    +0.000 HD
ENDBRANCH  20  24
ENDBRANCH  15  17
ENDBRANCH   1  15
TORSDOF 5
ENDMDL
MODEL 5
REMARK VINA RESULT:    -7.532      3.449      7.601
REMARK INTER + INTRA:         -10.784
REMARK INTER:                 -10.170
REMARK INTRA:                  -0.614
REMARK UNBOUND:                -1.049
REMARK  Name = 
REMARK  7 active torsions:
REMARK  status: ('A' for Active; 'I' for Inactive)
REMARK    1  A    between atoms: C_1  and  C_2
REMARK    2  A    between atoms: C_4  and  C_5
REMARK    3  A    between atoms: C_9  and  C_10
REMARK    4  A    between atoms: C_10  and  N_11
REMARK    5  A    between atoms: N_11  and  C_12
REMARK    6  A    between atoms: C_15  and  C_16
REMARK    7  A    between atoms: C_20  and  C_21
REMARK                            x       y       z     vdW  Elec       q    Type
REMARK                         _______ _______ _______ _____ _____    ______ ____
ROOT
ATOM      1  C   UNL     1      45.958   7.187  11.803  0.00  0.00    +0.000 C 
ENDROOT
BRANCH   1   6
ATOM      2  C   UNL     1      45.098   4.251   9.488  0.00  0.00    +0.000 A 
ATOM      3  C   UNL     1      43.813   3.939   9.969  0.00  0.00    +0.000 A 
ATOM      4  C   UNL     1      43.196   4.707  10.961  0.00  0.00    +0.000 A 
ATOM      5  C   UNL     1      43.865   5.787  11.531  0.00  0.00    +0.000 A 
ATOM      6  C   UNL     1      45.157   6.110  11.108  0.00  0.00    +0.000 A 
ATOM      7  C   UNL     1      45.737   5.368  10.063  0.00  0.00    +0.000 A 
BRANCH   2  11
ATOM      8  C   UNL     1      46.655  -0.195   7.713  0.00  0.00    +0.000 C 
ATOM      9  C   UNL     1      46.514   1.291   7.579  0.00  0.00    +0.000 A 
ATOM     10  C   UNL     1      45.863   2.036   8.561  0.00  0.00    +0.000 A 
ATOM     11  C   UNL     1      45.765   3.433   8.446  0.00  0.00    +0.000 A 
ATOM     12  C   UNL     1      46.330   4.008   7.301  0.00  0.00    +0.000 A 
ATOM     13  C   UNL     1      46.946   3.193   6.362  0.00  0.00    +0.000 A 
ATOM     14  N   UNL     1      47.052   1.856   6.478  0.00  0.00    +0.000 NA
ENDBRANCH   2  11
ENDBRANCH   1   6
BRANCH   1  15
ATOM     15  N   UNL     1      47.317   6.739  12.084  0.00  0.00    +0.000 N 
ATOM     16  H   UNL     1      47.975   7.509  12.031  0.00  0.00    +0.000 HD
BRANCH  15  17
ATOM     17  C   UNL     1      47.434   6.110  13.339  0.00  0.00    +0.000 A 
ATOM     18  N   UNL     1      46.779   4.942  13.543  0.00  0.00    +0.000 NA
ATOM     19  C   UNL     1      46.892   4.327  14.744  0.00  0.00    +0.000 A 
ATOM     20  C   UNL     1      47.649   4.808  15.792  0.00  0.00    +0.000 A 
ATOM     21  C   UNL     1      48.349   5.994  15.569  0.00  0.00    +0.000 A 
ATOM     22  C   UNL     1      48.245   6.668  14.337  0.00  0.00    +0.000 A 
ATOM     23  C   UNL     1      49.038   7.926  14.127  0.00  0.00    +0.000 C 
BRANCH  20  24
ATOM     24  C   UNL     1      47.744   4.144  17.114  0.00  0.00    +0.000 C 
ATOM     25  N   UNL     1      46.888   3.118  17.407  0.00  0.00    +0.000 N 
ATOM     26  O   UNL     1      48.566   4.509  17.948  0.00  0.00    +0.000 OA
ATOM     27  H   UNL     1      46.164   2.754  16.811  0.00  0.00    +0.000 HD
ATOM     28  H   UNL     1      46.976   2.712  18.332  0.00  0.00    +0.000 HD
ENDBRANCH  20  24
ENDBRANCH  15  17
ENDBRANCH   1  15
TORSDOF 5
ENDMDL
MODEL 6
REMARK VINA RESULT:    -6.984      4.327      8.049
REMARK INTER + INTRA:         -10.075
REMARK INTER:                  -9.109
REMARK INTRA:                  -0.966
REMARK UNBOUND:                -1.049
REMARK  Name = 
REMARK  7 active torsions:
REMARK  status: ('A' for Active; 'I' for Inactive)
REMARK    1  A    between atoms: C_1  and  C_2
REMARK    2  A    between atoms: C_4  and  C_5
REMARK    3  A    between atoms: C_9  and  C_10
REMARK    4  A    between atoms: C_10  and  N_11
REMARK    5  A    between atoms: N_11  and  C_12
REMARK    6  A    between atoms: C_15  and  C_16
REMARK    7  A    between atoms: C_20  and  C_21
REMARK                            x       y       z     vdW  Elec       q    Type
REMARK                         _______ _______ _______ _____ _____    ______ ____
ROOT
ATOM      1  C   UNL     1      48.910   7.274  15.911  0.00  0.00    +0.000 C 
ENDROOT
BRANCH   1   6
ATOM      2  C   UNL     1      47.067   6.291  12.694  0.00  0.00    +0.000 A 
ATOM      3  C   UNL     1      47.811   7.033  11.758  0.00  0.00    +0.000 A 
ATOM      4  C   UNL     1      48.936   7.771  12.138  0.00  0.00    +0.000 A 
ATOM      5  C   UNL     1      49.326   7.820  13.473  0.00  0.00    +0.000 A 
ATOM      6  C   UNL     1      48.594   7.127  14.441  0.00  0.00    +0.000 A 
ATOM      7  C   UNL     1      47.503   6.337  14.032  0.00  0.00    +0.000 A 
BRANCH   2  11
ATOM      8  C   UNL     1      44.187   4.110   9.187  0.00  0.00    +0.000 C 
ATOM      9  C   UNL     1      44.471   4.458  10.617  0.00  0.00    +0.000 A 
ATOM     10  C   UNL     1      45.621   5.166  10.963  0.00  0.00    +0.000 A 
ATOM     11  C   UNL     1      45.863   5.519  12.302  0.00  0.00    +0.000 A 
ATOM     12  C   UNL     1      44.910   5.103  13.240  0.00  0.00    +0.000 A 
ATOM     13  C   UNL     1      43.801   4.387  12.816  0.00  0.00    +0.000 A 
ATOM     14  N   UNL     1      43.561   4.060  11.531  0.00  0.00    +0.000 NA
ENDBRANCH   2  11
ENDBRANCH   1   6
BRANCH   1  15
ATOM     15  N   UNL     1      48.279   6.220  16.698  0.00  0.00    +0.000 N 
ATOM     16  H   UNL     1      47.439   5.877  16.245  0.00  0.00    +0.000 HD
BRANCH  15  17
ATOM     17  C   UNL     1      49.147   5.141  16.955  0.00  0.00    +0.000 A 
ATOM     18  N   UNL     1      50.467   5.393  17.115  0.00  0.00    +0.000 NA
ATOM     19  C   UNL     1      51.307   4.362  17.369  0.00  0.00    +0.000 A 
ATOM     20  C   UNL     1      50.905   3.048  17.492  0.00  0.00    +0.000 A 
ATOM     21  C   UNL     1      49.539   2.795  17.360  0.00  0.00    +0.000 A 
ATOM     22  C   UNL     1      48.639   3.840  17.082  0.00  0.00    +0.000 A 
ATOM     23  C   UNL     1      47.173   3.530  16.977  0.00  0.00    +0.000 C 
BRANCH  20  24
ATOM     24  C   UNL     1      51.834   1.920  17.742  0.00  0.00    +0.000 C 
ATOM     25  N   UNL     1      51.336   0.648  17.804  0.00  0.00    +0.000 N 
ATOM     26  O   UNL     1      53.034   2.113  17.905  0.00  0.00    +0.000 OA
ATOM     27  H   UNL     1      50.371   0.378  17.708  0.00  0.00    +0.000 HD
ATOM     28  H   UNL     1      52.006  -0.086  18.001  0.00  0.00    +0.000 HD
ENDBRANCH  20  24
ENDBRANCH  15  17
ENDBRANCH   1  15
TORSDOF 5
ENDMDL
MODEL 7
REMARK VINA RESULT:    -6.724      3.234      7.465
REMARK INTER + INTRA:          -9.738
REMARK INTER:                  -8.986
REMARK INTRA:                  -0.752
REMARK UNBOUND:                -1.049
REMARK  Name = 
REMARK  7 active torsions:
REMARK  status: ('A' for Active; 'I' for Inactive)
REMARK    1  A    between atoms: C_1  and  C_2
REMARK    2  A    between atoms: C_4  and  C_5
REMARK    3  A    between atoms: C_9  and  C_10
REMARK    4  A    between atoms: C_10  and  N_11
REMARK    5  A    between atoms: N_11  and  C_12
REMARK    6  A    between atoms: C_15  and  C_16
REMARK    7  A    between atoms: C_20  and  C_21
REMARK                            x       y       z     vdW  Elec       q    Type
REMARK                         _______ _______ _______ _____ _____    ______ ____
ROOT
ATOM      1  C   UNL     1      45.257   6.274  12.991  0.00  0.00    +0.000 C 
ENDROOT
BRANCH   1   6
ATOM      2  C   UNL     1      44.839   3.576  10.297  0.00  0.00    +0.000 A 
ATOM      3  C   UNL     1      43.784   2.837  10.863  0.00  0.00    +0.000 A 
ATOM      4  C   UNL     1      43.160   3.242  12.047  0.00  0.00    +0.000 A 
ATOM      5  C   UNL     1      43.601   4.378  12.721  0.00  0.00    +0.000 A 
ATOM      6  C   UNL     1      44.669   5.121  12.212  0.00  0.00    +0.000 A 
ATOM      7  C   UNL     1      45.243   4.737  10.986  0.00  0.00    +0.000 A 
BRANCH   2  11
ATOM      8  C   UNL     1      46.828  -0.018   7.386  0.00  0.00    +0.000 C 
ATOM      9  C   UNL     1      46.472   1.417   7.636  0.00  0.00    +0.000 A 
ATOM     10  C   UNL     1      45.815   1.794   8.806  0.00  0.00    +0.000 A 
ATOM     11  C   UNL     1      45.516   3.145   9.050  0.00  0.00    +0.000 A 
ATOM     12  C   UNL     1      45.891   4.058   8.056  0.00  0.00    +0.000 A 
ATOM     13  C   UNL     1      46.526   3.598   6.911  0.00  0.00    +0.000 A 
ATOM     14  N   UNL     1      46.826   2.306   6.684  0.00  0.00    +0.000 NA
ENDBRANCH   2  11
ENDBRANCH   1   6
BRANCH   1  15
ATOM     15  N   UNL     1      44.968   7.552  12.350  0.00  0.00    +0.000 N 
ATOM     16  H   UNL     1      44.267   8.071  12.868  0.00  0.00    +0.000 HD
BRANCH  15  17
ATOM     17  C   UNL     1      46.116   8.350  12.185  0.00  0.00    +0.000 A 
ATOM     18  N   UNL     1      47.332   7.757  12.235  0.00  0.00    +0.000 NA
ATOM     19  C   UNL     1      48.441   8.516  12.071  0.00  0.00    +0.000 A 
ATOM     20  C   UNL     1      48.421   9.876  11.840  0.00  0.00    +0.000 A 
ATOM     21  C   UNL     1      47.166  10.480  11.756  0.00  0.00    +0.000 A 
ATOM     22  C   UNL     1      45.992   9.724  11.935  0.00  0.00    +0.000 A 
ATOM     23  C   UNL     1      44.661  10.407  11.807  0.00  0.00    +0.000 C 
BRANCH  20  24
ATOM     24  C   UNL     1      49.641  10.706  11.690  0.00  0.00    +0.000 C 
ATOM     25  N   UNL     1      50.027  11.514  12.723  0.00  0.00    +0.000 N 
ATOM     26  O   UNL     1      50.296  10.686  10.653  0.00  0.00    +0.000 OA
ATOM     27  H   UNL     1      49.555  11.626  13.604  0.00  0.00    +0.000 HD
ATOM     28  H   UNL     1      50.853  12.080  12.564  0.00  0.00    +0.000 HD
ENDBRANCH  20  24
ENDBRANCH  15  17
ENDBRANCH   1  15
TORSDOF 5
ENDMDL
MODEL 8
REMARK VINA RESULT:    -6.536      4.251      8.619
REMARK INTER + INTRA:          -9.496
REMARK INTER:                  -8.609
REMARK INTRA:                  -0.887
REMARK UNBOUND:                -1.049
REMARK  Name = 
REMARK  7 active torsions:
REMARK  status: ('A' for Active; 'I' for Inactive)
REMARK    1  A    between atoms: C_1  and  C_2
REMARK    2  A    between atoms: C_4  and  C_5
REMARK    3  A    between atoms: C_9  and  C_10
REMARK    4  A    between atoms: C_10  and  N_11
REMARK    5  A    between atoms: N_11  and  C_12
REMARK    6  A    between atoms: C_15  and  C_16
REMARK    7  A    between atoms: C_20  and  C_21
REMARK                            x       y       z     vdW  Elec       q    Type
REMARK                         _______ _______ _______ _____ _____    ______ ____
ROOT
ATOM      1  C   UNL     1      49.090   7.247  13.609  0.00  0.00    +0.000 C 
ENDROOT
BRANCH   1   6
ATOM      2  C   UNL     1      45.651   6.278  12.214  0.00  0.00    +0.000 A 
ATOM      3  C   UNL     1      45.000   7.521  12.303  0.00  0.00    +0.000 A 
ATOM      4  C   UNL     1      45.674   8.672  12.723  0.00  0.00    +0.000 A 
ATOM      5  C   UNL     1      47.010   8.603  13.107  0.00  0.00    +0.000 A 
ATOM      6  C   UNL     1      47.685   7.379  13.069  0.00  0.00    +0.000 A 
ATOM      7  C   UNL     1      47.011   6.245  12.581  0.00  0.00    +0.000 A 
BRANCH   2  11
ATOM      8  C   UNL     1      44.584   2.803   8.730  0.00  0.00    +0.000 C 
ATOM      9  C   UNL     1      44.424   3.365  10.111  0.00  0.00    +0.000 A 
ATOM     10  C   UNL     1      45.121   4.508  10.499  0.00  0.00    +0.000 A 
ATOM     11  C   UNL     1      44.939   5.050  11.783  0.00  0.00    +0.000 A 
ATOM     12  C   UNL     1      44.053   4.370  12.629  0.00  0.00    +0.000 A 
ATOM     13  C   UNL     1      43.412   3.229  12.171  0.00  0.00    +0.000 A 
ATOM     14  N   UNL     1      43.574   2.718  10.936  0.00  0.00    +0.000 NA
ENDBRANCH   2  11
ENDBRANCH   1   6
BRANCH   1  15
ATOM     15  N   UNL     1      49.259   8.012  14.840  0.00  0.00    +0.000 N 
ATOM     16  H   UNL     1      48.652   8.824  14.854  0.00  0.00    +0.000 HD
BRANCH  15  17
ATOM     17  C   UNL     1      49.034   7.239  15.996  0.00  0.00    +0.000 A 
ATOM     18  N   UNL     1      49.270   5.907  15.942  0.00  0.00    +0.000 NA
ATOM     19  C   UNL     1      49.062   5.158  17.051  0.00  0.00    +0.000 A 
ATOM     20  C   UNL     1      48.629   5.665  18.259  0.00  0.00    +0.000 A 
ATOM     21  C   UNL     1      48.417   7.043  18.321  0.00  0.00    +0.000 A 
ATOM     22  C   UNL     1      48.611   7.851  17.184  0.00  0.00    +0.000 A 
ATOM     23  C   UNL     1      48.401   9.334  17.301  0.00  0.00    +0.000 C 
BRANCH  20  24
ATOM     24  C   UNL     1      48.376   4.834  19.460  0.00  0.00    +0.000 C 
ATOM     25  N   UNL     1      48.483   3.474  19.364  0.00  0.00    +0.000 N 
ATOM     26  O   UNL     1      48.062   5.347  20.529  0.00  0.00    +0.000 OA
ATOM     27  H   UNL     1      48.710   2.949  18.536  0.00  0.00    +0.000 HD
ATOM     28  H   UNL     1      48.277   2.948  20.205  0.00  0.00    +0.000 HD
ENDBRANCH  20  24
ENDBRANCH  15  17
ENDBRANCH   1  15
TORSDOF 5
ENDMDL
MODEL 9
REMARK VINA RESULT:    -6.283      3.836      8.352
REMARK INTER + INTRA:          -9.169
REMARK INTER:                  -8.438
REMARK INTRA:                  -0.731
REMARK UNBOUND:                -1.049
REMARK  Name = 
REMARK  7 active torsions:
REMARK  status: ('A' for Active; 'I' for Inactive)
REMARK    1  A    between atoms: C_1  and  C_2
REMARK    2  A    between atoms: C_4  and  C_5
REMARK    3  A    between atoms: C_9  and  C_10
REMARK    4  A    between atoms: C_10  and  N_11
REMARK    5  A    between atoms: N_11  and  C_12
REMARK    6  A    between atoms: C_15  and  C_16
REMARK    7  A    between atoms: C_20  and  C_21
REMARK                            x       y       z     vdW  Elec       q    Type
REMARK                         _______ _______ _______ _____ _____    ______ ____
ROOT
ATOM      1  C   UNL     1      49.284   7.375  12.938  0.00  0.00    +0.000 C 
ENDROOT
BRANCH   1   6
ATOM      2  C   UNL     1      45.731   6.420  11.850  0.00  0.00    +0.000 A 
ATOM      3  C   UNL     1      45.128   7.691  11.868  0.00  0.00    +0.000 A 
ATOM      4  C   UNL     1      45.866   8.847  12.142  0.00  0.00    +0.000 A 
ATOM      5  C   UNL     1      47.221   8.760  12.447  0.00  0.00    +0.000 A 
ATOM      6  C   UNL     1      47.852   7.513  12.476  0.00  0.00    +0.000 A 
ATOM      7  C   UNL     1      47.110   6.368  12.133  0.00  0.00    +0.000 A 
BRANCH   2  11
ATOM      8  C   UNL     1      44.466   2.597   8.827  0.00  0.00    +0.000 C 
ATOM      9  C   UNL     1      44.342   3.336  10.126  0.00  0.00    +0.000 A 
ATOM     10  C   UNL     1      45.101   4.480  10.370  0.00  0.00    +0.000 A 
ATOM     11  C   UNL     1      44.953   5.188  11.575  0.00  0.00    +0.000 A 
ATOM     12  C   UNL     1      44.036   4.669  12.497  0.00  0.00    +0.000 A 
ATOM     13  C   UNL     1      43.332   3.515  12.184  0.00  0.00    +0.000 A 
ATOM     14  N   UNL     1      43.463   2.844  11.024  0.00  0.00    +0.000 NA
ENDBRANCH   2  11
ENDBRANCH   1   6
BRANCH   1  15
ATOM     15  N   UNL     1      49.487   8.012  14.234  0.00  0.00    +0.000 N 
ATOM     16  H   UNL     1      48.711   8.621  14.469  0.00  0.00    +0.000 HD
BRANCH  15  17
ATOM     17  C   UNL     1      49.685   7.082  15.272  0.00  0.00    +0.000 A 
ATOM     18  N   UNL     1      48.656   6.277  15.628  0.00  0.00    +0.000 NA
ATOM     19  C   UNL     1      48.841   5.375  16.621  0.00  0.00    +0.000 A 
ATOM     20  C   UNL     1      50.028   5.204  17.302  0.00  0.00    +0.000 A 
ATOM     21  C   UNL     1      51.097   6.013  16.912  0.00  0.00    +0.000 A 
ATOM     22  C   UNL     1      50.938   6.970  15.893  0.00  0.00    +0.000 A 
ATOM     23  C   UNL     1      52.121   7.799  15.482  0.00  0.00    +0.000 C 
BRANCH  20  24
ATOM     24  C   UNL     1      50.214   4.234  18.407  0.00  0.00    +0.000 C 
ATOM     25  N   UNL     1      49.311   3.218  18.560  0.00  0.00    +0.000 N 
ATOM     26  O   UNL     1      51.153   4.338  19.189  0.00  0.00    +0.000 OA
ATOM     27  H   UNL     1      48.496   3.052  17.995  0.00  0.00    +0.000 HD
ATOM     28  H   UNL     1      49.467   2.595  19.345  0.00  0.00    +0.000 HD
ENDBRANCH  20  24
ENDBRANCH  15  17
ENDBRANCH   1  15
TORSDOF 5
ENDMDL
