MODEL 1
REMARK VINA RESULT:    -5.864      0.000      0.000
REMARK INTER + INTRA:          -8.020
REMARK INTER:                  -7.407
REMARK INTRA:                  -0.613
REMARK UNBOUND:                -0.613
REMARK  Name = 
REMARK  8 active torsions:
REMARK  status: ('A' for Active; 'I' for Inactive)
REMARK    1  A    between atoms: C_1  and  C_2
REMARK    2  A    between atoms: C_2  and  C_3
REMARK    3  A    between atoms: C_2  and  C_4
REMARK    4  A    between atoms: C_2  and  C_5
REMARK    5  A    between atoms: C_9  and  C_10
REMARK    6  A    between atoms: C_10  and  O_12
REMARK    7  A    between atoms: N_16  and  C_17
REMARK    8  A    between atoms: C_17  and  C_18
REMARK                            x       y       z     vdW  Elec       q    Type
REMARK                         _______ _______ _______ _____ _____    ______ ____
ROOT
ATOM      1  C   UNL     1      48.115   6.633  14.470  0.00  0.00    +0.000 A 
ATOM      2  N   UNL     1      47.517   5.458  14.596  0.00  0.00    +0.000 NA
ATOM      3  C   UNL     1      46.769   5.262  13.468  0.00  0.00    +0.000 A 
ATOM      4  C   UNL     1      45.924   4.190  13.136  0.00  0.00    +0.000 A 
ATOM      5  C   UNL     1      45.262   4.220  11.897  0.00  0.00    +0.000 A 
ATOM      6  C   UNL     1      45.444   5.296  11.018  0.00  0.00    +0.000 A 
ATOM      7  C   UNL     1      46.278   6.370  11.346  0.00  0.00    +0.000 A 
ATOM      8  C   UNL     1      46.915   6.328  12.595  0.00  0.00    +0.000 A 
ATOM      9  N   UNL     1      47.711   7.231  13.283  0.00  0.00    +0.000 N 
ENDROOT
BRANCH   1  11
ATOM     10  C   UNL     1      49.175   6.226  16.716  0.00  0.00    +0.000 C 
ATOM     11  C   UNL     1      49.096   7.191  15.506  0.00  0.00    +0.000 C 
ATOM     12  C   UNL     1      48.637   8.548  16.061  0.00  0.00    +0.000 C 
ATOM     13  C   UNL     1      50.520   7.291  14.930  0.00  0.00    +0.000 C 
ENDBRANCH   1  11
BRANCH   5  14
ATOM     14  C   UNL     1      44.300   3.164  11.500  0.00  0.00    +0.000 C 
ATOM     15  O   UNL     1      43.915   3.025  10.348  0.00  0.00    +0.000 OA
BRANCH  14  16
ATOM     16  O   UNL     1      43.923   2.348  12.505  0.00  0.00    +0.000 OA
ATOM     17  H   UNL     1      43.962   1.394  12.305  0.00  0.00    +0.000 HD
ENDBRANCH  14  16
ENDBRANCH   5  14
BRANCH   9  18
ATOM     18  C   UNL     1      48.011   8.568  12.785  0.00  0.00    +0.000 C 
BRANCH  18  19
ATOM     19  C   UNL     1      49.304   8.672  12.016  0.00  0.00    +0.000 A 
ATOM     20  C   UNL     1      49.995   7.580  11.480  0.00  0.00    +0.000 A 
ATOM     21  C   UNL     1      51.219   7.775  10.849  0.00  0.00    +0.000 A 
ATOM     22  C   UNL     1      51.728   9.059  10.774  0.00  0.00    +0.000 A 
ATOM     23  N   UNL     1      51.093  10.141  11.272  0.00  0.00    +0.000 NA
ATOM     24  C   UNL     1      49.909   9.922  11.882  0.00  0.00    +0.000 A 
ENDBRANCH  18  19
ENDBRANCH   9  18
TORSDOF 5
ENDMDL
MODEL 2
REMARK VINA RESULT:    -5.863      3.514      5.715
REMARK INTER + INTRA:          -8.019
REMARK INTER:                  -7.490
REMARK INTRA:                  -0.528
REMARK UNBOUND:                -0.613
REMARK  Name = 
REMARK  8 active torsions:
REMARK  status: ('A' for Active; 'I' for Inactive)
REMARK    1  A    between atoms: C_1  and  C_2
REMARK    2  A    between atoms: C_2  and  C_3
REMARK    3  A    between atoms: C_2  and  C_4
REMARK    4  A    between atoms: C_2  and  C_5
REMARK    5  A    between atoms: C_9  and  C_10
REMARK    6  A    between atoms: C_10  and  O_12
REMARK    7  A    between atoms: N_16  and  C_17
REMARK    8  A    between atoms: C_17  and  C_18
REMARK                            x       y       z     vdW  Elec       q    Type
REMARK                         _______ _______ _______ _____ _____    ______ ____
ROOT
ATOM      1  C   UNL     1      45.293   4.684  12.640  0.00  0.00    +0.000 A 
ATOM      2  N   UNL     1      45.504   4.019  13.766  0.00  0.00    +0.000 NA
ATOM      3  C   UNL     1      46.542   4.633  14.411  0.00  0.00    +0.000 A 
ATOM      4  C   UNL     1      47.166   4.289  15.621  0.00  0.00    +0.000 A 
ATOM      5  C   UNL     1      48.222   5.095  16.081  0.00  0.00    +0.000 A 
ATOM      6  C   UNL     1      48.637   6.213  15.346  0.00  0.00    +0.000 A 
ATOM      7  C   UNL     1      48.024   6.556  14.137  0.00  0.00    +0.000 A 
ATOM      8  C   UNL     1      46.985   5.729  13.688  0.00  0.00    +0.000 A 
ATOM      9  N   UNL     1      46.234   5.699  12.523  0.00  0.00    +0.000 N 
ENDROOT
BRANCH   1  11
ATOM     10  C   UNL     1      43.585   2.948  12.009  0.00  0.00    +0.000 C 
ATOM     11  C   UNL     1      44.166   4.342  11.661  0.00  0.00    +0.000 C 
ATOM     12  C   UNL     1      44.670   4.253  10.212  0.00  0.00    +0.000 C 
ATOM     13  C   UNL     1      43.004   5.344  11.775  0.00  0.00    +0.000 C 
ENDBRANCH   1  11
BRANCH   5  14
ATOM     14  C   UNL     1      48.979   4.762  17.312  0.00  0.00    +0.000 C 
ATOM     15  O   UNL     1      48.528   4.948  18.432  0.00  0.00    +0.000 OA
BRANCH  14  16
ATOM     16  O   UNL     1      50.184   4.198  17.089  0.00  0.00    +0.000 OA
ATOM     17  H   UNL     1      50.168   3.368  16.577  0.00  0.00    +0.000 HD
ENDBRANCH  14  16
ENDBRANCH   5  14
BRANCH   9  18
ATOM     18  C   UNL     1      46.467   6.604  11.402  0.00  0.00    +0.000 C 
BRANCH  18  19
ATOM     19  C   UNL     1      45.913   7.993  11.597  0.00  0.00    +0.000 A 
ATOM     20  C   UNL     1      44.592   8.363  11.324  0.00  0.00    +0.000 A 
ATOM     21  C   UNL     1      44.198   9.689  11.468  0.00  0.00    +0.000 A 
ATOM     22  C   UNL     1      45.139  10.618  11.876  0.00  0.00    +0.000 A 
ATOM     23  N   UNL     1      46.421  10.304  12.155  0.00  0.00    +0.000 NA
ATOM     24  C   UNL     1      46.777   9.011  12.004  0.00  0.00    +0.000 A 
ENDBRANCH  18  19
ENDBRANCH   9  18
TORSDOF 5
ENDMDL
MODEL 3
REMARK VINA RESULT:    -5.640      2.673      4.466
REMARK INTER + INTRA:          -7.737
REMARK INTER:                  -7.100
REMARK INTRA:                  -0.637
REMARK UNBOUND:                -0.613
REMARK  Name = 
REMARK  8 active torsions:
REMARK  status: ('A' for Active; 'I' for Inactive)
REMARK    1  A    between atoms: C_1  and  C_2
REMARK    2  A    between atoms: C_2  and  C_3
REMARK    3  A    between atoms: C_2  and  C_4
REMARK    4  A    between atoms: C_2  and  C_5
REMARK    5  A    between atoms: C_9  and  C_10
REMARK    6  A    between atoms: C_10  and  O_12
REMARK    7  A    between atoms: N_16  and  C_17
REMARK    8  A    between atoms: C_17  and  C_18
REMARK                            x       y       z     vdW  Elec       q    Type
REMARK                         _______ _______ _______ _____ _____    ______ ____
ROOT
ATOM      1  C   UNL     1      47.799   4.852  16.076  0.00  0.00    +0.000 A 
ATOM      2  N   UNL     1      46.815   4.437  15.291  0.00  0.00    +0.000 NA
ATOM      3  C   UNL     1      46.887   5.161  14.134  0.00  0.00    +0.000 A 
ATOM      4  C   UNL     1      46.050   5.123  13.006  0.00  0.00    +0.000 A 
ATOM      5  C   UNL     1      46.343   5.975  11.928  0.00  0.00    +0.000 A 
ATOM      6  C   UNL     1      47.445   6.839  11.981  0.00  0.00    +0.000 A 
ATOM      7  C   UNL     1      48.278   6.886  13.103  0.00  0.00    +0.000 A 
ATOM      8  C   UNL     1      47.957   6.041  14.175  0.00  0.00    +0.000 A 
ATOM      9  N   UNL     1      48.478   5.890  15.451  0.00  0.00    +0.000 N 
ENDROOT
BRANCH   1  11
ATOM     10  C   UNL     1      47.420   2.846  17.547  0.00  0.00    +0.000 C 
ATOM     11  C   UNL     1      48.094   4.238  17.447  0.00  0.00    +0.000 C 
ATOM     12  C   UNL     1      47.517   5.084  18.593  0.00  0.00    +0.000 C 
ATOM     13  C   UNL     1      49.603   4.010  17.644  0.00  0.00    +0.000 C 
ENDBRANCH   1  11
BRANCH   5  14
ATOM     14  C   UNL     1      45.470   6.047  10.731  0.00  0.00    +0.000 C 
ATOM     15  O   UNL     1      45.654   5.355   9.741  0.00  0.00    +0.000 OA
BRANCH  14  16
ATOM     16  O   UNL     1      44.437   6.906  10.846  0.00  0.00    +0.000 OA
ATOM     17  H   UNL     1      43.557   6.493  10.914  0.00  0.00    +0.000 HD
ENDBRANCH  14  16
ENDBRANCH   5  14
BRANCH   9  18
ATOM     18  C   UNL     1      49.547   6.730  15.979  0.00  0.00    +0.000 C 
BRANCH  18  19
ATOM     19  C   UNL     1      49.075   7.853  16.869  0.00  0.00    +0.000 A 
ATOM     20  C   UNL     1      48.262   8.909  16.445  0.00  0.00    +0.000 A 
ATOM     21  C   UNL     1      47.942   9.936  17.327  0.00  0.00    +0.000 A 
ATOM     22  C   UNL     1      48.448   9.886  18.612  0.00  0.00    +0.000 A 
ATOM     23  N   UNL     1      49.231   8.884  19.065  0.00  0.00    +0.000 NA
ATOM     24  C   UNL     1      49.529   7.903  18.188  0.00  0.00    +0.000 A 
ENDBRANCH  18  19
ENDBRANCH   9  18
TORSDOF 5
ENDMDL
MODEL 4
REMARK VINA RESULT:    -5.602      2.217      3.367
REMARK INTER + INTRA:          -7.689
REMARK INTER:                  -7.176
REMARK INTRA:                  -0.513
REMARK UNBOUND:                -0.613
REMARK  Name = 
REMARK  8 active torsions:
REMARK  status: ('A' for Active; 'I' for Inactive)
REMARK    1  A    between atoms: C_1  and  C_2
REMARK    2  A    between atoms: C_2  and  C_3
REMARK    3  A    between atoms: C_2  and  C_4
REMARK    4  A    between atoms: C_2  and  C_5
REMARK    5  A    between atoms: C_9  and  C_10
REMARK    6  A    between atoms: C_10  and  O_12
REMARK    7  A    between atoms: N_16  and  C_17
REMARK    8  A    between atoms: C_17  and  C_18
REMARK                            x       y       z     vdW  Elec       q    Type
REMARK                         _______ _______ _______ _____ _____    ______ ____
ROOT
ATOM      1  C   UNL     1      47.695   4.716  15.920  0.00  0.00    +0.000 A 
ATOM      2  N   UNL     1      46.938   4.020  15.084  0.00  0.00    +0.000 NA
ATOM      3  C   UNL     1      46.774   4.780  13.959  0.00  0.00    +0.000 A 
ATOM      4  C   UNL     1      46.029   4.505  12.800  0.00  0.00    +0.000 A 
ATOM      5  C   UNL     1      46.025   5.457  11.767  0.00  0.00    +0.000 A 
ATOM      6  C   UNL     1      46.748   6.649  11.895  0.00  0.00    +0.000 A 
ATOM      7  C   UNL     1      47.486   6.932  13.048  0.00  0.00    +0.000 A 
ATOM      8  C   UNL     1      47.462   5.977  14.074  0.00  0.00    +0.000 A 
ATOM      9  N   UNL     1      47.976   5.957  15.362  0.00  0.00    +0.000 N 
ENDROOT
BRANCH   1  11
ATOM     10  C   UNL     1      47.345   2.911  17.638  0.00  0.00    +0.000 C 
ATOM     11  C   UNL     1      48.159   4.180  17.278  0.00  0.00    +0.000 C 
ATOM     12  C   UNL     1      47.915   5.189  18.410  0.00  0.00    +0.000 C 
ATOM     13  C   UNL     1      49.637   3.756  17.234  0.00  0.00    +0.000 C 
ENDBRANCH   1  11
BRANCH   5  14
ATOM     14  C   UNL     1      45.209   5.275  10.542  0.00  0.00    +0.000 C 
ATOM     15  O   UNL     1      44.048   4.895  10.576  0.00  0.00    +0.000 OA
BRANCH  14  16
ATOM     16  O   UNL     1      45.842   5.605   9.398  0.00  0.00    +0.000 OA
ATOM     17  H   UNL     1      46.361   4.889   8.987  0.00  0.00    +0.000 HD
ENDBRANCH  14  16
ENDBRANCH   5  14
BRANCH   9  18
ATOM     18  C   UNL     1      48.666   7.093  15.962  0.00  0.00    +0.000 C 
BRANCH  18  19
ATOM     19  C   UNL     1      50.143   7.153  15.666  0.00  0.00    +0.000 A 
ATOM     20  C   UNL     1      51.131   6.538  16.443  0.00  0.00    +0.000 A 
ATOM     21  C   UNL     1      52.474   6.713  16.126  0.00  0.00    +0.000 A 
ATOM     22  C   UNL     1      52.799   7.506  15.040  0.00  0.00    +0.000 A 
ATOM     23  N   UNL     1      51.880   8.113  14.260  0.00  0.00    +0.000 NA
ATOM     24  C   UNL     1      50.585   7.928  14.593  0.00  0.00    +0.000 A 
ENDBRANCH  18  19
ENDBRANCH   9  18
TORSDOF 5
ENDMDL
MODEL 5
REMARK VINA RESULT:    -5.400      1.781      4.454
REMARK INTER + INTRA:          -7.434
REMARK INTER:                  -6.838
REMARK INTRA:                  -0.596
REMARK UNBOUND:                -0.613
REMARK  Name = 
REMARK  8 active torsions:
REMARK  status: ('A' for Active; 'I' for Inactive)
REMARK    1  A    between atoms: C_1  and  C_2
REMARK    2  A    between atoms: C_2  and  C_3
REMARK    3  A    between atoms: C_2  and  C_4
REMARK    4  A    between atoms: C_2  and  C_5
REMARK    5  A    between atoms: C_9  and  C_10
REMARK    6  A    between atoms: C_10  and  O_12
REMARK    7  A    between atoms: N_16  and  C_17
REMARK    8  A    between atoms: C_17  and  C_18
REMARK                            x       y       z     vdW  Elec       q    Type
REMARK                         _______ _______ _______ _____ _____    ______ ____
ROOT
ATOM      1  C   UNL     1      47.675   8.609  12.454  0.00  0.00    +0.000 A 
ATOM      2  N   UNL     1      46.522   8.622  11.802  0.00  0.00    +0.000 NA
ATOM      3  C   UNL     1      45.854   7.477  12.138  0.00  0.00    +0.000 A 
ATOM      4  C   UNL     1      44.609   7.008  11.686  0.00  0.00    +0.000 A 
ATOM      5  C   UNL     1      44.131   5.788  12.194  0.00  0.00    +0.000 A 
ATOM      6  C   UNL     1      44.881   5.062  13.128  0.00  0.00    +0.000 A 
ATOM      7  C   UNL     1      46.124   5.521  13.576  0.00  0.00    +0.000 A 
ATOM      8  C   UNL     1      46.590   6.731  13.044  0.00  0.00    +0.000 A 
ATOM      9  N   UNL     1      47.784   7.425  13.172  0.00  0.00    +0.000 N 
ENDROOT
BRANCH   1  11
ATOM     10  C   UNL     1      48.270  10.755  11.282  0.00  0.00    +0.000 C 
ATOM     11  C   UNL     1      48.689   9.756  12.391  0.00  0.00    +0.000 C 
ATOM     12  C   UNL     1      50.095   9.260  12.022  0.00  0.00    +0.000 C 
ATOM     13  C   UNL     1      48.718  10.549  13.709  0.00  0.00    +0.000 C 
ENDBRANCH   1  11
BRANCH   5  14
ATOM     14  C   UNL     1      42.861   5.189  11.717  0.00  0.00    +0.000 C 
ATOM     15  O   UNL     1      42.779   4.025  11.355  0.00  0.00    +0.000 OA
BRANCH  14  16
ATOM     16  O   UNL     1      41.802   6.023  11.758  0.00  0.00    +0.000 OA
ATOM     17  H   UNL     1      41.254   6.041  10.952  0.00  0.00    +0.000 HD
ENDBRANCH  14  16
ENDBRANCH   5  14
BRANCH   9  18
ATOM     18  C   UNL     1      48.920   6.921  13.935  0.00  0.00    +0.000 C 
BRANCH  18  19
ATOM     19  C   UNL     1      48.752   7.003  15.431  0.00  0.00    +0.000 A 
ATOM     20  C   UNL     1      48.765   8.194  16.164  0.00  0.00    +0.000 A 
ATOM     21  C   UNL     1      48.675   8.157  17.552  0.00  0.00    +0.000 A 
ATOM     22  C   UNL     1      48.580   6.927  18.176  0.00  0.00    +0.000 A 
ATOM     23  N   UNL     1      48.559   5.754  17.509  0.00  0.00    +0.000 NA
ATOM     24  C   UNL     1      48.651   5.819  16.164  0.00  0.00    +0.000 A 
ENDBRANCH  18  19
ENDBRANCH   9  18
TORSDOF 5
ENDMDL
MODEL 6
REMARK VINA RESULT:    -5.385      2.468      4.843
REMARK INTER + INTRA:          -7.414
REMARK INTER:                  -6.981
REMARK INTRA:                  -0.433
REMARK UNBOUND:                -0.613
REMARK  Name = 
REMARK  8 active torsions:
REMARK  status: ('A' for Active; 'I' for Inactive)
REMARK    1  A    between atoms: C_1  and  C_2
REMARK    2  A    between atoms: C_2  and  C_3
REMARK    3  A    between atoms: C_2  and  C_4
REMARK    4  A    between atoms: C_2  and  C_5
REMARK    5  A    between atoms: C_9  and  C_10
REMARK    6  A    between atoms: C_10  and  O_12
REMARK    7  A    between atoms: N_16  and  C_17
REMARK    8  A    between atoms: C_17  and  C_18
REMARK                            x       y       z     vdW  Elec       q    Type
REMARK                         _______ _______ _______ _____ _____    ______ ____
ROOT
ATOM      1  C   UNL     1      48.809   6.796  15.133  0.00  0.00    +0.000 A 
ATOM      2  N   UNL     1      48.585   7.045  13.851  0.00  0.00    +0.000 NA
ATOM      3  C   UNL     1      47.571   6.221  13.449  0.00  0.00    +0.000 A 
ATOM      4  C   UNL     1      46.993   6.076  12.177  0.00  0.00    +0.000 A 
ATOM      5  C   UNL     1      45.945   5.153  12.021  0.00  0.00    +0.000 A 
ATOM      6  C   UNL     1      45.491   4.399  13.111  0.00  0.00    +0.000 A 
ATOM      7  C   UNL     1      46.067   4.534  14.378  0.00  0.00    +0.000 A 
ATOM      8  C   UNL     1      47.123   5.447  14.508  0.00  0.00    +0.000 A 
ATOM      9  N   UNL     1      47.977   5.766  15.553  0.00  0.00    +0.000 N 
ENDROOT
BRANCH   1  11
ATOM     10  C   UNL     1      49.319   7.699  17.425  0.00  0.00    +0.000 C 
ATOM     11  C   UNL     1      49.836   7.563  15.971  0.00  0.00    +0.000 C 
ATOM     12  C   UNL     1      50.052   8.992  15.450  0.00  0.00    +0.000 C 
ATOM     13  C   UNL     1      51.172   6.804  16.048  0.00  0.00    +0.000 C 
ENDBRANCH   1  11
BRANCH   5  14
ATOM     14  C   UNL     1      45.328   4.889  10.698  0.00  0.00    +0.000 C 
ATOM     15  O   UNL     1      44.602   3.929  10.492  0.00  0.00    +0.000 OA
BRANCH  14  16
ATOM     16  O   UNL     1      45.601   5.820   9.761  0.00  0.00    +0.000 OA
ATOM     17  H   UNL     1      46.520   5.826   9.435  0.00  0.00    +0.000 HD
ENDBRANCH  14  16
ENDBRANCH   5  14
BRANCH   9  18
ATOM     18  C   UNL     1      47.953   5.078  16.839  0.00  0.00    +0.000 C 
BRANCH  18  19
ATOM     19  C   UNL     1      48.924   3.930  16.949  0.00  0.00    +0.000 A 
ATOM     20  C   UNL     1      50.149   3.992  17.623  0.00  0.00    +0.000 A 
ATOM     21  C   UNL     1      51.007   2.897  17.605  0.00  0.00    +0.000 A 
ATOM     22  C   UNL     1      50.623   1.767  16.908  0.00  0.00    +0.000 A 
ATOM     23  N   UNL     1      49.450   1.661  16.250  0.00  0.00    +0.000 NA
ATOM     24  C   UNL     1      48.638   2.739  16.281  0.00  0.00    +0.000 A 
ENDBRANCH  18  19
ENDBRANCH   9  18
TORSDOF 5
ENDMDL
MODEL 7
REMARK VINA RESULT:    -5.363      2.950      5.007
REMARK INTER + INTRA:          -7.387
REMARK INTER:                  -6.809
REMARK INTRA:                  -0.577
REMARK UNBOUND:                -0.613
REMARK  Name = 
REMARK  8 active torsions:
REMARK  status: ('A' for Active; 'I' for Inactive)
REMARK    1  A    between atoms: C_1  and  C_2
REMARK    2  A    between atoms: C_2  and  C_3
REMARK    3  A    between atoms: C_2  and  C_4
REMARK    4  A    between atoms: C_2  and  C_5
REMARK    5  A    between atoms: C_9  and  C_10
REMARK    6  A    between atoms: C_10  and  O_12
REMARK    7  A    between atoms: N_16  and  C_17
REMARK    8  A    between atoms: C_17  and  C_18
REMARK                            x       y       z     vdW  Elec       q    Type
REMARK                         _______ _______ _______ _____ _____    ______ ____
ROOT
ATOM      1  C   UNL     1      46.019   4.756  12.990  0.00  0.00    +0.000 A 
ATOM      2  N   UNL     1      46.363   3.625  13.588  0.00  0.00    +0.000 NA
ATOM      3  C   UNL     1      47.145   3.955  14.660  0.00  0.00    +0.000 A 
ATOM      4  C   UNL     1      47.786   3.116  15.586  0.00  0.00    +0.000 A 
ATOM      5  C   UNL     1      48.538   3.708  16.615  0.00  0.00    +0.000 A 
ATOM      6  C   UNL     1      48.642   5.101  16.710  0.00  0.00    +0.000 A 
ATOM      7  C   UNL     1      48.012   5.942  15.787  0.00  0.00    +0.000 A 
ATOM      8  C   UNL     1      47.281   5.330  14.758  0.00  0.00    +0.000 A 
ATOM      9  N   UNL     1      46.626   5.823  13.640  0.00  0.00    +0.000 N 
ENDROOT
BRANCH   1  11
ATOM     10  C   UNL     1      43.767   5.524  12.170  0.00  0.00    +0.000 C 
ATOM     11  C   UNL     1      45.087   4.815  11.776  0.00  0.00    +0.000 C 
ATOM     12  C   UNL     1      44.698   3.413  11.281  0.00  0.00    +0.000 C 
ATOM     13  C   UNL     1      45.707   5.642  10.636  0.00  0.00    +0.000 C 
ENDBRANCH   1  11
BRANCH   5  14
ATOM     14  C   UNL     1      49.302   2.893  17.591  0.00  0.00    +0.000 C 
ATOM     15  O   UNL     1      50.262   2.210  17.268  0.00  0.00    +0.000 OA
BRANCH  14  16
ATOM     16  O   UNL     1      48.874   3.004  18.865  0.00  0.00    +0.000 OA
ATOM     17  H   UNL     1      49.554   2.857  19.548  0.00  0.00    +0.000 HD
ENDBRANCH  14  16
ENDBRANCH   5  14
BRANCH   9  18
ATOM     18  C   UNL     1      46.636   7.233  13.268  0.00  0.00    +0.000 C 
BRANCH  18  19
ATOM     19  C   UNL     1      47.989   7.763  12.865  0.00  0.00    +0.000 A 
ATOM     20  C   UNL     1      48.805   7.185  11.887  0.00  0.00    +0.000 A 
ATOM     21  C   UNL     1      50.070   7.709  11.639  0.00  0.00    +0.000 A 
ATOM     22  C   UNL     1      50.492   8.796  12.381  0.00  0.00    +0.000 A 
ATOM     23  N   UNL     1      49.736   9.389  13.330  0.00  0.00    +0.000 NA
ATOM     24  C   UNL     1      48.515   8.858  13.552  0.00  0.00    +0.000 A 
ENDBRANCH  18  19
ENDBRANCH   9  18
TORSDOF 5
ENDMDL
MODEL 8
REMARK VINA RESULT:    -5.230      2.619      4.285
REMARK INTER + INTRA:          -7.219
REMARK INTER:                  -6.807
REMARK INTRA:                  -0.412
REMARK UNBOUND:                -0.613
REMARK  Name = 
REMARK  8 active torsions:
REMARK  status: ('A' for Active; 'I' for Inactive)
REMARK    1  A    between atoms: C_1  and  C_2
REMARK    2  A    between atoms: C_2  and  C_3
REMARK    3  A    between atoms: C_2  and  C_4
REMARK    4  A    between atoms: C_2  and  C_5
REMARK    5  A    between atoms: C_9  and  C_10
REMARK    6  A    between atoms: C_10  and  O_12
REMARK    7  A    between atoms: N_16  and  C_17
REMARK    8  A    between atoms: C_17  and  C_18
REMARK                            x       y       z     vdW  Elec       q    Type
REMARK                         _______ _______ _______ _____ _____    ______ ____
ROOT
ATOM      1  C   UNL     1      44.441   8.838  11.430  0.00  0.00    +0.000 A 
ATOM      2  N   UNL     1      43.774   7.893  10.783  0.00  0.00    +0.000 NA
ATOM      3  C   UNL     1      44.078   6.701  11.379  0.00  0.00    +0.000 A 
ATOM      4  C   UNL     1      43.656   5.404  11.042  0.00  0.00    +0.000 A 
ATOM      5  C   UNL     1      44.111   4.330  11.825  0.00  0.00    +0.000 A 
ATOM      6  C   UNL     1      44.963   4.552  12.914  0.00  0.00    +0.000 A 
ATOM      7  C   UNL     1      45.392   5.840  13.250  0.00  0.00    +0.000 A 
ATOM      8  C   UNL     1      44.941   6.896  12.445  0.00  0.00    +0.000 A 
ATOM      9  N   UNL     1      45.228   8.252  12.414  0.00  0.00    +0.000 N 
ENDROOT
BRANCH   1  11
ATOM     10  C   UNL     1      43.943  10.499   9.607  0.00  0.00    +0.000 C 
ATOM     11  C   UNL     1      44.319  10.328  11.101  0.00  0.00    +0.000 C 
ATOM     12  C   UNL     1      45.647  11.074  11.303  0.00  0.00    +0.000 C 
ATOM     13  C   UNL     1      43.193  10.989  11.915  0.00  0.00    +0.000 C 
ENDBRANCH   1  11
BRANCH   5  14
ATOM     14  C   UNL     1      43.769   2.925  11.495  0.00  0.00    +0.000 C 
ATOM     15  O   UNL     1      43.786   2.496  10.351  0.00  0.00    +0.000 OA
BRANCH  14  16
ATOM     16  O   UNL     1      43.482   2.156  12.565  0.00  0.00    +0.000 OA
ATOM     17  H   UNL     1      42.567   2.225  12.895  0.00  0.00    +0.000 HD
ENDBRANCH  14  16
ENDBRANCH   5  14
BRANCH   9  18
ATOM     18  C   UNL     1      46.215   8.878  13.287  0.00  0.00    +0.000 C 
BRANCH  18  19
ATOM     19  C   UNL     1      47.641   8.483  13.000  0.00  0.00    +0.000 A 
ATOM     20  C   UNL     1      48.240   8.545  11.737  0.00  0.00    +0.000 A 
ATOM     21  C   UNL     1      49.543   8.088  11.564  0.00  0.00    +0.000 A 
ATOM     22  C   UNL     1      50.214   7.573  12.657  0.00  0.00    +0.000 A 
ATOM     23  N   UNL     1      49.678   7.500  13.893  0.00  0.00    +0.000 NA
ATOM     24  C   UNL     1      48.412   7.947  14.033  0.00  0.00    +0.000 A 
ENDBRANCH  18  19
ENDBRANCH   9  18
TORSDOF 5
ENDMDL
MODEL 9
REMARK VINA RESULT:    -4.634      2.015      4.735
REMARK INTER + INTRA:          -6.466
REMARK INTER:                  -6.027
REMARK INTRA:                  -0.439
REMARK UNBOUND:                -0.613
REMARK  Name = 
REMARK  8 active torsions:
REMARK  status: ('A' for Active; 'I' for Inactive)
REMARK    1  A    between atoms: C_1  and  C_2
REMARK    2  A    between atoms: C_2  and  C_3
REMARK    3  A    between atoms: C_2  and  C_4
REMARK    4  A    between atoms: C_2  and  C_5
REMARK    5  A    between atoms: C_9  and  C_10
REMARK    6  A    between atoms: C_10  and  O_12
REMARK    7  A    between atoms: N_16  and  C_17
REMARK    8  A    between atoms: C_17  and  C_18
REMARK                            x       y       z     vdW  Elec       q    Type
REMARK                         _______ _______ _______ _____ _____    ______ ____
ROOT
ATOM      1  C   UNL     1      48.384   8.375  13.995  0.00  0.00    +0.000 A 
ATOM      2  N   UNL     1      47.500   8.380  13.008  0.00  0.00    +0.000 NA
ATOM      3  C   UNL     1      46.971   7.121  12.932  0.00  0.00    +0.000 A 
ATOM      4  C   UNL     1      46.025   6.607  12.030  0.00  0.00    +0.000 A 
ATOM      5  C   UNL     1      45.634   5.264  12.166  0.00  0.00    +0.000 A 
ATOM      6  C   UNL     1      46.178   4.463  13.178  0.00  0.00    +0.000 A 
ATOM      7  C   UNL     1      47.125   4.967  14.075  0.00  0.00    +0.000 A 
ATOM      8  C   UNL     1      47.515   6.304  13.910  0.00  0.00    +0.000 A 
ATOM      9  N   UNL     1      48.473   7.094  14.527  0.00  0.00    +0.000 N 
ENDROOT
BRANCH   1  11
ATOM     10  C   UNL     1      48.667  10.056  15.846  0.00  0.00    +0.000 C 
ATOM     11  C   UNL     1      49.153   9.623  14.440  0.00  0.00    +0.000 C 
ATOM     12  C   UNL     1      48.903  10.816  13.505  0.00  0.00    +0.000 C 
ATOM     13  C   UNL     1      50.659   9.334  14.566  0.00  0.00    +0.000 C 
ENDBRANCH   1  11
BRANCH   5  14
ATOM     14  C   UNL     1      44.694   4.624  11.214  0.00  0.00    +0.000 C 
ATOM     15  O   UNL     1      44.487   3.420  11.203  0.00  0.00    +0.000 OA
BRANCH  14  16
ATOM     16  O   UNL     1      44.059   5.487  10.394  0.00  0.00    +0.000 OA
ATOM     17  H   UNL     1      43.088   5.508  10.483  0.00  0.00    +0.000 HD
ENDBRANCH  14  16
ENDBRANCH   5  14
BRANCH   9  18
ATOM     18  C   UNL     1      49.392   6.588  15.539  0.00  0.00    +0.000 C 
BRANCH  18  19
ATOM     19  C   UNL     1      48.757   6.323  16.881  0.00  0.00    +0.000 A 
ATOM     20  C   UNL     1      48.367   7.320  17.782  0.00  0.00    +0.000 A 
ATOM     21  C   UNL     1      47.856   6.969  19.027  0.00  0.00    +0.000 A 
ATOM     22  C   UNL     1      47.753   5.628  19.346  0.00  0.00    +0.000 A 
ATOM     23  N   UNL     1      48.111   4.633  18.507  0.00  0.00    +0.000 NA
ATOM     24  C   UNL     1      48.607   5.002  17.306  0.00  0.00    +0.000 A 
ENDBRANCH  18  19
ENDBRANCH   9  18
TORSDOF 5
ENDMDL
