MODEL 1
REMARK VINA RESULT:    -8.947      0.000      0.000
REMARK INTER + INTRA:         -12.917
REMARK INTER:                 -12.085
REMARK INTRA:                  -0.832
REMARK UNBOUND:                -0.832
REMARK  Name = 
REMARK  7 active torsions:
REMARK  status: ('A' for Active; 'I' for Inactive)
REMARK    1  A    between atoms: C_1  and  C_2
REMARK    2  A    between atoms: C_2  and  N_3
REMARK    3  A    between atoms: C_2  and  C_16
REMARK    4  A    between atoms: C_4  and  C_6
REMARK    5  A    between atoms: C_19  and  O_20
REMARK    6  A    between atoms: O_20  and  C_21
REMARK    7  A    between atoms: C_21  and  C_22
REMARK                            x       y       z     vdW  Elec       q    Type
REMARK                         _______ _______ _______ _____ _____    ______ ____
ROOT
ATOM      1  C   UNL     1      45.614   8.878  12.930  0.00  0.00    +0.000 C 
ATOM      2  C   UNL     1      46.643   7.755  12.751  0.00  0.00    +0.000 C 
ENDROOT
BRANCH   2   3
ATOM      3  C   UNL     1      46.031   6.623  11.939  0.00  0.00    +0.000 A 
ATOM      4  C   UNL     1      45.131   5.715  12.512  0.00  0.00    +0.000 A 
ATOM      5  C   UNL     1      44.514   4.738  11.721  0.00  0.00    +0.000 A 
ATOM      6  C   UNL     1      44.781   4.666  10.353  0.00  0.00    +0.000 A 
ATOM      7  C   UNL     1      45.736   5.514   9.796  0.00  0.00    +0.000 A 
ATOM      8  C   UNL     1      46.339   6.496  10.576  0.00  0.00    +0.000 A 
BRANCH   6   9
ATOM      9  O   UNL     1      44.048   3.758   9.635  0.00  0.00    +0.000 OA
BRANCH   9  10
ATOM     10  C   UNL     1      44.643   2.453   9.568  0.00  0.00    +0.000 C 
BRANCH  10  11
ATOM     11  C   UNL     1      45.591   2.316   8.403  0.00  0.00    +0.000 A 
ATOM     12  C   UNL     1      45.668   3.288   7.413  0.00  0.00    +0.000 A 
ATOM     13  C   UNL     1      46.546   3.095   6.351  0.00  0.00    +0.000 A 
ATOM     14  C   UNL     1      47.313   1.936   6.298  0.00  0.00    +0.000 A 
ATOM     15  C   UNL     1      47.161   1.007   7.311  0.00  0.00    +0.000 A 
ATOM     16  N   UNL     1      46.319   1.167   8.353  0.00  0.00    +0.000 NA
ENDBRANCH  10  11
ENDBRANCH   9  10
ENDBRANCH   6   9
ENDBRANCH   2   3
BRANCH   2  17
ATOM     17  N   UNL     1      47.113   7.216  14.021  0.00  0.00    +0.000 N 
ATOM     18  C   UNL     1      48.383   6.740  14.212  0.00  0.00    +0.000 C 
ATOM     19  O   UNL     1      49.245   6.770  13.335  0.00  0.00    +0.000 OA
ATOM     20  H   UNL     1      46.389   6.892  14.657  0.00  0.00    +0.000 HD
BRANCH  18  21
ATOM     21  C   UNL     1      48.700   6.258  15.561  0.00  0.00    +0.000 A 
ATOM     22  C   UNL     1      49.610   6.956  16.343  0.00  0.00    +0.000 A 
ATOM     23  S   UNL     1      49.854   6.270  17.885  0.00  0.00    +0.000 S 
ATOM     24  C   UNL     1      48.783   4.991  17.544  0.00  0.00    +0.000 A 
ATOM     25  N   UNL     1      48.561   4.004  18.453  0.00  0.00    +0.000 NA
ATOM     26  C   UNL     1      47.754   3.080  18.048  0.00  0.00    +0.000 A 
ATOM     27  N   UNL     1      47.138   3.062  16.822  0.00  0.00    +0.000 N 
ATOM     28  C   UNL     1      47.302   4.059  15.890  0.00  0.00    +0.000 A 
ATOM     29  O   UNL     1      46.688   4.053  14.828  0.00  0.00    +0.000 OA
ATOM     30  C   UNL     1      48.225   5.104  16.284  0.00  0.00    +0.000 A 
ATOM     31  H   UNL     1      46.501   2.319  16.575  0.00  0.00    +0.000 HD
ENDBRANCH  18  21
ENDBRANCH   2  17
TORSDOF 6
ENDMDL
MODEL 2
REMARK VINA RESULT:    -8.358      1.978      2.644
REMARK INTER + INTRA:         -12.121
REMARK INTER:                 -11.118
REMARK INTRA:                  -1.003
REMARK UNBOUND:                -0.832
REMARK  Name = 
REMARK  7 active torsions:
REMARK  status: ('A' for Active; 'I' for Inactive)
REMARK    1  A    between atoms: C_1  and  C_2
REMARK    2  A    between atoms: C_2  and  N_3
REMARK    3  A    between atoms: C_2  and  C_16
REMARK    4  A    between atoms: C_4  and  C_6
REMARK    5  A    between atoms: C_19  and  O_20
REMARK    6  A    between atoms: O_20  and  C_21
REMARK    7  A    between atoms: C_21  and  C_22
REMARK                            x       y       z     vdW  Elec       q    Type
REMARK                         _______ _______ _______ _____ _____    ______ ____
ROOT
ATOM      1  C   UNL     1      46.950   8.269  13.568  0.00  0.00    +0.000 C 
ATOM      2  C   UNL     1      47.472   6.828  13.530  0.00  0.00    +0.000 C 
ENDROOT
BRANCH   2   3
ATOM      3  C   UNL     1      46.563   5.976  12.657  0.00  0.00    +0.000 A 
ATOM      4  C   UNL     1      46.197   6.382  11.367  0.00  0.00    +0.000 A 
ATOM      5  C   UNL     1      45.431   5.539  10.552  0.00  0.00    +0.000 A 
ATOM      6  C   UNL     1      45.035   4.283  11.012  0.00  0.00    +0.000 A 
ATOM      7  C   UNL     1      45.327   3.909  12.322  0.00  0.00    +0.000 A 
ATOM      8  C   UNL     1      46.101   4.738  13.130  0.00  0.00    +0.000 A 
BRANCH   6   9
ATOM      9  O   UNL     1      44.391   3.477  10.110  0.00  0.00    +0.000 OA
BRANCH   9  10
ATOM     10  C   UNL     1      44.533   3.903   8.746  0.00  0.00    +0.000 C 
BRANCH  10  11
ATOM     11  C   UNL     1      45.534   3.066   7.988  0.00  0.00    +0.000 A 
ATOM     12  C   UNL     1      45.880   1.789   8.413  0.00  0.00    +0.000 A 
ATOM     13  C   UNL     1      46.826   1.073   7.685  0.00  0.00    +0.000 A 
ATOM     14  C   UNL     1      47.409   1.653   6.564  0.00  0.00    +0.000 A 
ATOM     15  C   UNL     1      47.028   2.938   6.220  0.00  0.00    +0.000 A 
ATOM     16  N   UNL     1      46.113   3.654   6.906  0.00  0.00    +0.000 NA
ENDBRANCH  10  11
ENDBRANCH   9  10
ENDBRANCH   6   9
ENDBRANCH   2   3
BRANCH   2  17
ATOM     17  N   UNL     1      47.549   6.224  14.853  0.00  0.00    +0.000 N 
ATOM     18  C   UNL     1      48.700   6.183  15.596  0.00  0.00    +0.000 C 
ATOM     19  O   UNL     1      49.753   6.694  15.221  0.00  0.00    +0.000 OA
ATOM     20  H   UNL     1      46.827   5.542  15.069  0.00  0.00    +0.000 HD
BRANCH  18  21
ATOM     21  C   UNL     1      48.597   5.561  16.921  0.00  0.00    +0.000 A 
ATOM     22  C   UNL     1      48.760   4.189  17.049  0.00  0.00    +0.000 A 
ATOM     23  S   UNL     1      48.623   3.631  18.654  0.00  0.00    +0.000 S 
ATOM     24  C   UNL     1      48.299   5.200  19.228  0.00  0.00    +0.000 A 
ATOM     25  N   UNL     1      48.043   5.425  20.546  0.00  0.00    +0.000 NA
ATOM     26  C   UNL     1      47.780   6.656  20.834  0.00  0.00    +0.000 A 
ATOM     27  N   UNL     1      47.762   7.685  19.927  0.00  0.00    +0.000 N 
ATOM     28  C   UNL     1      48.054   7.512  18.595  0.00  0.00    +0.000 A 
ATOM     29  O   UNL     1      48.097   8.458  17.818  0.00  0.00    +0.000 OA
ATOM     30  C   UNL     1      48.325   6.139  18.214  0.00  0.00    +0.000 A 
ATOM     31  H   UNL     1      47.568   8.631  20.222  0.00  0.00    +0.000 HD
ENDBRANCH  18  21
ENDBRANCH   2  17
TORSDOF 6
ENDMDL
MODEL 3
REMARK VINA RESULT:    -8.168      1.858      2.348
REMARK INTER + INTRA:         -11.865
REMARK INTER:                 -10.891
REMARK INTRA:                  -0.974
REMARK UNBOUND:                -0.832
REMARK  Name = 
REMARK  7 active torsions:
REMARK  status: ('A' for Active; 'I' for Inactive)
REMARK    1  A    between atoms: C_1  and  C_2
REMARK    2  A    between atoms: C_2  and  N_3
REMARK    3  A    between atoms: C_2  and  C_16
REMARK    4  A    between atoms: C_4  and  C_6
REMARK    5  A    between atoms: C_19  and  O_20
REMARK    6  A    between atoms: O_20  and  C_21
REMARK    7  A    between atoms: C_21  and  C_22
REMARK                            x       y       z     vdW  Elec       q    Type
REMARK                         _______ _______ _______ _____ _____    ______ ____
ROOT
ATOM      1  C   UNL     1      48.486   8.616  13.074  0.00  0.00    +0.000 C 
ATOM      2  C   UNL     1      48.500   7.179  13.610  0.00  0.00    +0.000 C 
ENDROOT
BRANCH   2   3
ATOM      3  C   UNL     1      47.437   6.356  12.898  0.00  0.00    +0.000 A 
ATOM      4  C   UNL     1      46.993   5.132  13.414  0.00  0.00    +0.000 A 
ATOM      5  C   UNL     1      45.951   4.437  12.786  0.00  0.00    +0.000 A 
ATOM      6  C   UNL     1      45.339   4.962  11.648  0.00  0.00    +0.000 A 
ATOM      7  C   UNL     1      45.831   6.138  11.086  0.00  0.00    +0.000 A 
ATOM      8  C   UNL     1      46.856   6.839  11.715  0.00  0.00    +0.000 A 
BRANCH   6   9
ATOM      9  O   UNL     1      44.253   4.278  11.168  0.00  0.00    +0.000 OA
BRANCH   9  10
ATOM     10  C   UNL     1      44.030   4.457   9.761  0.00  0.00    +0.000 C 
BRANCH  10  11
ATOM     11  C   UNL     1      44.967   3.623   8.924  0.00  0.00    +0.000 A 
ATOM     12  C   UNL     1      45.129   2.262   9.155  0.00  0.00    +0.000 A 
ATOM     13  C   UNL     1      46.025   1.549   8.364  0.00  0.00    +0.000 A 
ATOM     14  C   UNL     1      46.742   2.213   7.375  0.00  0.00    +0.000 A 
ATOM     15  C   UNL     1      46.541   3.573   7.223  0.00  0.00    +0.000 A 
ATOM     16  N   UNL     1      45.679   4.289   7.974  0.00  0.00    +0.000 NA
ENDBRANCH  10  11
ENDBRANCH   9  10
ENDBRANCH   6   9
ENDBRANCH   2   3
BRANCH   2  17
ATOM     17  N   UNL     1      48.259   7.113  15.045  0.00  0.00    +0.000 N 
ATOM     18  C   UNL     1      49.239   6.832  15.961  0.00  0.00    +0.000 C 
ATOM     19  O   UNL     1      50.414   6.655  15.645  0.00  0.00    +0.000 OA
ATOM     20  H   UNL     1      47.295   6.946  15.322  0.00  0.00    +0.000 HD
BRANCH  18  21
ATOM     21  C   UNL     1      48.830   6.830  17.370  0.00  0.00    +0.000 A 
ATOM     22  C   UNL     1      48.389   8.008  17.957  0.00  0.00    +0.000 A 
ATOM     23  S   UNL     1      47.940   7.829  19.593  0.00  0.00    +0.000 S 
ATOM     24  C   UNL     1      48.362   6.180  19.584  0.00  0.00    +0.000 A 
ATOM     25  N   UNL     1      48.254   5.424  20.709  0.00  0.00    +0.000 NA
ATOM     26  C   UNL     1      48.641   4.200  20.567  0.00  0.00    +0.000 A 
ATOM     27  N   UNL     1      49.113   3.660  19.398  0.00  0.00    +0.000 N 
ATOM     28  C   UNL     1      49.201   4.375  18.227  0.00  0.00    +0.000 A 
ATOM     29  O   UNL     1      49.564   3.852  17.180  0.00  0.00    +0.000 OA
ATOM     30  C   UNL     1      48.808   5.766  18.342  0.00  0.00    +0.000 A 
ATOM     31  H   UNL     1      49.381   2.688  19.348  0.00  0.00    +0.000 HD
ENDBRANCH  18  21
ENDBRANCH   2  17
TORSDOF 6
ENDMDL
MODEL 4
REMARK VINA RESULT:    -7.802      2.738      3.942
REMARK INTER + INTRA:         -11.372
REMARK INTER:                 -10.261
REMARK INTRA:                  -1.111
REMARK UNBOUND:                -0.832
REMARK  Name = 
REMARK  7 active torsions:
REMARK  status: ('A' for Active; 'I' for Inactive)
REMARK    1  A    between atoms: C_1  and  C_2
REMARK    2  A    between atoms: C_2  and  N_3
REMARK    3  A    between atoms: C_2  and  C_16
REMARK    4  A    between atoms: C_4  and  C_6
REMARK    5  A    between atoms: C_19  and  O_20
REMARK    6  A    between atoms: O_20  and  C_21
REMARK    7  A    between atoms: C_21  and  C_22
REMARK                            x       y       z     vdW  Elec       q    Type
REMARK                         _______ _______ _______ _____ _____    ______ ____
ROOT
ATOM      1  C   UNL     1      47.152   4.630  15.165  0.00  0.00    +0.000 C 
ATOM      2  C   UNL     1      46.852   5.725  14.134  0.00  0.00    +0.000 C 
ENDROOT
BRANCH   2   3
ATOM      3  C   UNL     1      46.200   5.107  12.906  0.00  0.00    +0.000 A 
ATOM      4  C   UNL     1      45.808   3.762  12.884  0.00  0.00    +0.000 A 
ATOM      5  C   UNL     1      45.130   3.242  11.774  0.00  0.00    +0.000 A 
ATOM      6  C   UNL     1      44.829   4.060  10.685  0.00  0.00    +0.000 A 
ATOM      7  C   UNL     1      45.288   5.376  10.668  0.00  0.00    +0.000 A 
ATOM      8  C   UNL     1      45.948   5.900  11.776  0.00  0.00    +0.000 A 
BRANCH   6   9
ATOM      9  O   UNL     1      44.062   3.503   9.696  0.00  0.00    +0.000 OA
BRANCH   9  10
ATOM     10  C   UNL     1      44.491   2.191   9.298  0.00  0.00    +0.000 C 
BRANCH  10  11
ATOM     11  C   UNL     1      45.586   2.238   8.262  0.00  0.00    +0.000 A 
ATOM     12  C   UNL     1      45.745   3.336   7.426  0.00  0.00    +0.000 A 
ATOM     13  C   UNL     1      46.761   3.312   6.474  0.00  0.00    +0.000 A 
ATOM     14  C   UNL     1      47.578   2.192   6.373  0.00  0.00    +0.000 A 
ATOM     15  C   UNL     1      47.340   1.131   7.228  0.00  0.00    +0.000 A 
ATOM     16  N   UNL     1      46.365   1.127   8.160  0.00  0.00    +0.000 NA
ENDBRANCH  10  11
ENDBRANCH   9  10
ENDBRANCH   6   9
ENDBRANCH   2   3
BRANCH   2  17
ATOM     17  N   UNL     1      48.047   6.445  13.716  0.00  0.00    +0.000 N 
ATOM     18  C   UNL     1      48.107   7.810  13.618  0.00  0.00    +0.000 C 
ATOM     19  O   UNL     1      47.165   8.541  13.919  0.00  0.00    +0.000 OA
ATOM     20  H   UNL     1      48.721   5.906  13.179  0.00  0.00    +0.000 HD
BRANCH  18  21
ATOM     21  C   UNL     1      49.397   8.377  13.207  0.00  0.00    +0.000 A 
ATOM     22  C   UNL     1      49.457   9.215  12.103  0.00  0.00    +0.000 A 
ATOM     23  S   UNL     1      51.026   9.796  11.771  0.00  0.00    +0.000 S 
ATOM     24  C   UNL     1      51.685   8.912  13.067  0.00  0.00    +0.000 A 
ATOM     25  N   UNL     1      53.021   8.936  13.323  0.00  0.00    +0.000 NA
ATOM     26  C   UNL     1      53.386   8.193  14.314  0.00  0.00    +0.000 A 
ATOM     27  N   UNL     1      52.536   7.438  15.081  0.00  0.00    +0.000 N 
ATOM     28  C   UNL     1      51.176   7.415  14.884  0.00  0.00    +0.000 A 
ATOM     29  O   UNL     1      50.430   6.784  15.625  0.00  0.00    +0.000 OA
ATOM     30  C   UNL     1      50.717   8.209  13.761  0.00  0.00    +0.000 A 
ATOM     31  H   UNL     1      52.884   6.893  15.855  0.00  0.00    +0.000 HD
ENDBRANCH  18  21
ENDBRANCH   2  17
TORSDOF 6
ENDMDL
MODEL 5
REMARK VINA RESULT:    -7.757      2.591      4.268
REMARK INTER + INTRA:         -11.310
REMARK INTER:                 -10.081
REMARK INTRA:                  -1.229
REMARK UNBOUND:                -0.832
REMARK  Name = 
REMARK  7 active torsions:
REMARK  status: ('A' for Active; 'I' for Inactive)
REMARK    1  A    between atoms: C_1  and  C_2
REMARK    2  A    between atoms: C_2  and  N_3
REMARK    3  A    between atoms: C_2  and  C_16
REMARK    4  A    between atoms: C_4  and  C_6
REMARK    5  A    between atoms: C_19  and  O_20
REMARK    6  A    between atoms: O_20  and  C_21
REMARK    7  A    between atoms: C_21  and  C_22
REMARK                            x       y       z     vdW  Elec       q    Type
REMARK                         _______ _______ _______ _____ _____    ______ ____
ROOT
ATOM      1  C   UNL     1      47.331   4.388  15.407  0.00  0.00    +0.000 C 
ATOM      2  C   UNL     1      47.097   5.578  14.468  0.00  0.00    +0.000 C 
ENDROOT
BRANCH   2   3
ATOM      3  C   UNL     1      46.416   5.100  13.194  0.00  0.00    +0.000 A 
ATOM      4  C   UNL     1      45.908   3.799  13.081  0.00  0.00    +0.000 A 
ATOM      5  C   UNL     1      45.208   3.412  11.931  0.00  0.00    +0.000 A 
ATOM      6  C   UNL     1      45.000   4.321  10.893  0.00  0.00    +0.000 A 
ATOM      7  C   UNL     1      45.573   5.589  10.967  0.00  0.00    +0.000 A 
ATOM      8  C   UNL     1      46.256   5.981  12.114  0.00  0.00    +0.000 A 
BRANCH   6   9
ATOM      9  O   UNL     1      44.206   3.897   9.860  0.00  0.00    +0.000 OA
BRANCH   9  10
ATOM     10  C   UNL     1      44.438   2.534   9.470  0.00  0.00    +0.000 C 
BRANCH  10  11
ATOM     11  C   UNL     1      45.486   2.419   8.391  0.00  0.00    +0.000 A 
ATOM     12  C   UNL     1      45.690   3.438   7.469  0.00  0.00    +0.000 A 
ATOM     13  C   UNL     1      46.657   3.264   6.482  0.00  0.00    +0.000 A 
ATOM     14  C   UNL     1      47.380   2.078   6.433  0.00  0.00    +0.000 A 
ATOM     15  C   UNL     1      47.100   1.103   7.374  0.00  0.00    +0.000 A 
ATOM     16  N   UNL     1      46.171   1.244   8.341  0.00  0.00    +0.000 NA
ENDBRANCH  10  11
ENDBRANCH   9  10
ENDBRANCH   6   9
ENDBRANCH   2   3
BRANCH   2  17
ATOM     17  N   UNL     1      48.332   6.261  14.109  0.00  0.00    +0.000 N 
ATOM     18  C   UNL     1      48.922   7.214  14.898  0.00  0.00    +0.000 C 
ATOM     19  O   UNL     1      48.476   7.538  15.997  0.00  0.00    +0.000 OA
ATOM     20  H   UNL     1      48.563   6.263  13.119  0.00  0.00    +0.000 HD
BRANCH  18  21
ATOM     21  C   UNL     1      50.179   7.784  14.399  0.00  0.00    +0.000 A 
ATOM     22  C   UNL     1      51.344   7.624  15.136  0.00  0.00    +0.000 A 
ATOM     23  S   UNL     1      52.714   8.334  14.410  0.00  0.00    +0.000 S 
ATOM     24  C   UNL     1      51.787   8.916  13.106  0.00  0.00    +0.000 A 
ATOM     25  N   UNL     1      52.357   9.659  12.119  0.00  0.00    +0.000 NA
ATOM     26  C   UNL     1      51.530  10.063  11.213  0.00  0.00    +0.000 A 
ATOM     27  N   UNL     1      50.189   9.779  11.195  0.00  0.00    +0.000 N 
ATOM     28  C   UNL     1      49.578   8.999  12.149  0.00  0.00    +0.000 A 
ATOM     29  O   UNL     1      48.391   8.705  12.075  0.00  0.00    +0.000 OA
ATOM     30  C   UNL     1      50.459   8.547  13.208  0.00  0.00    +0.000 A 
ATOM     31  H   UNL     1      49.599  10.110  10.445  0.00  0.00    +0.000 HD
ENDBRANCH  18  21
ENDBRANCH   2  17
TORSDOF 6
ENDMDL
MODEL 6
REMARK VINA RESULT:    -7.348      3.034      8.215
REMARK INTER + INTRA:         -10.758
REMARK INTER:                  -9.620
REMARK INTRA:                  -1.137
REMARK UNBOUND:                -0.832
REMARK  Name = 
REMARK  7 active torsions:
REMARK  status: ('A' for Active; 'I' for Inactive)
REMARK    1  A    between atoms: C_1  and  C_2
REMARK    2  A    between atoms: C_2  and  N_3
REMARK    3  A    between atoms: C_2  and  C_16
REMARK    4  A    between atoms: C_4  and  C_6
REMARK    5  A    between atoms: C_19  and  O_20
REMARK    6  A    between atoms: O_20  and  C_21
REMARK    7  A    between atoms: C_21  and  C_22
REMARK                            x       y       z     vdW  Elec       q    Type
REMARK                         _______ _______ _______ _____ _____    ______ ____
ROOT
ATOM      1  C   UNL     1      48.976   7.800  11.475  0.00  0.00    +0.000 C 
ATOM      2  C   UNL     1      47.944   7.466  12.558  0.00  0.00    +0.000 C 
ENDROOT
BRANCH   2   3
ATOM      3  C   UNL     1      48.655   7.176  13.872  0.00  0.00    +0.000 A 
ATOM      4  C   UNL     1      48.092   6.332  14.837  0.00  0.00    +0.000 A 
ATOM      5  C   UNL     1      48.806   6.012  15.999  0.00  0.00    +0.000 A 
ATOM      6  C   UNL     1      50.089   6.521  16.200  0.00  0.00    +0.000 A 
ATOM      7  C   UNL     1      50.620   7.426  15.282  0.00  0.00    +0.000 A 
ATOM      8  C   UNL     1      49.919   7.734  14.120  0.00  0.00    +0.000 A 
BRANCH   6   9
ATOM      9  O   UNL     1      50.762   6.065  17.303  0.00  0.00    +0.000 OA
BRANCH   9  10
ATOM     10  C   UNL     1      50.136   4.941  17.941  0.00  0.00    +0.000 C 
BRANCH  10  11
ATOM     11  C   UNL     1      50.970   3.688  17.839  0.00  0.00    +0.000 A 
ATOM     12  C   UNL     1      50.430   2.495  17.375  0.00  0.00    +0.000 A 
ATOM     13  C   UNL     1      51.243   1.366  17.323  0.00  0.00    +0.000 A 
ATOM     14  C   UNL     1      52.564   1.455  17.748  0.00  0.00    +0.000 A 
ATOM     15  C   UNL     1      53.019   2.674  18.218  0.00  0.00    +0.000 A 
ATOM     16  N   UNL     1      52.255   3.783  18.278  0.00  0.00    +0.000 NA
ENDBRANCH  10  11
ENDBRANCH   9  10
ENDBRANCH   6   9
ENDBRANCH   2   3
BRANCH   2  17
ATOM     17  N   UNL     1      47.118   6.317  12.211  0.00  0.00    +0.000 N 
ATOM     18  C   UNL     1      45.749   6.330  12.272  0.00  0.00    +0.000 C 
ATOM     19  O   UNL     1      45.105   7.330  12.583  0.00  0.00    +0.000 OA
ATOM     20  H   UNL     1      47.581   5.414  12.250  0.00  0.00    +0.000 HD
BRANCH  18  21
ATOM     21  C   UNL     1      45.069   5.096  11.862  0.00  0.00    +0.000 A 
ATOM     22  C   UNL     1      44.349   4.366  12.798  0.00  0.00    +0.000 A 
ATOM     23  S   UNL     1      43.611   2.970  12.155  0.00  0.00    +0.000 S 
ATOM     24  C   UNL     1      44.265   3.270  10.612  0.00  0.00    +0.000 A 
ATOM     25  N   UNL     1      44.044   2.412   9.580  0.00  0.00    +0.000 NA
ATOM     26  C   UNL     1      44.629   2.745   8.478  0.00  0.00    +0.000 A 
ATOM     27  N   UNL     1      45.402   3.865   8.310  0.00  0.00    +0.000 N 
ATOM     28  C   UNL     1      45.618   4.780   9.312  0.00  0.00    +0.000 A 
ATOM     29  O   UNL     1      46.258   5.807   9.119  0.00  0.00    +0.000 OA
ATOM     30  C   UNL     1      45.009   4.435  10.582  0.00  0.00    +0.000 A 
ATOM     31  H   UNL     1      45.816   4.079   7.414  0.00  0.00    +0.000 HD
ENDBRANCH  18  21
ENDBRANCH   2  17
TORSDOF 6
ENDMDL
MODEL 7
REMARK VINA RESULT:    -7.332      3.226      7.884
REMARK INTER + INTRA:         -10.736
REMARK INTER:                  -9.673
REMARK INTRA:                  -1.063
REMARK UNBOUND:                -0.832
REMARK  Name = 
REMARK  7 active torsions:
REMARK  status: ('A' for Active; 'I' for Inactive)
REMARK    1  A    between atoms: C_1  and  C_2
REMARK    2  A    between atoms: C_2  and  N_3
REMARK    3  A    between atoms: C_2  and  C_16
REMARK    4  A    between atoms: C_4  and  C_6
REMARK    5  A    between atoms: C_19  and  O_20
REMARK    6  A    between atoms: O_20  and  C_21
REMARK    7  A    between atoms: C_21  and  C_22
REMARK                            x       y       z     vdW  Elec       q    Type
REMARK                         _______ _______ _______ _____ _____    ______ ____
ROOT
ATOM      1  C   UNL     1      49.590   8.581  11.529  0.00  0.00    +0.000 C 
ATOM      2  C   UNL     1      48.462   8.036  12.413  0.00  0.00    +0.000 C 
ENDROOT
BRANCH   2   3
ATOM      3  C   UNL     1      49.044   7.497  13.712  0.00  0.00    +0.000 A 
ATOM      4  C   UNL     1      50.347   7.813  14.116  0.00  0.00    +0.000 A 
ATOM      5  C   UNL     1      50.827   7.377  15.358  0.00  0.00    +0.000 A 
ATOM      6  C   UNL     1      50.009   6.633  16.208  0.00  0.00    +0.000 A 
ATOM      7  C   UNL     1      48.741   6.248  15.776  0.00  0.00    +0.000 A 
ATOM      8  C   UNL     1      48.256   6.693  14.550  0.00  0.00    +0.000 A 
BRANCH   6   9
ATOM      9  O   UNL     1      50.515   6.349  17.449  0.00  0.00    +0.000 OA
BRANCH   9  10
ATOM     10  C   UNL     1      49.860   5.254  18.107  0.00  0.00    +0.000 C 
BRANCH  10  11
ATOM     11  C   UNL     1      50.592   3.949  17.913  0.00  0.00    +0.000 A 
ATOM     12  C   UNL     1      51.905   3.786  18.336  0.00  0.00    +0.000 A 
ATOM     13  C   UNL     1      52.536   2.566  18.110  0.00  0.00    +0.000 A 
ATOM     14  C   UNL     1      51.847   1.550  17.457  0.00  0.00    +0.000 A 
ATOM     15  C   UNL     1      50.550   1.800  17.046  0.00  0.00    +0.000 A 
ATOM     16  N   UNL     1      49.913   2.971  17.253  0.00  0.00    +0.000 NA
ENDBRANCH  10  11
ENDBRANCH   9  10
ENDBRANCH   6   9
ENDBRANCH   2   3
BRANCH   2  17
ATOM     17  N   UNL     1      47.704   6.974  11.765  0.00  0.00    +0.000 N 
ATOM     18  C   UNL     1      46.335   6.948  11.718  0.00  0.00    +0.000 C 
ATOM     19  O   UNL     1      45.636   7.845  12.183  0.00  0.00    +0.000 OA
ATOM     20  H   UNL     1      48.195   6.092  11.646  0.00  0.00    +0.000 HD
BRANCH  18  21
ATOM     21  C   UNL     1      45.731   5.818  11.002  0.00  0.00    +0.000 A 
ATOM     22  C   UNL     1      45.898   5.709   9.628  0.00  0.00    +0.000 A 
ATOM     23  S   UNL     1      45.145   4.334   8.956  0.00  0.00    +0.000 S 
ATOM     24  C   UNL     1      44.533   3.862  10.473  0.00  0.00    +0.000 A 
ATOM     25  N   UNL     1      43.749   2.757  10.598  0.00  0.00    +0.000 NA
ATOM     26  C   UNL     1      43.327   2.538  11.798  0.00  0.00    +0.000 A 
ATOM     27  N   UNL     1      43.629   3.314  12.888  0.00  0.00    +0.000 N 
ATOM     28  C   UNL     1      44.449   4.415  12.816  0.00  0.00    +0.000 A 
ATOM     29  O   UNL     1      44.758   5.054  13.815  0.00  0.00    +0.000 OA
ATOM     30  C   UNL     1      44.924   4.724  11.481  0.00  0.00    +0.000 A 
ATOM     31  H   UNL     1      43.282   3.076  13.805  0.00  0.00    +0.000 HD
ENDBRANCH  18  21
ENDBRANCH   2  17
TORSDOF 6
ENDMDL
MODEL 8
REMARK VINA RESULT:    -7.138      2.568      3.874
REMARK INTER + INTRA:         -10.474
REMARK INTER:                  -9.362
REMARK INTRA:                  -1.112
REMARK UNBOUND:                -0.832
REMARK  Name = 
REMARK  7 active torsions:
REMARK  status: ('A' for Active; 'I' for Inactive)
REMARK    1  A    between atoms: C_1  and  C_2
REMARK    2  A    between atoms: C_2  and  N_3
REMARK    3  A    between atoms: C_2  and  C_16
REMARK    4  A    between atoms: C_4  and  C_6
REMARK    5  A    between atoms: C_19  and  O_20
REMARK    6  A    between atoms: O_20  and  C_21
REMARK    7  A    between atoms: C_21  and  C_22
REMARK                            x       y       z     vdW  Elec       q    Type
REMARK                         _______ _______ _______ _____ _____    ______ ____
ROOT
ATOM      1  C   UNL     1      47.911   3.053  15.863  0.00  0.00    +0.000 C 
ATOM      2  C   UNL     1      47.160   4.389  15.801  0.00  0.00    +0.000 C 
ENDROOT
BRANCH   2   3
ATOM      3  C   UNL     1      46.766   4.690  14.363  0.00  0.00    +0.000 A 
ATOM      4  C   UNL     1      45.843   3.892  13.675  0.00  0.00    +0.000 A 
ATOM      5  C   UNL     1      45.431   4.242  12.383  0.00  0.00    +0.000 A 
ATOM      6  C   UNL     1      45.928   5.394  11.773  0.00  0.00    +0.000 A 
ATOM      7  C   UNL     1      46.907   6.145  12.420  0.00  0.00    +0.000 A 
ATOM      8  C   UNL     1      47.306   5.809  13.710  0.00  0.00    +0.000 A 
BRANCH   6   9
ATOM      9  O   UNL     1      45.385   5.725  10.559  0.00  0.00    +0.000 OA
BRANCH   9  10
ATOM     10  C   UNL     1      44.539   4.706  10.004  0.00  0.00    +0.000 C 
BRANCH  10  11
ATOM     11  C   UNL     1      45.278   3.812   9.040  0.00  0.00    +0.000 A 
ATOM     12  C   UNL     1      45.276   2.430   9.187  0.00  0.00    +0.000 A 
ATOM     13  C   UNL     1      45.994   1.658   8.278  0.00  0.00    +0.000 A 
ATOM     14  C   UNL     1      46.704   2.283   7.260  0.00  0.00    +0.000 A 
ATOM     15  C   UNL     1      46.675   3.665   7.196  0.00  0.00    +0.000 A 
ATOM     16  N   UNL     1      45.986   4.438   8.061  0.00  0.00    +0.000 NA
ENDBRANCH  10  11
ENDBRANCH   9  10
ENDBRANCH   6   9
ENDBRANCH   2   3
BRANCH   2  17
ATOM     17  N   UNL     1      47.950   5.501  16.312  0.00  0.00    +0.000 N 
ATOM     18  C   UNL     1      47.952   5.881  17.628  0.00  0.00    +0.000 C 
ATOM     19  O   UNL     1      47.317   5.283  18.495  0.00  0.00    +0.000 OA
ATOM     20  H   UNL     1      48.233   6.193  15.623  0.00  0.00    +0.000 HD
BRANCH  18  21
ATOM     21  C   UNL     1      48.825   7.007  17.979  0.00  0.00    +0.000 A 
ATOM     22  C   UNL     1      48.279   8.145  18.555  0.00  0.00    +0.000 A 
ATOM     23  S   UNL     1      49.432   9.350  18.912  0.00  0.00    +0.000 S 
ATOM     24  C   UNL     1      50.695   8.407  18.269  0.00  0.00    +0.000 A 
ATOM     25  N   UNL     1      51.971   8.879  18.230  0.00  0.00    +0.000 NA
ATOM     26  C   UNL     1      52.819   8.073  17.685  0.00  0.00    +0.000 A 
ATOM     27  N   UNL     1      52.512   6.832  17.188  0.00  0.00    +0.000 N 
ATOM     28  C   UNL     1      51.246   6.299  17.243  0.00  0.00    +0.000 A 
ATOM     29  O   UNL     1      51.010   5.161  16.853  0.00  0.00    +0.000 OA
ATOM     30  C   UNL     1      50.248   7.179  17.818  0.00  0.00    +0.000 A 
ATOM     31  H   UNL     1      53.228   6.241  16.792  0.00  0.00    +0.000 HD
ENDBRANCH  18  21
ENDBRANCH   2  17
TORSDOF 6
ENDMDL
MODEL 9
REMARK VINA RESULT:    -6.998      2.756      7.941
REMARK INTER + INTRA:         -10.284
REMARK INTER:                  -9.161
REMARK INTRA:                  -1.123
REMARK UNBOUND:                -0.832
REMARK  Name = 
REMARK  7 active torsions:
REMARK  status: ('A' for Active; 'I' for Inactive)
REMARK    1  A    between atoms: C_1  and  C_2
REMARK    2  A    between atoms: C_2  and  N_3
REMARK    3  A    between atoms: C_2  and  C_16
REMARK    4  A    between atoms: C_4  and  C_6
REMARK    5  A    between atoms: C_19  and  O_20
REMARK    6  A    between atoms: O_20  and  C_21
REMARK    7  A    between atoms: C_21  and  C_22
REMARK                            x       y       z     vdW  Elec       q    Type
REMARK                         _______ _______ _______ _____ _____    ______ ____
ROOT
ATOM      1  C   UNL     1      48.347   8.525  11.681  0.00  0.00    +0.000 C 
ATOM      2  C   UNL     1      47.399   8.185  12.837  0.00  0.00    +0.000 C 
ENDROOT
BRANCH   2   3
ATOM      3  C   UNL     1      48.195   8.040  14.126  0.00  0.00    +0.000 A 
ATOM      4  C   UNL     1      47.858   8.763  15.278  0.00  0.00    +0.000 A 
ATOM      5  C   UNL     1      48.552   8.546  16.476  0.00  0.00    +0.000 A 
ATOM      6  C   UNL     1      49.576   7.602  16.536  0.00  0.00    +0.000 A 
ATOM      7  C   UNL     1      49.969   6.940  15.373  0.00  0.00    +0.000 A 
ATOM      8  C   UNL     1      49.271   7.142  14.186  0.00  0.00    +0.000 A 
BRANCH   6   9
ATOM      9  O   UNL     1      50.121   7.369  17.771  0.00  0.00    +0.000 OA
BRANCH   9  10
ATOM     10  C   UNL     1      49.261   6.636  18.657  0.00  0.00    +0.000 C 
BRANCH  10  11
ATOM     11  C   UNL     1      48.909   5.273  18.112  0.00  0.00    +0.000 A 
ATOM     12  C   UNL     1      47.594   4.925  17.828  0.00  0.00    +0.000 A 
ATOM     13  C   UNL     1      47.327   3.646  17.349  0.00  0.00    +0.000 A 
ATOM     14  C   UNL     1      48.374   2.747  17.178  0.00  0.00    +0.000 A 
ATOM     15  C   UNL     1      49.652   3.164  17.506  0.00  0.00    +0.000 A 
ATOM     16  N   UNL     1      49.940   4.396  17.971  0.00  0.00    +0.000 NA
ENDBRANCH  10  11
ENDBRANCH   9  10
ENDBRANCH   6   9
ENDBRANCH   2   3
BRANCH   2  17
ATOM     17  N   UNL     1      46.654   6.954  12.609  0.00  0.00    +0.000 N 
ATOM     18  C   UNL     1      45.503   6.898  11.868  0.00  0.00    +0.000 C 
ATOM     19  O   UNL     1      45.029   7.880  11.299  0.00  0.00    +0.000 OA
ATOM     20  H   UNL     1      46.816   6.209  13.281  0.00  0.00    +0.000 HD
BRANCH  18  21
ATOM     21  C   UNL     1      44.892   5.573  11.714  0.00  0.00    +0.000 A 
ATOM     22  C   UNL     1      44.159   5.030  12.761  0.00  0.00    +0.000 A 
ATOM     23  S   UNL     1      43.507   3.493  12.413  0.00  0.00    +0.000 S 
ATOM     24  C   UNL     1      44.220   3.482  10.867  0.00  0.00    +0.000 A 
ATOM     25  N   UNL     1      44.082   2.410  10.040  0.00  0.00    +0.000 NA
ATOM     26  C   UNL     1      44.703   2.523   8.914  0.00  0.00    +0.000 A 
ATOM     27  N   UNL     1      45.438   3.617   8.533  0.00  0.00    +0.000 N 
ATOM     28  C   UNL     1      45.571   4.737   9.318  0.00  0.00    +0.000 A 
ATOM     29  O   UNL     1      46.178   5.728   8.927  0.00  0.00    +0.000 OA
ATOM     30  C   UNL     1      44.918   4.647  10.609  0.00  0.00    +0.000 A 
ATOM     31  H   UNL     1      45.884   3.651   7.628  0.00  0.00    +0.000 HD
ENDBRANCH  18  21
ENDBRANCH   2  17
TORSDOF 6
ENDMDL
