MODEL 1
REMARK VINA RESULT:    -7.694      0.000      0.000
REMARK INTER + INTRA:         -12.347
REMARK INTER:                 -10.843
REMARK INTRA:                  -1.504
REMARK UNBOUND:                -1.504
REMARK  Name = 
REMARK  9 active torsions:
REMARK  status: ('A' for Active; 'I' for Inactive)
REMARK    1  A    between atoms: C_1  and  O_2
REMARK    2  A    between atoms: O_2  and  C_3
REMARK    3  A    between atoms: C_10  and  C_11
REMARK    4  A    between atoms: N_13  and  C_14
REMARK    5  A    between atoms: C_14  and  C_15
REMARK    6  A    between atoms: C_18  and  N_19
REMARK    7  A    between atoms: N_19  and  C_20
REMARK    8  A    between atoms: C_20  and  C_21
REMARK    9  A    between atoms: C_20  and  C_22
REMARK                            x       y       z     vdW  Elec       q    Type
REMARK                         _______ _______ _______ _____ _____    ______ ____
ROOT
ATOM      1  C   UNL     1      47.331   8.327  13.689  0.00  0.00    +0.000 C 
ENDROOT
BRANCH   1   2
ATOM      2  C   UNL     1      46.657   7.550  12.590  0.00  0.00    +0.000 A 
ATOM      3  C   UNL     1      47.386   7.093  11.486  0.00  0.00    +0.000 A 
ATOM      4  C   UNL     1      46.789   6.261  10.531  0.00  0.00    +0.000 A 
ATOM      5  C   UNL     1      45.461   5.847  10.665  0.00  0.00    +0.000 A 
ATOM      6  C   UNL     1      44.702   6.418  11.692  0.00  0.00    +0.000 A 
ATOM      7  C   UNL     1      45.291   7.250  12.654  0.00  0.00    +0.000 A 
BRANCH   5   8
ATOM      8  N   UNL     1      44.817   4.976   9.770  0.00  0.00    +0.000 N 
ATOM      9  H   UNL     1      45.012   5.267   8.807  0.00  0.00    +0.000 HD
BRANCH   8  10
ATOM     10  C   UNL     1      45.133   3.535   9.880  0.00  0.00    +0.000 C 
ATOM     11  C   UNL     1      43.830   2.776  10.142  0.00  0.00    +0.000 C 
BRANCH  10  12
ATOM     12  C   UNL     1      45.777   2.979   8.611  0.00  0.00    +0.000 A 
ATOM     13  C   UNL     1      46.106   3.850   7.570  0.00  0.00    +0.000 A 
ATOM     14  C   UNL     1      46.741   3.345   6.440  0.00  0.00    +0.000 A 
ATOM     15  C   UNL     1      47.036   1.990   6.375  0.00  0.00    +0.000 A 
ATOM     16  C   UNL     1      46.677   1.190   7.447  0.00  0.00    +0.000 A 
ATOM     17  N   UNL     1      46.060   1.649   8.560  0.00  0.00    +0.000 NA
ENDBRANCH  10  12
ENDBRANCH   8  10
ENDBRANCH   5   8
ENDBRANCH   1   2
BRANCH   1  20
ATOM     18  C   UNL     1      48.875   6.867  14.900  0.00  0.00    +0.000 C 
ATOM     19  O   UNL     1      49.710   6.977  14.003  0.00  0.00    +0.000 OA
ATOM     20  N   UNL     1      47.665   7.503  14.821  0.00  0.00    +0.000 N 
ATOM     21  H   UNL     1      46.961   7.363  15.532  0.00  0.00    +0.000 HD
BRANCH  18  29
ATOM     22  C   UNL     1      47.290   4.188  16.375  0.00  0.00    +0.000 A 
ATOM     23  N   UNL     1      46.842   3.212  17.196  0.00  0.00    +0.000 NA
ATOM     24  C   UNL     1      47.528   2.964  18.314  0.00  0.00    +0.000 A 
ATOM     25  N   UNL     1      48.639   3.572  18.722  0.00  0.00    +0.000 NA
ATOM     26  C   UNL     1      49.042   4.544  17.888  0.00  0.00    +0.000 A 
ATOM     27  S   UNL     1      50.452   5.417  18.248  0.00  0.00    +0.000 S 
ATOM     28  C   UNL     1      50.272   6.373  16.857  0.00  0.00    +0.000 A 
ATOM     29  C   UNL     1      49.150   6.060  16.097  0.00  0.00    +0.000 A 
ATOM     30  C   UNL     1      48.433   4.939  16.700  0.00  0.00    +0.000 A 
BRANCH  22  32
ATOM     31  C   UNL     1      47.093   3.655  14.091  0.00  0.00    +0.000 C 
ATOM     32  O   UNL     1      46.610   4.414  15.196  0.00  0.00    +0.000 OA
ENDBRANCH  22  32
ENDBRANCH  18  29
ENDBRANCH   1  20
TORSDOF 7
ENDMDL
MODEL 2
REMARK VINA RESULT:    -7.245      1.331      1.491
REMARK INTER + INTRA:         -11.714
REMARK INTER:                 -10.234
REMARK INTRA:                  -1.480
REMARK UNBOUND:                -1.504
REMARK  Name = 
REMARK  9 active torsions:
REMARK  status: ('A' for Active; 'I' for Inactive)
REMARK    1  A    between atoms: C_1  and  O_2
REMARK    2  A    between atoms: O_2  and  C_3
REMARK    3  A    between atoms: C_10  and  C_11
REMARK    4  A    between atoms: N_13  and  C_14
REMARK    5  A    between atoms: C_14  and  C_15
REMARK    6  A    between atoms: C_18  and  N_19
REMARK    7  A    between atoms: N_19  and  C_20
REMARK    8  A    between atoms: C_20  and  C_21
REMARK    9  A    between atoms: C_20  and  C_22
REMARK                            x       y       z     vdW  Elec       q    Type
REMARK                         _______ _______ _______ _____ _____    ______ ____
ROOT
ATOM      1  C   UNL     1      47.808   9.137  14.324  0.00  0.00    +0.000 C 
ENDROOT
BRANCH   1   2
ATOM      2  C   UNL     1      47.057   8.400  13.248  0.00  0.00    +0.000 A 
ATOM      3  C   UNL     1      47.612   7.273  12.632  0.00  0.00    +0.000 A 
ATOM      4  C   UNL     1      46.861   6.512  11.726  0.00  0.00    +0.000 A 
ATOM      5  C   UNL     1      45.536   6.843  11.431  0.00  0.00    +0.000 A 
ATOM      6  C   UNL     1      45.037   8.046  11.942  0.00  0.00    +0.000 A 
ATOM      7  C   UNL     1      45.780   8.813  12.851  0.00  0.00    +0.000 A 
BRANCH   5   8
ATOM      8  N   UNL     1      44.714   6.097  10.570  0.00  0.00    +0.000 N 
ATOM      9  H   UNL     1      45.001   6.255   9.599  0.00  0.00    +0.000 HD
BRANCH   8  10
ATOM     10  C   UNL     1      44.652   4.635  10.791  0.00  0.00    +0.000 C 
ATOM     11  C   UNL     1      43.189   4.246  11.018  0.00  0.00    +0.000 C 
BRANCH  10  12
ATOM     12  C   UNL     1      45.192   3.841   9.602  0.00  0.00    +0.000 A 
ATOM     13  C   UNL     1      45.761   4.521   8.524  0.00  0.00    +0.000 A 
ATOM     14  C   UNL     1      46.300   3.790   7.470  0.00  0.00    +0.000 A 
ATOM     15  C   UNL     1      46.261   2.403   7.517  0.00  0.00    +0.000 A 
ATOM     16  C   UNL     1      45.679   1.801   8.620  0.00  0.00    +0.000 A 
ATOM     17  N   UNL     1      45.148   2.482   9.661  0.00  0.00    +0.000 NA
ENDBRANCH  10  12
ENDBRANCH   8  10
ENDBRANCH   5   8
ENDBRANCH   1   2
BRANCH   1  20
ATOM     18  C   UNL     1      49.371   8.146  15.923  0.00  0.00    +0.000 C 
ATOM     19  O   UNL     1      50.318   8.702  15.369  0.00  0.00    +0.000 OA
ATOM     20  N   UNL     1      48.090   8.307  15.466  0.00  0.00    +0.000 N 
ATOM     21  H   UNL     1      47.324   7.802  15.888  0.00  0.00    +0.000 HD
BRANCH  18  29
ATOM     22  C   UNL     1      48.416   4.940  16.745  0.00  0.00    +0.000 A 
ATOM     23  N   UNL     1      48.113   3.771  17.353  0.00  0.00    +0.000 NA
ATOM     24  C   UNL     1      48.532   3.585  18.607  0.00  0.00    +0.000 A 
ATOM     25  N   UNL     1      49.243   4.432  19.346  0.00  0.00    +0.000 NA
ATOM     26  C   UNL     1      49.510   5.586  18.713  0.00  0.00    +0.000 A 
ATOM     27  S   UNL     1      50.418   6.779  19.506  0.00  0.00    +0.000 S 
ATOM     28  C   UNL     1      50.302   7.822  18.172  0.00  0.00    +0.000 A 
ATOM     29  C   UNL     1      49.576   7.298  17.107  0.00  0.00    +0.000 A 
ATOM     30  C   UNL     1      49.130   5.944  17.422  0.00  0.00    +0.000 A 
BRANCH  22  32
ATOM     31  C   UNL     1      46.989   4.234  15.011  0.00  0.00    +0.000 C 
ATOM     32  O   UNL     1      48.025   5.116  15.433  0.00  0.00    +0.000 OA
ENDBRANCH  22  32
ENDBRANCH  18  29
ENDBRANCH   1  20
TORSDOF 7
ENDMDL
MODEL 3
REMARK VINA RESULT:    -6.847      2.558      3.201
REMARK INTER + INTRA:         -11.153
REMARK INTER:                  -9.835
REMARK INTRA:                  -1.318
REMARK UNBOUND:                -1.504
REMARK  Name = 
REMARK  9 active torsions:
REMARK  status: ('A' for Active; 'I' for Inactive)
REMARK    1  A    between atoms: C_1  and  O_2
REMARK    2  A    between atoms: O_2  and  C_3
REMARK    3  A    between atoms: C_10  and  C_11
REMARK    4  A    between atoms: N_13  and  C_14
REMARK    5  A    between atoms: C_14  and  C_15
REMARK    6  A    between atoms: C_18  and  N_19
REMARK    7  A    between atoms: N_19  and  C_20
REMARK    8  A    between atoms: C_20  and  C_21
REMARK    9  A    between atoms: C_20  and  C_22
REMARK                            x       y       z     vdW  Elec       q    Type
REMARK                         _______ _______ _______ _____ _____    ______ ____
ROOT
ATOM      1  C   UNL     1      48.654   6.913  14.239  0.00  0.00    +0.000 C 
ENDROOT
BRANCH   1   2
ATOM      2  C   UNL     1      47.567   6.376  13.347  0.00  0.00    +0.000 A 
ATOM      3  C   UNL     1      47.318   6.955  12.097  0.00  0.00    +0.000 A 
ATOM      4  C   UNL     1      46.398   6.377  11.214  0.00  0.00    +0.000 A 
ATOM      5  C   UNL     1      45.724   5.198  11.544  0.00  0.00    +0.000 A 
ATOM      6  C   UNL     1      45.875   4.706  12.844  0.00  0.00    +0.000 A 
ATOM      7  C   UNL     1      46.794   5.276  13.735  0.00  0.00    +0.000 A 
BRANCH   5   8
ATOM      8  N   UNL     1      44.826   4.542  10.685  0.00  0.00    +0.000 N 
ATOM      9  H   UNL     1      44.806   5.019   9.779  0.00  0.00    +0.000 HD
BRANCH   8  10
ATOM     10  C   UNL     1      45.058   3.102  10.435  0.00  0.00    +0.000 C 
ATOM     11  C   UNL     1      43.718   2.372  10.555  0.00  0.00    +0.000 C 
BRANCH  10  12
ATOM     12  C   UNL     1      45.637   2.837   9.046  0.00  0.00    +0.000 A 
ATOM     13  C   UNL     1      45.809   3.902   8.160  0.00  0.00    +0.000 A 
ATOM     14  C   UNL     1      46.388   3.661   6.917  0.00  0.00    +0.000 A 
ATOM     15  C   UNL     1      46.783   2.371   6.589  0.00  0.00    +0.000 A 
ATOM     16  C   UNL     1      46.578   1.368   7.522  0.00  0.00    +0.000 A 
ATOM     17  N   UNL     1      46.020   1.568   8.738  0.00  0.00    +0.000 NA
ENDBRANCH  10  12
ENDBRANCH   8  10
ENDBRANCH   5   8
ENDBRANCH   1   2
BRANCH   1  20
ATOM     18  C   UNL     1      49.067   6.320  16.576  0.00  0.00    +0.000 C 
ATOM     19  O   UNL     1      50.120   5.765  16.268  0.00  0.00    +0.000 OA
ATOM     20  N   UNL     1      48.276   6.913  15.628  0.00  0.00    +0.000 N 
ATOM     21  H   UNL     1      47.384   7.317  15.879  0.00  0.00    +0.000 HD
BRANCH  18  29
ATOM     22  C   UNL     1      47.722   8.812  18.537  0.00  0.00    +0.000 A 
ATOM     23  N   UNL     1      47.273   9.602  19.538  0.00  0.00    +0.000 NA
ATOM     24  C   UNL     1      47.150   9.070  20.756  0.00  0.00    +0.000 A 
ATOM     25  N   UNL     1      47.415   7.815  21.110  0.00  0.00    +0.000 NA
ATOM     26  C   UNL     1      47.872   7.068  20.093  0.00  0.00    +0.000 A 
ATOM     27  S   UNL     1      48.250   5.436  20.364  0.00  0.00    +0.000 S 
ATOM     28  C   UNL     1      48.731   5.229  18.750  0.00  0.00    +0.000 A 
ATOM     29  C   UNL     1      48.623   6.380  17.976  0.00  0.00    +0.000 A 
ATOM     30  C   UNL     1      48.076   7.473  18.777  0.00  0.00    +0.000 A 
BRANCH  22  32
ATOM     31  C   UNL     1      48.906  10.228  17.077  0.00  0.00    +0.000 C 
ATOM     32  O   UNL     1      47.803   9.346  17.268  0.00  0.00    +0.000 OA
ENDBRANCH  22  32
ENDBRANCH  18  29
ENDBRANCH   1  20
TORSDOF 7
ENDMDL
MODEL 4
REMARK VINA RESULT:    -6.841      2.050      2.665
REMARK INTER + INTRA:         -11.144
REMARK INTER:                  -9.902
REMARK INTRA:                  -1.242
REMARK UNBOUND:                -1.504
REMARK  Name = 
REMARK  9 active torsions:
REMARK  status: ('A' for Active; 'I' for Inactive)
REMARK    1  A    between atoms: C_1  and  O_2
REMARK    2  A    between atoms: O_2  and  C_3
REMARK    3  A    between atoms: C_10  and  C_11
REMARK    4  A    between atoms: N_13  and  C_14
REMARK    5  A    between atoms: C_14  and  C_15
REMARK    6  A    between atoms: C_18  and  N_19
REMARK    7  A    between atoms: N_19  and  C_20
REMARK    8  A    between atoms: C_20  and  C_21
REMARK    9  A    between atoms: C_20  and  C_22
REMARK                            x       y       z     vdW  Elec       q    Type
REMARK                         _______ _______ _______ _____ _____    ______ ____
ROOT
ATOM      1  C   UNL     1      48.659   8.127  15.574  0.00  0.00    +0.000 C 
ENDROOT
BRANCH   1   2
ATOM      2  C   UNL     1      47.889   7.727  14.344  0.00  0.00    +0.000 A 
ATOM      3  C   UNL     1      48.007   6.436  13.815  0.00  0.00    +0.000 A 
ATOM      4  C   UNL     1      47.195   6.023  12.752  0.00  0.00    +0.000 A 
ATOM      5  C   UNL     1      46.232   6.877  12.206  0.00  0.00    +0.000 A 
ATOM      6  C   UNL     1      46.217   8.205  12.646  0.00  0.00    +0.000 A 
ATOM      7  C   UNL     1      47.024   8.626  13.711  0.00  0.00    +0.000 A 
BRANCH   5   8
ATOM      8  N   UNL     1      45.355   6.510  11.172  0.00  0.00    +0.000 N 
ATOM      9  H   UNL     1      45.856   6.512  10.279  0.00  0.00    +0.000 HD
BRANCH   8  10
ATOM     10  C   UNL     1      44.663   5.208  11.300  0.00  0.00    +0.000 C 
ATOM     11  C   UNL     1      43.156   5.469  11.349  0.00  0.00    +0.000 C 
BRANCH  10  12
ATOM     12  C   UNL     1      44.961   4.271  10.130  0.00  0.00    +0.000 A 
ATOM     13  C   UNL     1      45.641   4.762   9.014  0.00  0.00    +0.000 A 
ATOM     14  C   UNL     1      45.956   3.889   7.976  0.00  0.00    +0.000 A 
ATOM     15  C   UNL     1      45.591   2.554   8.077  0.00  0.00    +0.000 A 
ATOM     16  C   UNL     1      44.918   2.144   9.216  0.00  0.00    +0.000 A 
ATOM     17  N   UNL     1      44.597   2.964  10.242  0.00  0.00    +0.000 NA
ENDBRANCH  10  12
ENDBRANCH   8  10
ENDBRANCH   5   8
ENDBRANCH   1   2
BRANCH   1  20
ATOM     18  C   UNL     1      49.588   6.479  17.124  0.00  0.00    +0.000 C 
ATOM     19  O   UNL     1      48.669   6.679  17.916  0.00  0.00    +0.000 OA
ATOM     20  N   UNL     1      49.660   7.159  15.937  0.00  0.00    +0.000 N 
ATOM     21  H   UNL     1      50.448   7.034  15.317  0.00  0.00    +0.000 HD
BRANCH  18  29
ATOM     22  C   UNL     1      49.774   3.053  16.827  0.00  0.00    +0.000 A 
ATOM     23  N   UNL     1      50.089   1.740  16.898  0.00  0.00    +0.000 NA
ATOM     24  C   UNL     1      51.280   1.403  17.398  0.00  0.00    +0.000 A 
ATOM     25  N   UNL     1      52.225   2.230  17.838  0.00  0.00    +0.000 NA
ATOM     26  C   UNL     1      51.868   3.522  17.766  0.00  0.00    +0.000 A 
ATOM     27  S   UNL     1      52.959   4.717  18.276  0.00  0.00    +0.000 S 
ATOM     28  C   UNL     1      51.850   5.951  17.919  0.00  0.00    +0.000 A 
ATOM     29  C   UNL     1      50.638   5.492  17.415  0.00  0.00    +0.000 A 
ATOM     30  C   UNL     1      50.664   4.036  17.293  0.00  0.00    +0.000 A 
BRANCH  22  32
ATOM     31  C   UNL     1      47.450   3.261  17.144  0.00  0.00    +0.000 C 
ATOM     32  O   UNL     1      48.563   3.406  16.266  0.00  0.00    +0.000 OA
ENDBRANCH  22  32
ENDBRANCH  18  29
ENDBRANCH   1  20
TORSDOF 7
ENDMDL
MODEL 5
REMARK VINA RESULT:    -6.826      2.190      4.109
REMARK INTER + INTRA:         -11.123
REMARK INTER:                 -10.147
REMARK INTRA:                  -0.976
REMARK UNBOUND:                -1.504
REMARK  Name = 
REMARK  9 active torsions:
REMARK  status: ('A' for Active; 'I' for Inactive)
REMARK    1  A    between atoms: C_1  and  O_2
REMARK    2  A    between atoms: O_2  and  C_3
REMARK    3  A    between atoms: C_10  and  C_11
REMARK    4  A    between atoms: N_13  and  C_14
REMARK    5  A    between atoms: C_14  and  C_15
REMARK    6  A    between atoms: C_18  and  N_19
REMARK    7  A    between atoms: N_19  and  C_20
REMARK    8  A    between atoms: C_20  and  C_21
REMARK    9  A    between atoms: C_20  and  C_22
REMARK                            x       y       z     vdW  Elec       q    Type
REMARK                         _______ _______ _______ _____ _____    ______ ____
ROOT
ATOM      1  C   UNL     1      47.086   4.760  14.998  0.00  0.00    +0.000 C 
ENDROOT
BRANCH   1   2
ATOM      2  C   UNL     1      46.233   4.540  13.777  0.00  0.00    +0.000 A 
ATOM      3  C   UNL     1      45.483   5.588  13.231  0.00  0.00    +0.000 A 
ATOM      4  C   UNL     1      44.795   5.418  12.023  0.00  0.00    +0.000 A 
ATOM      5  C   UNL     1      44.857   4.212  11.320  0.00  0.00    +0.000 A 
ATOM      6  C   UNL     1      45.493   3.131  11.940  0.00  0.00    +0.000 A 
ATOM      7  C   UNL     1      46.185   3.291  13.148  0.00  0.00    +0.000 A 
BRANCH   5   8
ATOM      8  N   UNL     1      44.231   3.992  10.082  0.00  0.00    +0.000 N 
ATOM      9  H   UNL     1      43.310   4.440  10.079  0.00  0.00    +0.000 HD
BRANCH   8  10
ATOM     10  C   UNL     1      44.954   4.434   8.869  0.00  0.00    +0.000 C 
ATOM     11  C   UNL     1      45.939   5.534   9.271  0.00  0.00    +0.000 C 
BRANCH  10  12
ATOM     12  C   UNL     1      45.731   3.298   8.205  0.00  0.00    +0.000 A 
ATOM     13  C   UNL     1      46.678   3.596   7.224  0.00  0.00    +0.000 A 
ATOM     14  C   UNL     1      47.420   2.561   6.662  0.00  0.00    +0.000 A 
ATOM     15  C   UNL     1      47.204   1.260   7.093  0.00  0.00    +0.000 A 
ATOM     16  C   UNL     1      46.247   1.044   8.070  0.00  0.00    +0.000 A 
ATOM     17  N   UNL     1      45.510   2.026   8.637  0.00  0.00    +0.000 NA
ENDBRANCH  10  12
ENDBRANCH   8  10
ENDBRANCH   5   8
ENDBRANCH   1   2
BRANCH   1  20
ATOM     18  C   UNL     1      48.837   6.282  15.773  0.00  0.00    +0.000 C 
ATOM     19  O   UNL     1      49.296   5.408  16.506  0.00  0.00    +0.000 OA
ATOM     20  N   UNL     1      47.737   6.043  14.991  0.00  0.00    +0.000 N 
ATOM     21  H   UNL     1      47.329   6.781  14.435  0.00  0.00    +0.000 HD
BRANCH  18  29
ATOM     22  C   UNL     1      49.990   8.217  13.168  0.00  0.00    +0.000 A 
ATOM     23  N   UNL     1      50.585   9.132  12.370  0.00  0.00    +0.000 NA
ATOM     24  C   UNL     1      51.119  10.215  12.940  0.00  0.00    +0.000 A 
ATOM     25  N   UNL     1      51.124  10.515  14.236  0.00  0.00    +0.000 NA
ATOM     26  C   UNL     1      50.538   9.576  14.995  0.00  0.00    +0.000 A 
ATOM     27  S   UNL     1      50.445   9.803  16.674  0.00  0.00    +0.000 S 
ATOM     28  C   UNL     1      49.662   8.311  16.881  0.00  0.00    +0.000 A 
ATOM     29  C   UNL     1      49.459   7.611  15.696  0.00  0.00    +0.000 A 
ATOM     30  C   UNL     1      49.955   8.388  14.563  0.00  0.00    +0.000 A 
BRANCH  22  32
ATOM     31  C   UNL     1      48.310   7.443  11.711  0.00  0.00    +0.000 C 
ATOM     32  O   UNL     1      49.395   7.121  12.577  0.00  0.00    +0.000 OA
ENDBRANCH  22  32
ENDBRANCH  18  29
ENDBRANCH   1  20
TORSDOF 7
ENDMDL
MODEL 6
REMARK VINA RESULT:    -6.820      2.318      2.766
REMARK INTER + INTRA:         -11.114
REMARK INTER:                  -9.964
REMARK INTRA:                  -1.151
REMARK UNBOUND:                -1.504
REMARK  Name = 
REMARK  9 active torsions:
REMARK  status: ('A' for Active; 'I' for Inactive)
REMARK    1  A    between atoms: C_1  and  O_2
REMARK    2  A    between atoms: O_2  and  C_3
REMARK    3  A    between atoms: C_10  and  C_11
REMARK    4  A    between atoms: N_13  and  C_14
REMARK    5  A    between atoms: C_14  and  C_15
REMARK    6  A    between atoms: C_18  and  N_19
REMARK    7  A    between atoms: N_19  and  C_20
REMARK    8  A    between atoms: C_20  and  C_21
REMARK    9  A    between atoms: C_20  and  C_22
REMARK                            x       y       z     vdW  Elec       q    Type
REMARK                         _______ _______ _______ _____ _____    ______ ____
ROOT
ATOM      1  C   UNL     1      47.852   9.215  13.974  0.00  0.00    +0.000 C 
ENDROOT
BRANCH   1   2
ATOM      2  C   UNL     1      46.984   8.309  13.143  0.00  0.00    +0.000 A 
ATOM      3  C   UNL     1      45.673   8.677  12.817  0.00  0.00    +0.000 A 
ATOM      4  C   UNL     1      44.911   7.898  11.938  0.00  0.00    +0.000 A 
ATOM      5  C   UNL     1      45.444   6.749  11.346  0.00  0.00    +0.000 A 
ATOM      6  C   UNL     1      46.699   6.314  11.784  0.00  0.00    +0.000 A 
ATOM      7  C   UNL     1      47.470   7.088  12.662  0.00  0.00    +0.000 A 
BRANCH   5   8
ATOM      8  N   UNL     1      44.751   5.950  10.421  0.00  0.00    +0.000 N 
ATOM      9  H   UNL     1      45.069   6.169   9.472  0.00  0.00    +0.000 HD
BRANCH   8  10
ATOM     10  C   UNL     1      44.829   4.484  10.598  0.00  0.00    +0.000 C 
ATOM     11  C   UNL     1      43.411   3.949  10.807  0.00  0.00    +0.000 C 
BRANCH  10  12
ATOM     12  C   UNL     1      45.446   3.781   9.389  0.00  0.00    +0.000 A 
ATOM     13  C   UNL     1      45.427   2.387   9.323  0.00  0.00    +0.000 A 
ATOM     14  C   UNL     1      45.941   1.755   8.194  0.00  0.00    +0.000 A 
ATOM     15  C   UNL     1      46.457   2.526   7.161  0.00  0.00    +0.000 A 
ATOM     16  C   UNL     1      46.441   3.903   7.302  0.00  0.00    +0.000 A 
ATOM     17  N   UNL     1      45.948   4.548   8.384  0.00  0.00    +0.000 NA
ENDBRANCH  10  12
ENDBRANCH   8  10
ENDBRANCH   5   8
ENDBRANCH   1   2
BRANCH   1  20
ATOM     18  C   UNL     1      48.561   8.622  16.239  0.00  0.00    +0.000 C 
ATOM     19  O   UNL     1      49.675   8.302  15.825  0.00  0.00    +0.000 OA
ATOM     20  N   UNL     1      47.596   9.083  15.385  0.00  0.00    +0.000 N 
ATOM     21  H   UNL     1      46.665   9.289  15.720  0.00  0.00    +0.000 HD
BRANCH  18  29
ATOM     22  C   UNL     1      48.439   6.023  18.496  0.00  0.00    +0.000 A 
ATOM     23  N   UNL     1      48.229   5.203  19.550  0.00  0.00    +0.000 NA
ATOM     24  C   UNL     1      47.782   5.740  20.687  0.00  0.00    +0.000 A 
ATOM     25  N   UNL     1      47.521   7.024  20.917  0.00  0.00    +0.000 NA
ATOM     26  C   UNL     1      47.728   7.802  19.843  0.00  0.00    +0.000 A 
ATOM     27  S   UNL     1      47.456   9.473  19.960  0.00  0.00    +0.000 S 
ATOM     28  C   UNL     1      47.880   9.706  18.334  0.00  0.00    +0.000 A 
ATOM     29  C   UNL     1      48.230   8.535  17.668  0.00  0.00    +0.000 A 
ATOM     30  C   UNL     1      48.170   7.400  18.585  0.00  0.00    +0.000 A 
BRANCH  22  32
ATOM     31  C   UNL     1      47.969   4.847  16.511  0.00  0.00    +0.000 C 
ATOM     32  O   UNL     1      48.947   5.478  17.334  0.00  0.00    +0.000 OA
ENDBRANCH  22  32
ENDBRANCH  18  29
ENDBRANCH   1  20
TORSDOF 7
ENDMDL
MODEL 7
REMARK VINA RESULT:    -6.714      4.334      9.047
REMARK INTER + INTRA:         -10.966
REMARK INTER:                  -9.947
REMARK INTRA:                  -1.019
REMARK UNBOUND:                -1.504
REMARK  Name = 
REMARK  9 active torsions:
REMARK  status: ('A' for Active; 'I' for Inactive)
REMARK    1  A    between atoms: C_1  and  O_2
REMARK    2  A    between atoms: O_2  and  C_3
REMARK    3  A    between atoms: C_10  and  C_11
REMARK    4  A    between atoms: N_13  and  C_14
REMARK    5  A    between atoms: C_14  and  C_15
REMARK    6  A    between atoms: C_18  and  N_19
REMARK    7  A    between atoms: N_19  and  C_20
REMARK    8  A    between atoms: C_20  and  C_21
REMARK    9  A    between atoms: C_20  and  C_22
REMARK                            x       y       z     vdW  Elec       q    Type
REMARK                         _______ _______ _______ _____ _____    ______ ____
ROOT
ATOM      1  C   UNL     1      47.338   3.470  17.019  0.00  0.00    +0.000 C 
ENDROOT
BRANCH   1   2
ATOM      2  C   UNL     1      48.804   3.280  17.300  0.00  0.00    +0.000 A 
ATOM      3  C   UNL     1      49.532   4.256  17.990  0.00  0.00    +0.000 A 
ATOM      4  C   UNL     1      50.861   4.023  18.366  0.00  0.00    +0.000 A 
ATOM      5  C   UNL     1      51.487   2.805  18.085  0.00  0.00    +0.000 A 
ATOM      6  C   UNL     1      50.800   1.893  17.276  0.00  0.00    +0.000 A 
ATOM      7  C   UNL     1      49.470   2.117  16.897  0.00  0.00    +0.000 A 
BRANCH   5   8
ATOM      8  N   UNL     1      52.799   2.489  18.475  0.00  0.00    +0.000 N 
ATOM      9  H   UNL     1      52.777   1.768  19.202  0.00  0.00    +0.000 HD
BRANCH   8  10
ATOM     10  C   UNL     1      53.730   2.038  17.417  0.00  0.00    +0.000 C 
ATOM     11  C   UNL     1      55.009   2.874  17.515  0.00  0.00    +0.000 C 
BRANCH  10  12
ATOM     12  C   UNL     1      54.098   0.561  17.554  0.00  0.00    +0.000 A 
ATOM     13  C   UNL     1      54.697  -0.099  16.480  0.00  0.00    +0.000 A 
ATOM     14  C   UNL     1      55.078  -1.429  16.630  0.00  0.00    +0.000 A 
ATOM     15  C   UNL     1      54.857  -2.066  17.843  0.00  0.00    +0.000 A 
ATOM     16  C   UNL     1      54.258  -1.344  18.861  0.00  0.00    +0.000 A 
ATOM     17  N   UNL     1      53.876  -0.051  18.749  0.00  0.00    +0.000 NA
ENDBRANCH  10  12
ENDBRANCH   8  10
ENDBRANCH   5   8
ENDBRANCH   1   2
BRANCH   1  20
ATOM     18  C   UNL     1      47.070   4.318  14.740  0.00  0.00    +0.000 C 
ATOM     19  O   UNL     1      47.269   3.195  14.280  0.00  0.00    +0.000 OA
ATOM     20  N   UNL     1      47.089   4.542  16.091  0.00  0.00    +0.000 N 
ATOM     21  H   UNL     1      46.983   5.476  16.461  0.00  0.00    +0.000 HD
BRANCH  18  29
ATOM     22  C   UNL     1      44.413   5.158  12.714  0.00  0.00    +0.000 A 
ATOM     23  N   UNL     1      43.573   5.684  11.796  0.00  0.00    +0.000 NA
ATOM     24  C   UNL     1      43.937   6.812  11.181  0.00  0.00    +0.000 A 
ATOM     25  N   UNL     1      45.056   7.504  11.377  0.00  0.00    +0.000 NA
ATOM     26  C   UNL     1      45.870   6.941  12.284  0.00  0.00    +0.000 A 
ATOM     27  S   UNL     1      47.339   7.698  12.667  0.00  0.00    +0.000 S 
ATOM     28  C   UNL     1      47.744   6.466  13.762  0.00  0.00    +0.000 A 
ATOM     29  C   UNL     1      46.788   5.460  13.858  0.00  0.00    +0.000 A 
ATOM     30  C   UNL     1      45.650   5.765  12.996  0.00  0.00    +0.000 A 
BRANCH  22  32
ATOM     31  C   UNL     1      43.611   2.952  12.535  0.00  0.00    +0.000 C 
ATOM     32  O   UNL     1      44.018   4.019  13.387  0.00  0.00    +0.000 OA
ENDBRANCH  22  32
ENDBRANCH  18  29
ENDBRANCH   1  20
TORSDOF 7
ENDMDL
MODEL 8
REMARK VINA RESULT:    -6.709      1.589      2.366
REMARK INTER + INTRA:         -10.959
REMARK INTER:                  -9.825
REMARK INTRA:                  -1.133
REMARK UNBOUND:                -1.504
REMARK  Name = 
REMARK  9 active torsions:
REMARK  status: ('A' for Active; 'I' for Inactive)
REMARK    1  A    between atoms: C_1  and  O_2
REMARK    2  A    between atoms: O_2  and  C_3
REMARK    3  A    between atoms: C_10  and  C_11
REMARK    4  A    between atoms: N_13  and  C_14
REMARK    5  A    between atoms: C_14  and  C_15
REMARK    6  A    between atoms: C_18  and  N_19
REMARK    7  A    between atoms: N_19  and  C_20
REMARK    8  A    between atoms: C_20  and  C_21
REMARK    9  A    between atoms: C_20  and  C_22
REMARK                            x       y       z     vdW  Elec       q    Type
REMARK                         _______ _______ _______ _____ _____    ______ ____
ROOT
ATOM      1  C   UNL     1      49.002   8.898  13.968  0.00  0.00    +0.000 C 
ENDROOT
BRANCH   1   2
ATOM      2  C   UNL     1      47.899   8.189  13.230  0.00  0.00    +0.000 A 
ATOM      3  C   UNL     1      46.557   8.513  13.465  0.00  0.00    +0.000 A 
ATOM      4  C   UNL     1      45.540   7.948  12.687  0.00  0.00    +0.000 A 
ATOM      5  C   UNL     1      45.835   7.067  11.643  0.00  0.00    +0.000 A 
ATOM      6  C   UNL     1      47.161   6.643  11.505  0.00  0.00    +0.000 A 
ATOM      7  C   UNL     1      48.186   7.204  12.278  0.00  0.00    +0.000 A 
BRANCH   5   8
ATOM      8  N   UNL     1      44.866   6.503  10.795  0.00  0.00    +0.000 N 
ATOM      9  H   UNL     1      45.153   6.623   9.819  0.00  0.00    +0.000 HD
BRANCH   8  10
ATOM     10  C   UNL     1      44.537   5.075  10.998  0.00  0.00    +0.000 C 
ATOM     11  C   UNL     1      43.015   4.941  11.078  0.00  0.00    +0.000 C 
BRANCH  10  12
ATOM     12  C   UNL     1      45.049   4.191   9.861  0.00  0.00    +0.000 A 
ATOM     13  C   UNL     1      44.846   2.811   9.922  0.00  0.00    +0.000 A 
ATOM     14  C   UNL     1      45.267   2.017   8.859  0.00  0.00    +0.000 A 
ATOM     15  C   UNL     1      45.873   2.616   7.763  0.00  0.00    +0.000 A 
ATOM     16  C   UNL     1      46.039   3.991   7.777  0.00  0.00    +0.000 A 
ATOM     17  N   UNL     1      45.642   4.791   8.793  0.00  0.00    +0.000 NA
ENDBRANCH  10  12
ENDBRANCH   8  10
ENDBRANCH   5   8
ENDBRANCH   1   2
BRANCH   1  20
ATOM     18  C   UNL     1      49.679   7.529  15.878  0.00  0.00    +0.000 C 
ATOM     19  O   UNL     1      50.309   6.776  15.138  0.00  0.00    +0.000 OA
ATOM     20  N   UNL     1      48.998   8.607  15.378  0.00  0.00    +0.000 N 
ATOM     21  H   UNL     1      48.434   9.188  15.982  0.00  0.00    +0.000 HD
BRANCH  18  29
ATOM     22  C   UNL     1      48.854   4.830  17.853  0.00  0.00    +0.000 A 
ATOM     23  N   UNL     1      48.515   3.983  18.851  0.00  0.00    +0.000 NA
ATOM     24  C   UNL     1      48.603   4.422  20.109  0.00  0.00    +0.000 A 
ATOM     25  N   UNL     1      49.007   5.625  20.509  0.00  0.00    +0.000 NA
ATOM     26  C   UNL     1      49.320   6.440  19.489  0.00  0.00    +0.000 A 
ATOM     27  S   UNL     1      49.867   8.012  19.819  0.00  0.00    +0.000 S 
ATOM     28  C   UNL     1      50.008   8.362  18.164  0.00  0.00    +0.000 A 
ATOM     29  C   UNL     1      49.644   7.309  17.331  0.00  0.00    +0.000 A 
ATOM     30  C   UNL     1      49.263   6.146  18.130  0.00  0.00    +0.000 A 
BRANCH  22  32
ATOM     31  C   UNL     1      47.497   4.300  16.004  0.00  0.00    +0.000 C 
ATOM     32  O   UNL     1      48.810   4.363  16.556  0.00  0.00    +0.000 OA
ENDBRANCH  22  32
ENDBRANCH  18  29
ENDBRANCH   1  20
TORSDOF 7
ENDMDL
MODEL 9
REMARK VINA RESULT:    -6.349      3.467      8.769
REMARK INTER + INTRA:         -10.450
REMARK INTER:                  -9.270
REMARK INTRA:                  -1.180
REMARK UNBOUND:                -1.504
REMARK  Name = 
REMARK  9 active torsions:
REMARK  status: ('A' for Active; 'I' for Inactive)
REMARK    1  A    between atoms: C_1  and  O_2
REMARK    2  A    between atoms: O_2  and  C_3
REMARK    3  A    between atoms: C_10  and  C_11
REMARK    4  A    between atoms: N_13  and  C_14
REMARK    5  A    between atoms: C_14  and  C_15
REMARK    6  A    between atoms: C_18  and  N_19
REMARK    7  A    between atoms: N_19  and  C_20
REMARK    8  A    between atoms: C_20  and  C_21
REMARK    9  A    between atoms: C_20  and  C_22
REMARK                            x       y       z     vdW  Elec       q    Type
REMARK                         _______ _______ _______ _____ _____    ______ ____
ROOT
ATOM      1  C   UNL     1      47.468   3.200  16.952  0.00  0.00    +0.000 C 
ENDROOT
BRANCH   1   2
ATOM      2  C   UNL     1      48.905   3.206  17.400  0.00  0.00    +0.000 A 
ATOM      3  C   UNL     1      49.760   2.148  17.071  0.00  0.00    +0.000 A 
ATOM      4  C   UNL     1      51.126   2.214  17.375  0.00  0.00    +0.000 A 
ATOM      5  C   UNL     1      51.674   3.342  17.991  0.00  0.00    +0.000 A 
ATOM      6  C   UNL     1      50.792   4.331  18.440  0.00  0.00    +0.000 A 
ATOM      7  C   UNL     1      49.424   4.275  18.139  0.00  0.00    +0.000 A 
BRANCH   5   8
ATOM      8  N   UNL     1      53.041   3.492  18.280  0.00  0.00    +0.000 N 
ATOM      9  H   UNL     1      53.597   3.001  17.573  0.00  0.00    +0.000 HD
BRANCH   8  10
ATOM     10  C   UNL     1      53.564   4.872  18.388  0.00  0.00    +0.000 C 
ATOM     11  C   UNL     1      54.663   4.886  19.453  0.00  0.00    +0.000 C 
BRANCH  10  12
ATOM     12  C   UNL     1      54.149   5.380  17.072  0.00  0.00    +0.000 A 
ATOM     13  C   UNL     1      55.279   4.757  16.538  0.00  0.00    +0.000 A 
ATOM     14  C   UNL     1      55.775   5.190  15.311  0.00  0.00    +0.000 A 
ATOM     15  C   UNL     1      55.134   6.227  14.648  0.00  0.00    +0.000 A 
ATOM     16  C   UNL     1      54.019   6.795  15.242  0.00  0.00    +0.000 A 
ATOM     17  N   UNL     1      53.511   6.398  16.431  0.00  0.00    +0.000 NA
ENDBRANCH  10  12
ENDBRANCH   8  10
ENDBRANCH   5   8
ENDBRANCH   1   2
BRANCH   1  20
ATOM     18  C   UNL     1      47.160   4.214  14.747  0.00  0.00    +0.000 C 
ATOM     19  O   UNL     1      47.449   3.152  14.199  0.00  0.00    +0.000 OA
ATOM     20  N   UNL     1      47.148   4.325  16.113  0.00  0.00    +0.000 N 
ATOM     21  H   UNL     1      46.967   5.214  16.557  0.00  0.00    +0.000 HD
BRANCH  18  29
ATOM     22  C   UNL     1      44.509   4.989  12.690  0.00  0.00    +0.000 A 
ATOM     23  N   UNL     1      43.655   5.519  11.786  0.00  0.00    +0.000 NA
ATOM     24  C   UNL     1      43.931   6.727  11.289  0.00  0.00    +0.000 A 
ATOM     25  N   UNL     1      44.971   7.498  11.594  0.00  0.00    +0.000 NA
ATOM     26  C   UNL     1      45.803   6.931  12.483  0.00  0.00    +0.000 A 
ATOM     27  S   UNL     1      47.179   7.781  12.995  0.00  0.00    +0.000 S 
ATOM     28  C   UNL     1      47.661   6.496  13.993  0.00  0.00    +0.000 A 
ATOM     29  C   UNL     1      46.802   5.402  13.959  0.00  0.00    +0.000 A 
ATOM     30  C   UNL     1      45.671   5.679  13.077  0.00  0.00    +0.000 A 
BRANCH  22  32
ATOM     31  C   UNL     1      43.472   2.900  12.371  0.00  0.00    +0.000 C 
ATOM     32  O   UNL     1      44.201   3.762  13.241  0.00  0.00    +0.000 OA
ENDBRANCH  22  32
ENDBRANCH  18  29
ENDBRANCH   1  20
TORSDOF 7
ENDMDL
