MODEL 1
REMARK VINA RESULT:    -8.372      0.000      0.000
REMARK INTER + INTRA:         -13.075
REMARK INTER:                 -11.799
REMARK INTRA:                  -1.276
REMARK UNBOUND:                -1.276
REMARK  Name = 
REMARK  8 active torsions:
REMARK  status: ('A' for Active; 'I' for Inactive)
REMARK    1  A    between atoms: C_1  and  C_2
REMARK    2  A    between atoms: C_2  and  N_3
REMARK    3  A    between atoms: C_2  and  C_16
REMARK    4  A    between atoms: C_4  and  C_6
REMARK    5  A    between atoms: C_19  and  C_20
REMARK    6  A    between atoms: C_20  and  N_21
REMARK    7  A    between atoms: N_21  and  C_22
REMARK    8  A    between atoms: C_22  and  C_23
REMARK                            x       y       z     vdW  Elec       q    Type
REMARK                         _______ _______ _______ _____ _____    ______ ____
ROOT
ATOM      1  C   UNL     1      48.185   8.139  12.810  0.00  0.00    +0.000 C 
ATOM      2  C   UNL     1      48.060   6.715  13.356  0.00  0.00    +0.000 C 
ENDROOT
BRANCH   2   3
ATOM      3  C   UNL     1      46.893   5.963  12.730  0.00  0.00    +0.000 A 
ATOM      4  C   UNL     1      46.428   6.343  11.467  0.00  0.00    +0.000 A 
ATOM      5  C   UNL     1      45.348   5.686  10.865  0.00  0.00    +0.000 A 
ATOM      6  C   UNL     1      44.713   4.616  11.506  0.00  0.00    +0.000 A 
ATOM      7  C   UNL     1      45.190   4.213  12.761  0.00  0.00    +0.000 A 
ATOM      8  C   UNL     1      46.270   4.875  13.365  0.00  0.00    +0.000 A 
BRANCH   6   9
ATOM      9  C   UNL     1      43.524   3.937  10.860  0.00  0.00    +0.000 C 
BRANCH   9  10
ATOM     10  N   UNL     1      43.841   3.488   9.502  0.00  0.00    +0.000 NA
ATOM     11  H   UNL     1      44.295   4.249   9.003  0.00  0.00    +0.000 HD
BRANCH  10  12
ATOM     12  C   UNL     1      44.719   2.320   9.511  0.00  0.00    +0.000 C 
BRANCH  12  13
ATOM     13  C   UNL     1      45.701   2.377   8.365  0.00  0.00    +0.000 A 
ATOM     14  C   UNL     1      45.898   3.557   7.640  0.00  0.00    +0.000 A 
ATOM     15  C   UNL     1      46.815   3.555   6.599  0.00  0.00    +0.000 A 
ATOM     16  N   UNL     1      47.540   2.476   6.235  0.00  0.00    +0.000 NA
ATOM     17  C   UNL     1      47.338   1.347   6.946  0.00  0.00    +0.000 A 
ATOM     18  C   UNL     1      46.448   1.251   8.005  0.00  0.00    +0.000 A 
ENDBRANCH  12  13
ENDBRANCH  10  12
ENDBRANCH   9  10
ENDBRANCH   6   9
ENDBRANCH   2   3
BRANCH   2  19
ATOM     19  N   UNL     1      47.959   6.731  14.801  0.00  0.00    +0.000 N 
ATOM     20  C   UNL     1      49.058   6.717  15.619  0.00  0.00    +0.000 C 
ATOM     21  O   UNL     1      50.205   6.677  15.180  0.00  0.00    +0.000 OA
ATOM     22  H   UNL     1      47.029   6.687  15.203  0.00  0.00    +0.000 HD
BRANCH  20  23
ATOM     23  C   UNL     1      48.799   6.819  17.060  0.00  0.00    +0.000 A 
ATOM     24  C   UNL     1      48.495   8.050  17.625  0.00  0.00    +0.000 A 
ATOM     25  S   UNL     1      48.198   7.977  19.303  0.00  0.00    +0.000 S 
ATOM     26  C   UNL     1      48.523   6.307  19.343  0.00  0.00    +0.000 A 
ATOM     27  N   UNL     1      48.477   5.611  20.512  0.00  0.00    +0.000 NA
ATOM     28  C   UNL     1      48.798   4.366  20.403  0.00  0.00    +0.000 A 
ATOM     29  N   UNL     1      49.146   3.748  19.229  0.00  0.00    +0.000 N 
ATOM     30  C   UNL     1      49.119   4.389  18.016  0.00  0.00    +0.000 A 
ATOM     31  O   UNL     1      49.285   3.770  16.972  0.00  0.00    +0.000 OA
ATOM     32  C   UNL     1      48.822   5.807  18.089  0.00  0.00    +0.000 A 
ATOM     33  H   UNL     1      49.352   2.760  19.203  0.00  0.00    +0.000 HD
ENDBRANCH  20  23
ENDBRANCH   2  19
TORSDOF 7
ENDMDL
MODEL 2
REMARK VINA RESULT:    -8.100      1.575      2.249
REMARK INTER + INTRA:         -12.691
REMARK INTER:                 -11.530
REMARK INTRA:                  -1.161
REMARK UNBOUND:                -1.276
REMARK  Name = 
REMARK  8 active torsions:
REMARK  status: ('A' for Active; 'I' for Inactive)
REMARK    1  A    between atoms: C_1  and  C_2
REMARK    2  A    between atoms: C_2  and  N_3
REMARK    3  A    between atoms: C_2  and  C_16
REMARK    4  A    between atoms: C_4  and  C_6
REMARK    5  A    between atoms: C_19  and  C_20
REMARK    6  A    between atoms: C_20  and  N_21
REMARK    7  A    between atoms: N_21  and  C_22
REMARK    8  A    between atoms: C_22  and  C_23
REMARK                            x       y       z     vdW  Elec       q    Type
REMARK                         _______ _______ _______ _____ _____    ______ ____
ROOT
ATOM      1  C   UNL     1      48.118   7.799  13.501  0.00  0.00    +0.000 C 
ATOM      2  C   UNL     1      48.081   6.345  13.977  0.00  0.00    +0.000 C 
ENDROOT
BRANCH   2   3
ATOM      3  C   UNL     1      47.002   5.539  13.266  0.00  0.00    +0.000 A 
ATOM      4  C   UNL     1      46.234   6.147  12.268  0.00  0.00    +0.000 A 
ATOM      5  C   UNL     1      45.223   5.443  11.602  0.00  0.00    +0.000 A 
ATOM      6  C   UNL     1      44.964   4.102  11.906  0.00  0.00    +0.000 A 
ATOM      7  C   UNL     1      45.747   3.478  12.888  0.00  0.00    +0.000 A 
ATOM      8  C   UNL     1      46.757   4.186  13.557  0.00  0.00    +0.000 A 
BRANCH   6   9
ATOM      9  C   UNL     1      43.845   3.363  11.203  0.00  0.00    +0.000 C 
BRANCH   9  10
ATOM     10  N   UNL     1      44.361   2.521  10.122  0.00  0.00    +0.000 NA
ATOM     11  H   UNL     1      43.661   1.819   9.891  0.00  0.00    +0.000 HD
BRANCH  10  12
ATOM     12  C   UNL     1      44.675   3.305   8.929  0.00  0.00    +0.000 C 
BRANCH  12  13
ATOM     13  C   UNL     1      45.758   2.636   8.117  0.00  0.00    +0.000 A 
ATOM     14  C   UNL     1      46.507   3.355   7.180  0.00  0.00    +0.000 A 
ATOM     15  C   UNL     1      47.492   2.692   6.462  0.00  0.00    +0.000 A 
ATOM     16  N   UNL     1      47.781   1.382   6.612  0.00  0.00    +0.000 NA
ATOM     17  C   UNL     1      47.050   0.704   7.521  0.00  0.00    +0.000 A 
ATOM     18  C   UNL     1      46.047   1.278   8.288  0.00  0.00    +0.000 A 
ENDBRANCH  12  13
ENDBRANCH  10  12
ENDBRANCH   9  10
ENDBRANCH   6   9
ENDBRANCH   2   3
BRANCH   2  19
ATOM     19  N   UNL     1      47.918   6.285  15.416  0.00  0.00    +0.000 N 
ATOM     20  C   UNL     1      48.980   6.184  16.276  0.00  0.00    +0.000 C 
ATOM     21  O   UNL     1      50.143   6.126  15.882  0.00  0.00    +0.000 OA
ATOM     22  H   UNL     1      46.971   6.253  15.776  0.00  0.00    +0.000 HD
BRANCH  20  23
ATOM     23  C   UNL     1      48.662   6.215  17.708  0.00  0.00    +0.000 A 
ATOM     24  C   UNL     1      48.794   5.064  18.473  0.00  0.00    +0.000 A 
ATOM     25  S   UNL     1      48.406   5.290  20.119  0.00  0.00    +0.000 S 
ATOM     26  C   UNL     1      47.994   6.920  19.854  0.00  0.00    +0.000 A 
ATOM     27  N   UNL     1      47.538   7.702  20.870  0.00  0.00    +0.000 NA
ATOM     28  C   UNL     1      47.213   8.900  20.516  0.00  0.00    +0.000 A 
ATOM     29  N   UNL     1      47.315   9.392  19.240  0.00  0.00    +0.000 N 
ATOM     30  C   UNL     1      47.851   8.667  18.205  0.00  0.00    +0.000 A 
ATOM     31  O   UNL     1      48.070   9.188  17.118  0.00  0.00    +0.000 OA
ATOM     32  C   UNL     1      48.179   7.294  18.536  0.00  0.00    +0.000 A 
ATOM     33  H   UNL     1      47.078  10.351  19.032  0.00  0.00    +0.000 HD
ENDBRANCH  20  23
ENDBRANCH   2  19
TORSDOF 7
ENDMDL
MODEL 3
REMARK VINA RESULT:    -7.415      3.440      8.269
REMARK INTER + INTRA:         -11.725
REMARK INTER:                 -10.077
REMARK INTRA:                  -1.649
REMARK UNBOUND:                -1.276
REMARK  Name = 
REMARK  8 active torsions:
REMARK  status: ('A' for Active; 'I' for Inactive)
REMARK    1  A    between atoms: C_1  and  C_2
REMARK    2  A    between atoms: C_2  and  N_3
REMARK    3  A    between atoms: C_2  and  C_16
REMARK    4  A    between atoms: C_4  and  C_6
REMARK    5  A    between atoms: C_19  and  C_20
REMARK    6  A    between atoms: C_20  and  N_21
REMARK    7  A    between atoms: N_21  and  C_22
REMARK    8  A    between atoms: C_22  and  C_23
REMARK                            x       y       z     vdW  Elec       q    Type
REMARK                         _______ _______ _______ _____ _____    ______ ____
ROOT
ATOM      1  C   UNL     1      49.624   8.245  11.418  0.00  0.00    +0.000 C 
ATOM      2  C   UNL     1      48.268   8.085  12.109  0.00  0.00    +0.000 C 
ENDROOT
BRANCH   2   3
ATOM      3  C   UNL     1      48.406   7.990  13.623  0.00  0.00    +0.000 A 
ATOM      4  C   UNL     1      48.740   6.764  14.208  0.00  0.00    +0.000 A 
ATOM      5  C   UNL     1      48.860   6.634  15.597  0.00  0.00    +0.000 A 
ATOM      6  C   UNL     1      48.666   7.734  16.439  0.00  0.00    +0.000 A 
ATOM      7  C   UNL     1      48.356   8.972  15.858  0.00  0.00    +0.000 A 
ATOM      8  C   UNL     1      48.231   9.100  14.466  0.00  0.00    +0.000 A 
BRANCH   6   9
ATOM      9  C   UNL     1      48.765   7.571  17.941  0.00  0.00    +0.000 C 
BRANCH   9  10
ATOM     10  N   UNL     1      47.660   6.763  18.462  0.00  0.00    +0.000 NA
ATOM     11  H   UNL     1      47.096   6.436  17.682  0.00  0.00    +0.000 HD
BRANCH  10  12
ATOM     12  C   UNL     1      48.145   5.615  19.226  0.00  0.00    +0.000 C 
BRANCH  12  13
ATOM     13  C   UNL     1      48.496   4.468  18.308  0.00  0.00    +0.000 A 
ATOM     14  C   UNL     1      47.532   3.883  17.481  0.00  0.00    +0.000 A 
ATOM     15  C   UNL     1      47.910   2.834  16.655  0.00  0.00    +0.000 A 
ATOM     16  N   UNL     1      49.162   2.335  16.594  0.00  0.00    +0.000 NA
ATOM     17  C   UNL     1      50.080   2.913  17.398  0.00  0.00    +0.000 A 
ATOM     18  C   UNL     1      49.801   3.967  18.255  0.00  0.00    +0.000 A 
ENDBRANCH  12  13
ENDBRANCH  10  12
ENDBRANCH   9  10
ENDBRANCH   6   9
ENDBRANCH   2   3
BRANCH   2  19
ATOM     19  N   UNL     1      47.557   6.941  11.574  0.00  0.00    +0.000 N 
ATOM     20  C   UNL     1      46.194   6.919  11.432  0.00  0.00    +0.000 C 
ATOM     21  O   UNL     1      45.482   7.866  11.761  0.00  0.00    +0.000 OA
ATOM     22  H   UNL     1      48.101   6.112  11.362  0.00  0.00    +0.000 HD
BRANCH  20  23
ATOM     23  C   UNL     1      45.625   5.723  10.800  0.00  0.00    +0.000 A 
ATOM     24  C   UNL     1      45.790   5.513   9.438  0.00  0.00    +0.000 A 
ATOM     25  S   UNL     1      45.087   4.063   8.881  0.00  0.00    +0.000 S 
ATOM     26  C   UNL     1      44.486   3.694  10.430  0.00  0.00    +0.000 A 
ATOM     27  N   UNL     1      43.745   2.574  10.647  0.00  0.00    +0.000 NA
ATOM     28  C   UNL     1      43.311   2.449  11.857  0.00  0.00    +0.000 A 
ATOM     29  N   UNL     1      43.562   3.334  12.873  0.00  0.00    +0.000 N 
ATOM     30  C   UNL     1      44.377   4.428  12.720  0.00  0.00    +0.000 A 
ATOM     31  O   UNL     1      44.706   5.109  13.684  0.00  0.00    +0.000 OA
ATOM     32  C   UNL     1      44.845   4.648  11.365  0.00  0.00    +0.000 A 
ATOM     33  H   UNL     1      43.224   3.162  13.808  0.00  0.00    +0.000 HD
ENDBRANCH  20  23
ENDBRANCH   2  19
TORSDOF 7
ENDMDL
MODEL 4
REMARK VINA RESULT:    -7.377      2.498      4.048
REMARK INTER + INTRA:         -11.673
REMARK INTER:                 -10.496
REMARK INTRA:                  -1.177
REMARK UNBOUND:                -1.276
REMARK  Name = 
REMARK  8 active torsions:
REMARK  status: ('A' for Active; 'I' for Inactive)
REMARK    1  A    between atoms: C_1  and  C_2
REMARK    2  A    between atoms: C_2  and  N_3
REMARK    3  A    between atoms: C_2  and  C_16
REMARK    4  A    between atoms: C_4  and  C_6
REMARK    5  A    between atoms: C_19  and  C_20
REMARK    6  A    between atoms: C_20  and  N_21
REMARK    7  A    between atoms: N_21  and  C_22
REMARK    8  A    between atoms: C_22  and  C_23
REMARK                            x       y       z     vdW  Elec       q    Type
REMARK                         _______ _______ _______ _____ _____    ______ ____
ROOT
ATOM      1  C   UNL     1      47.638   3.399  14.969  0.00  0.00    +0.000 C 
ATOM      2  C   UNL     1      46.928   4.740  14.766  0.00  0.00    +0.000 C 
ENDROOT
BRANCH   2   3
ATOM      3  C   UNL     1      46.043   4.736  13.526  0.00  0.00    +0.000 A 
ATOM      4  C   UNL     1      45.769   3.526  12.881  0.00  0.00    +0.000 A 
ATOM      5  C   UNL     1      44.973   3.484  11.730  0.00  0.00    +0.000 A 
ATOM      6  C   UNL     1      44.413   4.653  11.202  0.00  0.00    +0.000 A 
ATOM      7  C   UNL     1      44.662   5.866  11.859  0.00  0.00    +0.000 A 
ATOM      8  C   UNL     1      45.464   5.907  13.010  0.00  0.00    +0.000 A 
BRANCH   6   9
ATOM      9  C   UNL     1      43.583   4.597   9.938  0.00  0.00    +0.000 C 
BRANCH   9  10
ATOM     10  N   UNL     1      44.154   3.662   8.967  0.00  0.00    +0.000 NA
ATOM     11  H   UNL     1      43.454   3.454   8.259  0.00  0.00    +0.000 HD
BRANCH  10  12
ATOM     12  C   UNL     1      45.346   4.211   8.324  0.00  0.00    +0.000 C 
BRANCH  12  13
ATOM     13  C   UNL     1      46.175   3.114   7.701  0.00  0.00    +0.000 A 
ATOM     14  C   UNL     1      46.186   1.822   8.237  0.00  0.00    +0.000 A 
ATOM     15  C   UNL     1      46.963   0.851   7.623  0.00  0.00    +0.000 A 
ATOM     16  N   UNL     1      47.718   1.072   6.526  0.00  0.00    +0.000 NA
ATOM     17  C   UNL     1      47.695   2.323   6.022  0.00  0.00    +0.000 A 
ATOM     18  C   UNL     1      46.949   3.360   6.562  0.00  0.00    +0.000 A 
ENDBRANCH  12  13
ENDBRANCH  10  12
ENDBRANCH   9  10
ENDBRANCH   6   9
ENDBRANCH   2   3
BRANCH   2  19
ATOM     19  N   UNL     1      47.890   5.823  14.721  0.00  0.00    +0.000 N 
ATOM     20  C   UNL     1      48.544   6.277  15.836  0.00  0.00    +0.000 C 
ATOM     21  O   UNL     1      48.349   5.803  16.953  0.00  0.00    +0.000 OA
ATOM     22  H   UNL     1      48.022   6.291  13.831  0.00  0.00    +0.000 HD
BRANCH  20  23
ATOM     23  C   UNL     1      49.548   7.325  15.619  0.00  0.00    +0.000 A 
ATOM     24  C   UNL     1      50.841   7.155  16.095  0.00  0.00    +0.000 A 
ATOM     25  S   UNL     1      51.879   8.459  15.731  0.00  0.00    +0.000 S 
ATOM     26  C   UNL     1      50.620   9.322  14.976  0.00  0.00    +0.000 A 
ATOM     27  N   UNL     1      50.831  10.563  14.460  0.00  0.00    +0.000 NA
ATOM     28  C   UNL     1      49.777  11.121  13.966  0.00  0.00    +0.000 A 
ATOM     29  N   UNL     1      48.533  10.545  13.928  0.00  0.00    +0.000 N 
ATOM     30  C   UNL     1      48.295   9.262  14.356  0.00  0.00    +0.000 A 
ATOM     31  O   UNL     1      47.211   8.725  14.165  0.00  0.00    +0.000 OA
ATOM     32  C   UNL     1      49.434   8.611  14.974  0.00  0.00    +0.000 A 
ATOM     33  H   UNL     1      47.754  11.018  13.495  0.00  0.00    +0.000 HD
ENDBRANCH  20  23
ENDBRANCH   2  19
TORSDOF 7
ENDMDL
MODEL 5
REMARK VINA RESULT:    -7.159      2.304      2.968
REMARK INTER + INTRA:         -11.365
REMARK INTER:                 -10.129
REMARK INTRA:                  -1.236
REMARK UNBOUND:                -1.276
REMARK  Name = 
REMARK  8 active torsions:
REMARK  status: ('A' for Active; 'I' for Inactive)
REMARK    1  A    between atoms: C_1  and  C_2
REMARK    2  A    between atoms: C_2  and  N_3
REMARK    3  A    between atoms: C_2  and  C_16
REMARK    4  A    between atoms: C_4  and  C_6
REMARK    5  A    between atoms: C_19  and  C_20
REMARK    6  A    between atoms: C_20  and  N_21
REMARK    7  A    between atoms: N_21  and  C_22
REMARK    8  A    between atoms: C_22  and  C_23
REMARK                            x       y       z     vdW  Elec       q    Type
REMARK                         _______ _______ _______ _____ _____    ______ ____
ROOT
ATOM      1  C   UNL     1      47.804   3.094  16.078  0.00  0.00    +0.000 C 
ATOM      2  C   UNL     1      47.242   4.489  15.795  0.00  0.00    +0.000 C 
ENDROOT
BRANCH   2   3
ATOM      3  C   UNL     1      46.752   4.627  14.360  0.00  0.00    +0.000 A 
ATOM      4  C   UNL     1      46.957   5.829  13.675  0.00  0.00    +0.000 A 
ATOM      5  C   UNL     1      46.506   5.999  12.361  0.00  0.00    +0.000 A 
ATOM      6  C   UNL     1      45.852   4.962  11.687  0.00  0.00    +0.000 A 
ATOM      7  C   UNL     1      45.665   3.746  12.359  0.00  0.00    +0.000 A 
ATOM      8  C   UNL     1      46.113   3.578  13.677  0.00  0.00    +0.000 A 
BRANCH   6   9
ATOM      9  C   UNL     1      45.339   5.171  10.278  0.00  0.00    +0.000 C 
BRANCH   9  10
ATOM     10  N   UNL     1      44.807   3.929   9.716  0.00  0.00    +0.000 NA
ATOM     11  H   UNL     1      43.857   3.796  10.054  0.00  0.00    +0.000 HD
BRANCH  10  12
ATOM     12  C   UNL     1      44.803   3.956   8.254  0.00  0.00    +0.000 C 
BRANCH  12  13
ATOM     13  C   UNL     1      45.842   3.012   7.696  0.00  0.00    +0.000 A 
ATOM     14  C   UNL     1      46.008   1.728   8.224  0.00  0.00    +0.000 A 
ATOM     15  C   UNL     1      46.976   0.900   7.671  0.00  0.00    +0.000 A 
ATOM     16  N   UNL     1      47.776   1.257   6.645  0.00  0.00    +0.000 NA
ATOM     17  C   UNL     1      47.601   2.499   6.148  0.00  0.00    +0.000 A 
ATOM     18  C   UNL     1      46.660   3.397   6.629  0.00  0.00    +0.000 A 
ENDBRANCH  12  13
ENDBRANCH  10  12
ENDBRANCH   9  10
ENDBRANCH   6   9
ENDBRANCH   2   3
BRANCH   2  19
ATOM     19  N   UNL     1      48.223   5.506  16.115  0.00  0.00    +0.000 N 
ATOM     20  C   UNL     1      48.321   6.073  17.359  0.00  0.00    +0.000 C 
ATOM     21  O   UNL     1      47.575   5.762  18.285  0.00  0.00    +0.000 OA
ATOM     22  H   UNL     1      48.807   5.844  15.358  0.00  0.00    +0.000 HD
BRANCH  20  23
ATOM     23  C   UNL     1      49.416   7.031  17.553  0.00  0.00    +0.000 A 
ATOM     24  C   UNL     1      49.133   8.357  17.851  0.00  0.00    +0.000 A 
ATOM     25  S   UNL     1      50.524   9.319  18.067  0.00  0.00    +0.000 S 
ATOM     26  C   UNL     1      51.553   8.011  17.712  0.00  0.00    +0.000 A 
ATOM     27  N   UNL     1      52.904   8.166  17.691  0.00  0.00    +0.000 NA
ATOM     28  C   UNL     1      53.557   7.104  17.355  0.00  0.00    +0.000 A 
ATOM     29  N   UNL     1      52.982   5.897  17.051  0.00  0.00    +0.000 N 
ATOM     30  C   UNL     1      51.631   5.672  17.146  0.00  0.00    +0.000 A 
ATOM     31  O   UNL     1      51.169   4.545  17.019  0.00  0.00    +0.000 OA
ATOM     32  C   UNL     1      50.845   6.849  17.464  0.00  0.00    +0.000 A 
ATOM     33  H   UNL     1      53.550   5.092  16.831  0.00  0.00    +0.000 HD
ENDBRANCH  20  23
ENDBRANCH   2  19
TORSDOF 7
ENDMDL
MODEL 6
REMARK VINA RESULT:    -6.961      3.117      8.839
REMARK INTER + INTRA:         -11.086
REMARK INTER:                  -9.536
REMARK INTRA:                  -1.549
REMARK UNBOUND:                -1.276
REMARK  Name = 
REMARK  8 active torsions:
REMARK  status: ('A' for Active; 'I' for Inactive)
REMARK    1  A    between atoms: C_1  and  C_2
REMARK    2  A    between atoms: C_2  and  N_3
REMARK    3  A    between atoms: C_2  and  C_16
REMARK    4  A    between atoms: C_4  and  C_6
REMARK    5  A    between atoms: C_19  and  C_20
REMARK    6  A    between atoms: C_20  and  N_21
REMARK    7  A    between atoms: N_21  and  C_22
REMARK    8  A    between atoms: C_22  and  C_23
REMARK                            x       y       z     vdW  Elec       q    Type
REMARK                         _______ _______ _______ _____ _____    ______ ____
ROOT
ATOM      1  C   UNL     1      48.758   7.862  11.411  0.00  0.00    +0.000 C 
ATOM      2  C   UNL     1      47.679   7.785  12.493  0.00  0.00    +0.000 C 
ENDROOT
BRANCH   2   3
ATOM      3  C   UNL     1      48.268   7.873  13.895  0.00  0.00    +0.000 A 
ATOM      4  C   UNL     1      47.774   8.827  14.791  0.00  0.00    +0.000 A 
ATOM      5  C   UNL     1      48.301   8.948  16.082  0.00  0.00    +0.000 A 
ATOM      6  C   UNL     1      49.328   8.104  16.520  0.00  0.00    +0.000 A 
ATOM      7  C   UNL     1      49.810   7.128  15.636  0.00  0.00    +0.000 A 
ATOM      8  C   UNL     1      49.284   7.011  14.341  0.00  0.00    +0.000 A 
BRANCH   6   9
ATOM      9  C   UNL     1      49.912   8.269  17.907  0.00  0.00    +0.000 C 
BRANCH   9  10
ATOM     10  N   UNL     1      50.512   7.021  18.383  0.00  0.00    +0.000 NA
ATOM     11  H   UNL     1      51.351   7.243  18.914  0.00  0.00    +0.000 HD
BRANCH  10  12
ATOM     12  C   UNL     1      49.589   6.265  19.227  0.00  0.00    +0.000 C 
BRANCH  12  13
ATOM     13  C   UNL     1      49.007   5.094  18.471  0.00  0.00    +0.000 A 
ATOM     14  C   UNL     1      49.778   3.962  18.186  0.00  0.00    +0.000 A 
ATOM     15  C   UNL     1      49.192   2.914  17.491  0.00  0.00    +0.000 A 
ATOM     16  N   UNL     1      47.910   2.913  17.067  0.00  0.00    +0.000 NA
ATOM     17  C   UNL     1      47.181   4.013  17.351  0.00  0.00    +0.000 A 
ATOM     18  C   UNL     1      47.675   5.108  18.042  0.00  0.00    +0.000 A 
ENDBRANCH  12  13
ENDBRANCH  10  12
ENDBRANCH   9  10
ENDBRANCH   6   9
ENDBRANCH   2   3
BRANCH   2  19
ATOM     19  N   UNL     1      46.882   6.586  12.333  0.00  0.00    +0.000 N 
ATOM     20  C   UNL     1      45.635   6.598  11.764  0.00  0.00    +0.000 C 
ATOM     21  O   UNL     1      45.105   7.631  11.361  0.00  0.00    +0.000 OA
ATOM     22  H   UNL     1      47.252   5.726  12.721  0.00  0.00    +0.000 HD
BRANCH  20  23
ATOM     23  C   UNL     1      44.984   5.293  11.596  0.00  0.00    +0.000 A 
ATOM     24  C   UNL     1      44.279   4.730  12.651  0.00  0.00    +0.000 A 
ATOM     25  S   UNL     1      43.568   3.227  12.271  0.00  0.00    +0.000 S 
ATOM     26  C   UNL     1      44.228   3.250  10.702  0.00  0.00    +0.000 A 
ATOM     27  N   UNL     1      44.025   2.216   9.840  0.00  0.00    +0.000 NA
ATOM     28  C   UNL     1      44.627   2.343   8.705  0.00  0.00    +0.000 A 
ATOM     29  N   UNL     1      45.403   3.415   8.348  0.00  0.00    +0.000 N 
ATOM     30  C   UNL     1      45.561   4.518   9.150  0.00  0.00    +0.000 A 
ATOM     31  O   UNL     1      46.131   5.521   8.738  0.00  0.00    +0.000 OA
ATOM     32  C   UNL     1      44.953   4.402  10.462  0.00  0.00    +0.000 A 
ATOM     33  H   UNL     1      45.819   3.474   7.430  0.00  0.00    +0.000 HD
ENDBRANCH  20  23
ENDBRANCH   2  19
TORSDOF 7
ENDMDL
MODEL 7
REMARK VINA RESULT:    -6.833      3.301      5.275
REMARK INTER + INTRA:         -10.906
REMARK INTER:                  -9.456
REMARK INTRA:                  -1.450
REMARK UNBOUND:                -1.276
REMARK  Name = 
REMARK  8 active torsions:
REMARK  status: ('A' for Active; 'I' for Inactive)
REMARK    1  A    between atoms: C_1  and  C_2
REMARK    2  A    between atoms: C_2  and  N_3
REMARK    3  A    between atoms: C_2  and  C_16
REMARK    4  A    between atoms: C_4  and  C_6
REMARK    5  A    between atoms: C_19  and  C_20
REMARK    6  A    between atoms: C_20  and  N_21
REMARK    7  A    between atoms: N_21  and  C_22
REMARK    8  A    between atoms: C_22  and  C_23
REMARK                            x       y       z     vdW  Elec       q    Type
REMARK                         _______ _______ _______ _____ _____    ______ ____
ROOT
ATOM      1  C   UNL     1      47.641   2.911  17.640  0.00  0.00    +0.000 C 
ATOM      2  C   UNL     1      48.470   4.174  17.394  0.00  0.00    +0.000 C 
ENDROOT
BRANCH   2   3
ATOM      3  C   UNL     1      48.094   4.859  16.087  0.00  0.00    +0.000 A 
ATOM      4  C   UNL     1      47.166   4.254  15.235  0.00  0.00    +0.000 A 
ATOM      5  C   UNL     1      46.807   4.845  14.018  0.00  0.00    +0.000 A 
ATOM      6  C   UNL     1      47.355   6.072  13.628  0.00  0.00    +0.000 A 
ATOM      7  C   UNL     1      48.267   6.698  14.489  0.00  0.00    +0.000 A 
ATOM      8  C   UNL     1      48.630   6.101  15.706  0.00  0.00    +0.000 A 
BRANCH   6   9
ATOM      9  C   UNL     1      46.984   6.684  12.293  0.00  0.00    +0.000 C 
BRANCH   9  10
ATOM     10  N   UNL     1      45.633   7.246  12.323  0.00  0.00    +0.000 NA
ATOM     11  H   UNL     1      45.700   8.255  12.432  0.00  0.00    +0.000 HD
BRANCH  10  12
ATOM     12  C   UNL     1      44.891   6.936  11.103  0.00  0.00    +0.000 C 
BRANCH  12  13
ATOM     13  C   UNL     1      44.414   5.503  11.113  0.00  0.00    +0.000 A 
ATOM     14  C   UNL     1      44.753   4.621  10.082  0.00  0.00    +0.000 A 
ATOM     15  C   UNL     1      44.290   3.315  10.143  0.00  0.00    +0.000 A 
ATOM     16  N   UNL     1      43.525   2.832  11.144  0.00  0.00    +0.000 NA
ATOM     17  C   UNL     1      43.208   3.697  12.131  0.00  0.00    +0.000 A 
ATOM     18  C   UNL     1      43.625   5.019  12.161  0.00  0.00    +0.000 A 
ENDBRANCH  12  13
ENDBRANCH  10  12
ENDBRANCH   9  10
ENDBRANCH   6   9
ENDBRANCH   2   3
BRANCH   2  19
ATOM     19  N   UNL     1      49.886   3.869  17.438  0.00  0.00    +0.000 N 
ATOM     20  C   UNL     1      50.679   4.196  18.507  0.00  0.00    +0.000 C 
ATOM     21  O   UNL     1      50.244   4.781  19.495  0.00  0.00    +0.000 OA
ATOM     22  H   UNL     1      50.299   3.454  16.610  0.00  0.00    +0.000 HD
BRANCH  20  23
ATOM     23  C   UNL     1      52.076   3.750  18.441  0.00  0.00    +0.000 A 
ATOM     24  C   UNL     1      53.098   4.611  18.816  0.00  0.00    +0.000 A 
ATOM     25  S   UNL     1      54.652   3.917  18.700  0.00  0.00    +0.000 S 
ATOM     26  C   UNL     1      54.017   2.462  18.088  0.00  0.00    +0.000 A 
ATOM     27  N   UNL     1      54.834   1.431  17.740  0.00  0.00    +0.000 NA
ATOM     28  C   UNL     1      54.221   0.410  17.242  0.00  0.00    +0.000 A 
ATOM     29  N   UNL     1      52.864   0.321  17.071  0.00  0.00    +0.000 N 
ATOM     30  C   UNL     1      51.996   1.299  17.489  0.00  0.00    +0.000 A 
ATOM     31  O   UNL     1      50.785   1.120  17.463  0.00  0.00    +0.000 OA
ATOM     32  C   UNL     1      52.637   2.494  18.004  0.00  0.00    +0.000 A 
ATOM     33  H   UNL     1      52.440  -0.520  16.708  0.00  0.00    +0.000 HD
ENDBRANCH  20  23
ENDBRANCH   2  19
TORSDOF 7
ENDMDL
MODEL 8
REMARK VINA RESULT:    -6.785      3.181      4.657
REMARK INTER + INTRA:         -10.838
REMARK INTER:                  -9.598
REMARK INTRA:                  -1.240
REMARK UNBOUND:                -1.276
REMARK  Name = 
REMARK  8 active torsions:
REMARK  status: ('A' for Active; 'I' for Inactive)
REMARK    1  A    between atoms: C_1  and  C_2
REMARK    2  A    between atoms: C_2  and  N_3
REMARK    3  A    between atoms: C_2  and  C_16
REMARK    4  A    between atoms: C_4  and  C_6
REMARK    5  A    between atoms: C_19  and  C_20
REMARK    6  A    between atoms: C_20  and  N_21
REMARK    7  A    between atoms: N_21  and  C_22
REMARK    8  A    between atoms: C_22  and  C_23
REMARK                            x       y       z     vdW  Elec       q    Type
REMARK                         _______ _______ _______ _____ _____    ______ ____
ROOT
ATOM      1  C   UNL     1      48.820   6.792  18.794  0.00  0.00    +0.000 C 
ATOM      2  C   UNL     1      49.644   6.380  17.572  0.00  0.00    +0.000 C 
ENDROOT
BRANCH   2   3
ATOM      3  C   UNL     1      48.761   5.929  16.415  0.00  0.00    +0.000 A 
ATOM      4  C   UNL     1      47.975   4.781  16.555  0.00  0.00    +0.000 A 
ATOM      5  C   UNL     1      47.164   4.327  15.509  0.00  0.00    +0.000 A 
ATOM      6  C   UNL     1      47.103   5.021  14.295  0.00  0.00    +0.000 A 
ATOM      7  C   UNL     1      47.869   6.187  14.156  0.00  0.00    +0.000 A 
ATOM      8  C   UNL     1      48.685   6.639  15.204  0.00  0.00    +0.000 A 
BRANCH   6   9
ATOM      9  C   UNL     1      46.248   4.499  13.160  0.00  0.00    +0.000 C 
BRANCH   9  10
ATOM     10  N   UNL     1      45.857   5.577  12.250  0.00  0.00    +0.000 NA
ATOM     11  H   UNL     1      46.587   5.700  11.553  0.00  0.00    +0.000 HD
BRANCH  10  12
ATOM     12  C   UNL     1      44.590   5.286  11.580  0.00  0.00    +0.000 C 
BRANCH  12  13
ATOM     13  C   UNL     1      44.812   4.419  10.364  0.00  0.00    +0.000 A 
ATOM     14  C   UNL     1      44.315   3.113  10.306  0.00  0.00    +0.000 A 
ATOM     15  C   UNL     1      44.545   2.362   9.163  0.00  0.00    +0.000 A 
ATOM     16  N   UNL     1      45.225   2.813   8.088  0.00  0.00    +0.000 NA
ATOM     17  C   UNL     1      45.697   4.076   8.161  0.00  0.00    +0.000 A 
ATOM     18  C   UNL     1      45.515   4.905   9.257  0.00  0.00    +0.000 A 
ENDBRANCH  12  13
ENDBRANCH  10  12
ENDBRANCH   9  10
ENDBRANCH   6   9
ENDBRANCH   2   3
BRANCH   2  19
ATOM     19  N   UNL     1      50.606   5.357  17.928  0.00  0.00    +0.000 N 
ATOM     20  C   UNL     1      51.867   5.313  17.395  0.00  0.00    +0.000 C 
ATOM     21  O   UNL     1      52.263   6.132  16.570  0.00  0.00    +0.000 OA
ATOM     22  H   UNL     1      50.292   4.619  18.547  0.00  0.00    +0.000 HD
BRANCH  20  23
ATOM     23  C   UNL     1      52.755   4.265  17.913  0.00  0.00    +0.000 A 
ATOM     24  C   UNL     1      53.965   4.610  18.501  0.00  0.00    +0.000 A 
ATOM     25  S   UNL     1      54.854   3.269  19.068  0.00  0.00    +0.000 S 
ATOM     26  C   UNL     1      53.680   2.178  18.495  0.00  0.00    +0.000 A 
ATOM     27  N   UNL     1      53.845   0.834  18.632  0.00  0.00    +0.000 NA
ATOM     28  C   UNL     1      52.903   0.126  18.105  0.00  0.00    +0.000 A 
ATOM     29  N   UNL     1      51.804   0.639  17.465  0.00  0.00    +0.000 N 
ATOM     30  C   UNL     1      51.554   1.986  17.382  0.00  0.00    +0.000 A 
ATOM     31  O   UNL     1      50.490   2.404  16.943  0.00  0.00    +0.000 OA
ATOM     32  C   UNL     1      52.611   2.829  17.908  0.00  0.00    +0.000 A 
ATOM     33  H   UNL     1      51.082   0.033  17.104  0.00  0.00    +0.000 HD
ENDBRANCH  20  23
ENDBRANCH   2  19
TORSDOF 7
ENDMDL
MODEL 9
REMARK VINA RESULT:    -6.586      3.353      9.571
REMARK INTER + INTRA:         -10.558
REMARK INTER:                  -8.807
REMARK INTRA:                  -1.751
REMARK UNBOUND:                -1.276
REMARK  Name = 
REMARK  8 active torsions:
REMARK  status: ('A' for Active; 'I' for Inactive)
REMARK    1  A    between atoms: C_1  and  C_2
REMARK    2  A    between atoms: C_2  and  N_3
REMARK    3  A    between atoms: C_2  and  C_16
REMARK    4  A    between atoms: C_4  and  C_6
REMARK    5  A    between atoms: C_19  and  C_20
REMARK    6  A    between atoms: C_20  and  N_21
REMARK    7  A    between atoms: N_21  and  C_22
REMARK    8  A    between atoms: C_22  and  C_23
REMARK                            x       y       z     vdW  Elec       q    Type
REMARK                         _______ _______ _______ _____ _____    ______ ____
ROOT
ATOM      1  C   UNL     1      47.855   3.052  16.679  0.00  0.00    +0.000 C 
ATOM      2  C   UNL     1      48.093   4.501  16.247  0.00  0.00    +0.000 C 
ENDROOT
BRANCH   2   3
ATOM      3  C   UNL     1      48.101   5.457  17.433  0.00  0.00    +0.000 A 
ATOM      4  C   UNL     1      47.148   5.306  18.445  0.00  0.00    +0.000 A 
ATOM      5  C   UNL     1      47.114   6.175  19.543  0.00  0.00    +0.000 A 
ATOM      6  C   UNL     1      48.047   7.210  19.666  0.00  0.00    +0.000 A 
ATOM      7  C   UNL     1      49.022   7.351  18.668  0.00  0.00    +0.000 A 
ATOM      8  C   UNL     1      49.052   6.483  17.567  0.00  0.00    +0.000 A 
BRANCH   6   9
ATOM      9  C   UNL     1      47.977   8.163  20.841  0.00  0.00    +0.000 C 
BRANCH   9  10
ATOM     10  N   UNL     1      47.016   9.240  20.596  0.00  0.00    +0.000 NA
ATOM     11  H   UNL     1      46.267   9.173  21.281  0.00  0.00    +0.000 HD
BRANCH  10  12
ATOM     12  C   UNL     1      47.644  10.557  20.688  0.00  0.00    +0.000 C 
BRANCH  12  13
ATOM     13  C   UNL     1      48.441  10.860  19.442  0.00  0.00    +0.000 A 
ATOM     14  C   UNL     1      49.810  11.138  19.510  0.00  0.00    +0.000 A 
ATOM     15  C   UNL     1      50.494  11.407  18.333  0.00  0.00    +0.000 A 
ATOM     16  N   UNL     1      49.920  11.419  17.112  0.00  0.00    +0.000 NA
ATOM     17  C   UNL     1      48.599  11.148  17.065  0.00  0.00    +0.000 A 
ATOM     18  C   UNL     1      47.830  10.863  18.184  0.00  0.00    +0.000 A 
ENDBRANCH  12  13
ENDBRANCH  10  12
ENDBRANCH   9  10
ENDBRANCH   6   9
ENDBRANCH   2   3
BRANCH   2  19
ATOM     19  N   UNL     1      47.115   4.903  15.256  0.00  0.00    +0.000 N 
ATOM     20  C   UNL     1      47.449   5.625  14.140  0.00  0.00    +0.000 C 
ATOM     21  O   UNL     1      48.600   5.989  13.911  0.00  0.00    +0.000 OA
ATOM     22  H   UNL     1      46.143   4.688  15.447  0.00  0.00    +0.000 HD
BRANCH  20  23
ATOM     23  C   UNL     1      46.364   5.888  13.187  0.00  0.00    +0.000 A 
ATOM     24  C   UNL     1      46.047   7.194  12.840  0.00  0.00    +0.000 A 
ATOM     25  S   UNL     1      44.780   7.310  11.704  0.00  0.00    +0.000 S 
ATOM     26  C   UNL     1      44.573   5.621  11.680  0.00  0.00    +0.000 A 
ATOM     27  N   UNL     1      43.606   5.043  10.918  0.00  0.00    +0.000 NA
ATOM     28  C   UNL     1      43.528   3.760  11.038  0.00  0.00    +0.000 A 
ATOM     29  N   UNL     1      44.339   3.000  11.841  0.00  0.00    +0.000 N 
ATOM     30  C   UNL     1      45.383   3.530  12.557  0.00  0.00    +0.000 A 
ATOM     31  O   UNL     1      46.181   2.805  13.139  0.00  0.00    +0.000 OA
ATOM     32  C   UNL     1      45.478   4.976  12.503  0.00  0.00    +0.000 A 
ATOM     33  H   UNL     1      44.252   1.995  11.864  0.00  0.00    +0.000 HD
ENDBRANCH  20  23
ENDBRANCH   2  19
TORSDOF 7
ENDMDL
