MODEL 1
REMARK VINA RESULT:    -7.646      0.000      0.000
REMARK INTER + INTRA:         -11.468
REMARK INTER:                 -10.552
REMARK INTRA:                  -0.916
REMARK UNBOUND:                -0.916
REMARK  Name = 
REMARK  7 active torsions:
REMARK  status: ('A' for Active; 'I' for Inactive)
REMARK    1  A    between atoms: N_1  and  C_2
REMARK    2  A    between atoms: C_2  and  C_3
REMARK    3  A    between atoms: C_3  and  C_4
REMARK    4  A    between atoms: C_7  and  O_8
REMARK    5  A    between atoms: O_8  and  C_9
REMARK    6  A    between atoms: C_9  and  C_10
REMARK    7  A    between atoms: C_14  and  C_15
REMARK                            x       y       z     vdW  Elec       q    Type
REMARK                         _______ _______ _______ _____ _____    ______ ____
ROOT
ATOM      1  O   UNL     1      43.614   4.529  10.211  0.00  0.00    +0.000 OA
ENDROOT
BRANCH   1   5
ATOM      2  C   UNL     1      46.173   2.155   7.926  0.00  0.00    +0.000 A 
ATOM      3  C   UNL     1      45.258   1.599   8.828  0.00  0.00    +0.000 A 
ATOM      4  C   UNL     1      44.399   2.424   9.557  0.00  0.00    +0.000 A 
ATOM      5  C   UNL     1      44.448   3.810   9.400  0.00  0.00    +0.000 A 
ATOM      6  C   UNL     1      45.311   4.363   8.455  0.00  0.00    +0.000 A 
ATOM      7  C   UNL     1      46.173   3.540   7.729  0.00  0.00    +0.000 A 
BRANCH   2   8
ATOM      8  C   UNL     1      47.155   1.287   7.181  0.00  0.00    +0.000 C 
BRANCH   8   9
ATOM      9  C   UNL     1      48.351   2.076   6.646  0.00  0.00    +0.000 C 
BRANCH   9  10
ATOM     10  N   UNL     1      48.396   2.015   5.185  0.00  0.00    +0.000 NA
ATOM     11  H   UNL     1      47.449   2.089   4.817  0.00  0.00    +0.000 HD
ATOM     12  H   UNL     1      48.745   1.103   4.893  0.00  0.00    +0.000 HD
ENDBRANCH   9  10
ENDBRANCH   8   9
ENDBRANCH   2   8
ENDBRANCH   1   5
BRANCH   1  13
ATOM     13  C   UNL     1      43.541   4.075  11.562  0.00  0.00    +0.000 C 
BRANCH  13  14
ATOM     14  C   UNL     1      44.744   4.606  12.298  0.00  0.00    +0.000 A 
ATOM     15  C   UNL     1      45.661   3.738  12.899  0.00  0.00    +0.000 A 
ATOM     16  C   UNL     1      46.786   4.244  13.550  0.00  0.00    +0.000 A 
ATOM     17  C   UNL     1      47.012   5.621  13.593  0.00  0.00    +0.000 A 
ATOM     18  C   UNL     1      46.115   6.508  12.984  0.00  0.00    +0.000 A 
ATOM     19  C   UNL     1      44.978   5.989  12.346  0.00  0.00    +0.000 A 
BRANCH  18  20
ATOM     20  C   UNL     1      46.355   7.996  12.985  0.00  0.00    +0.000 C 
ATOM     21  F   UNL     1      45.218   8.734  13.123  0.00  0.00    +0.000 F 
ATOM     22  F   UNL     1      47.179   8.391  13.995  0.00  0.00    +0.000 F 
ATOM     23  F   UNL     1      46.942   8.432  11.835  0.00  0.00    +0.000 F 
ENDBRANCH  18  20
ENDBRANCH  13  14
ENDBRANCH   1  13
TORSDOF 7
ENDMDL
MODEL 2
REMARK VINA RESULT:    -7.359      1.917      2.742
REMARK INTER + INTRA:         -11.071
REMARK INTER:                 -10.234
REMARK INTRA:                  -0.837
REMARK UNBOUND:                -0.916
REMARK  Name = 
REMARK  7 active torsions:
REMARK  status: ('A' for Active; 'I' for Inactive)
REMARK    1  A    between atoms: N_1  and  C_2
REMARK    2  A    between atoms: C_2  and  C_3
REMARK    3  A    between atoms: C_3  and  C_4
REMARK    4  A    between atoms: C_7  and  O_8
REMARK    5  A    between atoms: O_8  and  C_9
REMARK    6  A    between atoms: C_9  and  C_10
REMARK    7  A    between atoms: C_14  and  C_15
REMARK                            x       y       z     vdW  Elec       q    Type
REMARK                         _______ _______ _______ _____ _____    ______ ____
ROOT
ATOM      1  O   UNL     1      43.355   4.886  10.269  0.00  0.00    +0.000 OA
ENDROOT
BRANCH   1   5
ATOM      2  C   UNL     1      45.936   2.380   8.155  0.00  0.00    +0.000 A 
ATOM      3  C   UNL     1      45.940   3.769   7.974  0.00  0.00    +0.000 A 
ATOM      4  C   UNL     1      45.079   4.579   8.718  0.00  0.00    +0.000 A 
ATOM      5  C   UNL     1      44.202   4.012   9.644  0.00  0.00    +0.000 A 
ATOM      6  C   UNL     1      44.242   2.638   9.876  0.00  0.00    +0.000 A 
ATOM      7  C   UNL     1      45.098   1.827   9.129  0.00  0.00    +0.000 A 
BRANCH   2   8
ATOM      8  C   UNL     1      46.808   1.484   7.313  0.00  0.00    +0.000 C 
BRANCH   8   9
ATOM      9  C   UNL     1      47.210   2.133   5.987  0.00  0.00    +0.000 C 
BRANCH   9  10
ATOM     10  N   UNL     1      48.605   1.830   5.668  0.00  0.00    +0.000 NA
ATOM     11  H   UNL     1      49.035   2.647   5.237  0.00  0.00    +0.000 HD
ATOM     12  H   UNL     1      48.642   1.087   4.971  0.00  0.00    +0.000 HD
ENDBRANCH   9  10
ENDBRANCH   8   9
ENDBRANCH   2   8
ENDBRANCH   1   5
BRANCH   1  13
ATOM     13  C   UNL     1      43.310   4.775  11.691  0.00  0.00    +0.000 C 
BRANCH  13  14
ATOM     14  C   UNL     1      44.592   5.344  12.244  0.00  0.00    +0.000 A 
ATOM     15  C   UNL     1      45.080   6.578  11.803  0.00  0.00    +0.000 A 
ATOM     16  C   UNL     1      46.251   7.107  12.346  0.00  0.00    +0.000 A 
ATOM     17  C   UNL     1      46.935   6.414  13.346  0.00  0.00    +0.000 A 
ATOM     18  C   UNL     1      46.455   5.184  13.815  0.00  0.00    +0.000 A 
ATOM     19  C   UNL     1      45.285   4.653  13.249  0.00  0.00    +0.000 A 
BRANCH  18  20
ATOM     20  C   UNL     1      47.155   4.433  14.920  0.00  0.00    +0.000 C 
ATOM     21  F   UNL     1      47.540   3.175  14.568  0.00  0.00    +0.000 F 
ATOM     22  F   UNL     1      48.287   5.064  15.342  0.00  0.00    +0.000 F 
ATOM     23  F   UNL     1      46.376   4.287  16.028  0.00  0.00    +0.000 F 
ENDBRANCH  18  20
ENDBRANCH  13  14
ENDBRANCH   1  13
TORSDOF 7
ENDMDL
MODEL 3
REMARK VINA RESULT:    -6.900      1.286      1.984
REMARK INTER + INTRA:         -10.438
REMARK INTER:                  -9.554
REMARK INTRA:                  -0.884
REMARK UNBOUND:                -0.916
REMARK  Name = 
REMARK  7 active torsions:
REMARK  status: ('A' for Active; 'I' for Inactive)
REMARK    1  A    between atoms: N_1  and  C_2
REMARK    2  A    between atoms: C_2  and  C_3
REMARK    3  A    between atoms: C_3  and  C_4
REMARK    4  A    between atoms: C_7  and  O_8
REMARK    5  A    between atoms: O_8  and  C_9
REMARK    6  A    between atoms: C_9  and  C_10
REMARK    7  A    between atoms: C_14  and  C_15
REMARK                            x       y       z     vdW  Elec       q    Type
REMARK                         _______ _______ _______ _____ _____    ______ ____
ROOT
ATOM      1  O   UNL     1      43.413   4.311  10.325  0.00  0.00    +0.000 OA
ENDROOT
BRANCH   1   5
ATOM      2  C   UNL     1      46.229   2.369   7.937  0.00  0.00    +0.000 A 
ATOM      3  C   UNL     1      45.386   1.666   8.806  0.00  0.00    +0.000 A 
ATOM      4  C   UNL     1      44.437   2.347   9.571  0.00  0.00    +0.000 A 
ATOM      5  C   UNL     1      44.325   3.736   9.483  0.00  0.00    +0.000 A 
ATOM      6  C   UNL     1      45.116   4.432   8.571  0.00  0.00    +0.000 A 
ATOM      7  C   UNL     1      46.068   3.752   7.809  0.00  0.00    +0.000 A 
BRANCH   2   8
ATOM      8  C   UNL     1      47.305   1.659   7.156  0.00  0.00    +0.000 C 
BRANCH   8   9
ATOM      9  C   UNL     1      47.236   1.957   5.656  0.00  0.00    +0.000 C 
BRANCH   9  10
ATOM     10  N   UNL     1      48.566   2.266   5.132  0.00  0.00    +0.000 NA
ATOM     11  H   UNL     1      48.827   1.563   4.443  0.00  0.00    +0.000 HD
ATOM     12  H   UNL     1      49.253   2.199   5.882  0.00  0.00    +0.000 HD
ENDBRANCH   9  10
ENDBRANCH   8   9
ENDBRANCH   2   8
ENDBRANCH   1   5
BRANCH   1  13
ATOM     13  C   UNL     1      43.787   4.333  11.702  0.00  0.00    +0.000 C 
BRANCH  13  14
ATOM     14  C   UNL     1      44.604   5.575  11.944  0.00  0.00    +0.000 A 
ATOM     15  C   UNL     1      44.141   6.831  11.540  0.00  0.00    +0.000 A 
ATOM     16  C   UNL     1      44.894   7.976  11.798  0.00  0.00    +0.000 A 
ATOM     17  C   UNL     1      46.110   7.878  12.478  0.00  0.00    +0.000 A 
ATOM     18  C   UNL     1      46.585   6.632  12.907  0.00  0.00    +0.000 A 
ATOM     19  C   UNL     1      45.827   5.484  12.626  0.00  0.00    +0.000 A 
BRANCH  18  20
ATOM     20  C   UNL     1      47.876   6.502  13.674  0.00  0.00    +0.000 C 
ATOM     21  F   UNL     1      48.200   7.614  14.392  0.00  0.00    +0.000 F 
ATOM     22  F   UNL     1      47.850   5.476  14.570  0.00  0.00    +0.000 F 
ATOM     23  F   UNL     1      48.944   6.260  12.864  0.00  0.00    +0.000 F 
ENDBRANCH  18  20
ENDBRANCH  13  14
ENDBRANCH   1  13
TORSDOF 7
ENDMDL
MODEL 4
REMARK VINA RESULT:    -6.717      4.495      6.999
REMARK INTER + INTRA:         -10.185
REMARK INTER:                  -9.840
REMARK INTRA:                  -0.345
REMARK UNBOUND:                -0.916
REMARK  Name = 
REMARK  7 active torsions:
REMARK  status: ('A' for Active; 'I' for Inactive)
REMARK    1  A    between atoms: N_1  and  C_2
REMARK    2  A    between atoms: C_2  and  C_3
REMARK    3  A    between atoms: C_3  and  C_4
REMARK    4  A    between atoms: C_7  and  O_8
REMARK    5  A    between atoms: O_8  and  C_9
REMARK    6  A    between atoms: C_9  and  C_10
REMARK    7  A    between atoms: C_14  and  C_15
REMARK                            x       y       z     vdW  Elec       q    Type
REMARK                         _______ _______ _______ _____ _____    ______ ____
ROOT
ATOM      1  O   UNL     1      44.594   2.947  12.094  0.00  0.00    +0.000 OA
ENDROOT
BRANCH   1   5
ATOM      2  C   UNL     1      45.813   6.860  12.872  0.00  0.00    +0.000 A 
ATOM      3  C   UNL     1      44.496   6.554  12.509  0.00  0.00    +0.000 A 
ATOM      4  C   UNL     1      44.117   5.229  12.281  0.00  0.00    +0.000 A 
ATOM      5  C   UNL     1      45.050   4.199  12.406  0.00  0.00    +0.000 A 
ATOM      6  C   UNL     1      46.344   4.491  12.833  0.00  0.00    +0.000 A 
ATOM      7  C   UNL     1      46.724   5.816  13.056  0.00  0.00    +0.000 A 
BRANCH   2   8
ATOM      8  C   UNL     1      46.256   8.289  13.055  0.00  0.00    +0.000 C 
BRANCH   8   9
ATOM      9  C   UNL     1      45.523   9.256  12.123  0.00  0.00    +0.000 C 
BRANCH   9  10
ATOM     10  N   UNL     1      44.496   9.997  12.855  0.00  0.00    +0.000 NA
ATOM     11  H   UNL     1      43.678   9.403  12.978  0.00  0.00    +0.000 HD
ATOM     12  H   UNL     1      44.189  10.794  12.299  0.00  0.00    +0.000 HD
ENDBRANCH   9  10
ENDBRANCH   8   9
ENDBRANCH   2   8
ENDBRANCH   1   5
BRANCH   1  13
ATOM     13  C   UNL     1      43.782   2.871  10.923  0.00  0.00    +0.000 C 
BRANCH  13  14
ATOM     14  C   UNL     1      44.668   3.094   9.725  0.00  0.00    +0.000 A 
ATOM     15  C   UNL     1      44.901   4.382   9.232  0.00  0.00    +0.000 A 
ATOM     16  C   UNL     1      45.748   4.576   8.141  0.00  0.00    +0.000 A 
ATOM     17  C   UNL     1      46.383   3.486   7.544  0.00  0.00    +0.000 A 
ATOM     18  C   UNL     1      46.178   2.189   8.032  0.00  0.00    +0.000 A 
ATOM     19  C   UNL     1      45.310   2.003   9.119  0.00  0.00    +0.000 A 
BRANCH  18  20
ATOM     20  C   UNL     1      46.880   0.999   7.428  0.00  0.00    +0.000 C 
ATOM     21  F   UNL     1      46.716   0.893   6.079  0.00  0.00    +0.000 F 
ATOM     22  F   UNL     1      48.226   1.027   7.637  0.00  0.00    +0.000 F 
ATOM     23  F   UNL     1      46.448  -0.183   7.948  0.00  0.00    +0.000 F 
ENDBRANCH  18  20
ENDBRANCH  13  14
ENDBRANCH   1  13
TORSDOF 7
ENDMDL
MODEL 5
REMARK VINA RESULT:    -6.465      3.897      6.573
REMARK INTER + INTRA:          -9.838
REMARK INTER:                  -8.894
REMARK INTRA:                  -0.944
REMARK UNBOUND:                -0.916
REMARK  Name = 
REMARK  7 active torsions:
REMARK  status: ('A' for Active; 'I' for Inactive)
REMARK    1  A    between atoms: N_1  and  C_2
REMARK    2  A    between atoms: C_2  and  C_3
REMARK    3  A    between atoms: C_3  and  C_4
REMARK    4  A    between atoms: C_7  and  O_8
REMARK    5  A    between atoms: O_8  and  C_9
REMARK    6  A    between atoms: C_9  and  C_10
REMARK    7  A    between atoms: C_14  and  C_15
REMARK                            x       y       z     vdW  Elec       q    Type
REMARK                         _______ _______ _______ _____ _____    ______ ____
ROOT
ATOM      1  O   UNL     1      43.818   5.444  12.118  0.00  0.00    +0.000 OA
ENDROOT
BRANCH   1   5
ATOM      2  C   UNL     1      47.609   6.686  13.338  0.00  0.00    +0.000 A 
ATOM      3  C   UNL     1      46.757   7.522  12.605  0.00  0.00    +0.000 A 
ATOM      4  C   UNL     1      45.484   7.082  12.236  0.00  0.00    +0.000 A 
ATOM      5  C   UNL     1      45.052   5.802  12.587  0.00  0.00    +0.000 A 
ATOM      6  C   UNL     1      45.870   4.992  13.373  0.00  0.00    +0.000 A 
ATOM      7  C   UNL     1      47.144   5.429  13.738  0.00  0.00    +0.000 A 
BRANCH   2   8
ATOM      8  C   UNL     1      49.011   7.118  13.685  0.00  0.00    +0.000 C 
BRANCH   8   9
ATOM      9  C   UNL     1      49.290   7.057  15.188  0.00  0.00    +0.000 C 
BRANCH   9  10
ATOM     10  N   UNL     1      50.685   6.695  15.439  0.00  0.00    +0.000 NA
ATOM     11  H   UNL     1      51.030   7.223  16.238  0.00  0.00    +0.000 HD
ATOM     12  H   UNL     1      51.257   6.974  14.643  0.00  0.00    +0.000 HD
ENDBRANCH   9  10
ENDBRANCH   8   9
ENDBRANCH   2   8
ENDBRANCH   1   5
BRANCH   1  13
ATOM     13  C   UNL     1      43.657   5.535  10.703  0.00  0.00    +0.000 C 
BRANCH  13  14
ATOM     14  C   UNL     1      44.223   4.281  10.088  0.00  0.00    +0.000 A 
ATOM     15  C   UNL     1      43.794   3.018  10.506  0.00  0.00    +0.000 A 
ATOM     16  C   UNL     1      44.304   1.867   9.906  0.00  0.00    +0.000 A 
ATOM     17  C   UNL     1      45.236   1.969   8.871  0.00  0.00    +0.000 A 
ATOM     18  C   UNL     1      45.667   3.225   8.424  0.00  0.00    +0.000 A 
ATOM     19  C   UNL     1      45.160   4.376   9.047  0.00  0.00    +0.000 A 
BRANCH  18  20
ATOM     20  C   UNL     1      46.643   3.364   7.284  0.00  0.00    +0.000 C 
ATOM     21  F   UNL     1      46.076   3.210   6.055  0.00  0.00    +0.000 F 
ATOM     22  F   UNL     1      47.250   4.584   7.263  0.00  0.00    +0.000 F 
ATOM     23  F   UNL     1      47.651   2.450   7.345  0.00  0.00    +0.000 F 
ENDBRANCH  18  20
ENDBRANCH  13  14
ENDBRANCH   1  13
TORSDOF 7
ENDMDL
MODEL 6
REMARK VINA RESULT:    -6.463      4.167      6.798
REMARK INTER + INTRA:          -9.834
REMARK INTER:                  -8.949
REMARK INTRA:                  -0.885
REMARK UNBOUND:                -0.916
REMARK  Name = 
REMARK  7 active torsions:
REMARK  status: ('A' for Active; 'I' for Inactive)
REMARK    1  A    between atoms: N_1  and  C_2
REMARK    2  A    between atoms: C_2  and  C_3
REMARK    3  A    between atoms: C_3  and  C_4
REMARK    4  A    between atoms: C_7  and  O_8
REMARK    5  A    between atoms: O_8  and  C_9
REMARK    6  A    between atoms: C_9  and  C_10
REMARK    7  A    between atoms: C_14  and  C_15
REMARK                            x       y       z     vdW  Elec       q    Type
REMARK                         _______ _______ _______ _____ _____    ______ ____
ROOT
ATOM      1  O   UNL     1      44.208   4.838  11.557  0.00  0.00    +0.000 OA
ENDROOT
BRANCH   1   5
ATOM      2  C   UNL     1      47.682   6.570  13.085  0.00  0.00    +0.000 A 
ATOM      3  C   UNL     1      47.093   5.446  13.678  0.00  0.00    +0.000 A 
ATOM      4  C   UNL     1      45.944   4.877  13.124  0.00  0.00    +0.000 A 
ATOM      5  C   UNL     1      45.368   5.427  11.978  0.00  0.00    +0.000 A 
ATOM      6  C   UNL     1      45.988   6.504  11.346  0.00  0.00    +0.000 A 
ATOM      7  C   UNL     1      47.134   7.076  11.903  0.00  0.00    +0.000 A 
BRANCH   2   8
ATOM      8  C   UNL     1      48.881   7.237  13.708  0.00  0.00    +0.000 C 
BRANCH   8   9
ATOM      9  C   UNL     1      48.587   7.793  15.103  0.00  0.00    +0.000 C 
BRANCH   9  10
ATOM     10  N   UNL     1      47.664   8.924  15.023  0.00  0.00    +0.000 NA
ATOM     11  H   UNL     1      48.187   9.769  14.800  0.00  0.00    +0.000 HD
ATOM     12  H   UNL     1      47.239   9.083  15.935  0.00  0.00    +0.000 HD
ENDBRANCH   9  10
ENDBRANCH   8   9
ENDBRANCH   2   8
ENDBRANCH   1   5
BRANCH   1  13
ATOM     13  C   UNL     1      43.948   4.941  10.157  0.00  0.00    +0.000 C 
BRANCH  13  14
ATOM     14  C   UNL     1      44.585   3.758   9.476  0.00  0.00    +0.000 A 
ATOM     15  C   UNL     1      44.291   2.451   9.879  0.00  0.00    +0.000 A 
ATOM     16  C   UNL     1      44.865   1.365   9.219  0.00  0.00    +0.000 A 
ATOM     17  C   UNL     1      45.726   1.575   8.139  0.00  0.00    +0.000 A 
ATOM     18  C   UNL     1      46.021   2.875   7.708  0.00  0.00    +0.000 A 
ATOM     19  C   UNL     1      45.451   3.961   8.390  0.00  0.00    +0.000 A 
BRANCH  18  20
ATOM     20  C   UNL     1      46.917   3.128   6.522  0.00  0.00    +0.000 C 
ATOM     21  F   UNL     1      48.226   2.827   6.751  0.00  0.00    +0.000 F 
ATOM     22  F   UNL     1      46.554   2.399   5.430  0.00  0.00    +0.000 F 
ATOM     23  F   UNL     1      46.900   4.430   6.122  0.00  0.00    +0.000 F 
ENDBRANCH  18  20
ENDBRANCH  13  14
ENDBRANCH   1  13
TORSDOF 7
ENDMDL
MODEL 7
REMARK VINA RESULT:    -6.357      3.647      6.301
REMARK INTER + INTRA:          -9.689
REMARK INTER:                  -8.705
REMARK INTRA:                  -0.983
REMARK UNBOUND:                -0.916
REMARK  Name = 
REMARK  7 active torsions:
REMARK  status: ('A' for Active; 'I' for Inactive)
REMARK    1  A    between atoms: N_1  and  C_2
REMARK    2  A    between atoms: C_2  and  C_3
REMARK    3  A    between atoms: C_3  and  C_4
REMARK    4  A    between atoms: C_7  and  O_8
REMARK    5  A    between atoms: O_8  and  C_9
REMARK    6  A    between atoms: C_9  and  C_10
REMARK    7  A    between atoms: C_14  and  C_15
REMARK                            x       y       z     vdW  Elec       q    Type
REMARK                         _______ _______ _______ _____ _____    ______ ____
ROOT
ATOM      1  O   UNL     1      43.647   5.350  12.200  0.00  0.00    +0.000 OA
ENDROOT
BRANCH   1   5
ATOM      2  C   UNL     1      47.432   6.578  13.456  0.00  0.00    +0.000 A 
ATOM      3  C   UNL     1      46.547   7.451  12.812  0.00  0.00    +0.000 A 
ATOM      4  C   UNL     1      45.277   7.012  12.429  0.00  0.00    +0.000 A 
ATOM      5  C   UNL     1      44.881   5.697  12.677  0.00  0.00    +0.000 A 
ATOM      6  C   UNL     1      45.733   4.844  13.377  0.00  0.00    +0.000 A 
ATOM      7  C   UNL     1      47.004   5.281  13.756  0.00  0.00    +0.000 A 
BRANCH   2   8
ATOM      8  C   UNL     1      48.829   7.014  13.815  0.00  0.00    +0.000 C 
BRANCH   8   9
ATOM      9  C   UNL     1      49.730   7.169  12.588  0.00  0.00    +0.000 C 
BRANCH   9  10
ATOM     10  N   UNL     1      50.897   7.991  12.908  0.00  0.00    +0.000 NA
ATOM     11  H   UNL     1      50.825   8.881  12.416  0.00  0.00    +0.000 HD
ATOM     12  H   UNL     1      51.740   7.539  12.556  0.00  0.00    +0.000 HD
ENDBRANCH   9  10
ENDBRANCH   8   9
ENDBRANCH   2   8
ENDBRANCH   1   5
BRANCH   1  13
ATOM     13  C   UNL     1      43.489   5.462  10.786  0.00  0.00    +0.000 C 
BRANCH  13  14
ATOM     14  C   UNL     1      44.131   4.257  10.148  0.00  0.00    +0.000 A 
ATOM     15  C   UNL     1      43.765   2.962  10.528  0.00  0.00    +0.000 A 
ATOM     16  C   UNL     1      44.345   1.856   9.907  0.00  0.00    +0.000 A 
ATOM     17  C   UNL     1      45.285   2.035   8.890  0.00  0.00    +0.000 A 
ATOM     18  C   UNL     1      45.654   3.324   8.482  0.00  0.00    +0.000 A 
ATOM     19  C   UNL     1      45.076   4.429   9.125  0.00  0.00    +0.000 A 
BRANCH  18  20
ATOM     20  C   UNL     1      46.638   3.545   7.361  0.00  0.00    +0.000 C 
ATOM     21  F   UNL     1      47.666   2.651   7.352  0.00  0.00    +0.000 F 
ATOM     22  F   UNL     1      46.057   3.455   6.132  0.00  0.00    +0.000 F 
ATOM     23  F   UNL     1      47.217   4.776   7.409  0.00  0.00    +0.000 F 
ENDBRANCH  18  20
ENDBRANCH  13  14
ENDBRANCH   1  13
TORSDOF 7
ENDMDL
MODEL 8
REMARK VINA RESULT:    -5.857      3.881      6.246
REMARK INTER + INTRA:          -8.999
REMARK INTER:                  -8.176
REMARK INTRA:                  -0.822
REMARK UNBOUND:                -0.916
REMARK  Name = 
REMARK  7 active torsions:
REMARK  status: ('A' for Active; 'I' for Inactive)
REMARK    1  A    between atoms: N_1  and  C_2
REMARK    2  A    between atoms: C_2  and  C_3
REMARK    3  A    between atoms: C_3  and  C_4
REMARK    4  A    between atoms: C_7  and  O_8
REMARK    5  A    between atoms: O_8  and  C_9
REMARK    6  A    between atoms: C_9  and  C_10
REMARK    7  A    between atoms: C_14  and  C_15
REMARK                            x       y       z     vdW  Elec       q    Type
REMARK                         _______ _______ _______ _____ _____    ______ ____
ROOT
ATOM      1  O   UNL     1      45.063   6.858  12.861  0.00  0.00    +0.000 OA
ENDROOT
BRANCH   1   5
ATOM      2  C   UNL     1      48.890   8.313  12.062  0.00  0.00    +0.000 A 
ATOM      3  C   UNL     1      48.648   6.952  12.286  0.00  0.00    +0.000 A 
ATOM      4  C   UNL     1      47.350   6.497  12.525  0.00  0.00    +0.000 A 
ATOM      5  C   UNL     1      46.282   7.395  12.550  0.00  0.00    +0.000 A 
ATOM      6  C   UNL     1      46.508   8.740  12.261  0.00  0.00    +0.000 A 
ATOM      7  C   UNL     1      47.806   9.196  12.027  0.00  0.00    +0.000 A 
BRANCH   2   8
ATOM      8  C   UNL     1      50.293   8.831  11.870  0.00  0.00    +0.000 C 
BRANCH   8   9
ATOM      9  C   UNL     1      51.184   7.848  11.109  0.00  0.00    +0.000 C 
BRANCH   9  10
ATOM     10  N   UNL     1      52.542   7.858  11.652  0.00  0.00    +0.000 NA
ATOM     11  H   UNL     1      53.164   8.319  10.991  0.00  0.00    +0.000 HD
ATOM     12  H   UNL     1      52.880   6.900  11.742  0.00  0.00    +0.000 HD
ENDBRANCH   9  10
ENDBRANCH   8   9
ENDBRANCH   2   8
ENDBRANCH   1   5
BRANCH   1  13
ATOM     13  C   UNL     1      44.147   6.758  11.770  0.00  0.00    +0.000 C 
BRANCH  13  14
ATOM     14  C   UNL     1      44.176   5.339  11.265  0.00  0.00    +0.000 A 
ATOM     15  C   UNL     1      43.483   4.324  11.933  0.00  0.00    +0.000 A 
ATOM     16  C   UNL     1      43.493   3.021  11.437  0.00  0.00    +0.000 A 
ATOM     17  C   UNL     1      44.181   2.724  10.260  0.00  0.00    +0.000 A 
ATOM     18  C   UNL     1      44.867   3.728   9.564  0.00  0.00    +0.000 A 
ATOM     19  C   UNL     1      44.865   5.033  10.082  0.00  0.00    +0.000 A 
BRANCH  18  20
ATOM     20  C   UNL     1      45.588   3.441   8.271  0.00  0.00    +0.000 C 
ATOM     21  F   UNL     1      44.761   3.357   7.192  0.00  0.00    +0.000 F 
ATOM     22  F   UNL     1      46.506   4.399   7.962  0.00  0.00    +0.000 F 
ATOM     23  F   UNL     1      46.275   2.266   8.305  0.00  0.00    +0.000 F 
ENDBRANCH  18  20
ENDBRANCH  13  14
ENDBRANCH   1  13
TORSDOF 7
ENDMDL
MODEL 9
REMARK VINA RESULT:    -5.724      5.320      8.137
REMARK INTER + INTRA:          -8.816
REMARK INTER:                  -8.355
REMARK INTRA:                  -0.460
REMARK UNBOUND:                -0.916
REMARK  Name = 
REMARK  7 active torsions:
REMARK  status: ('A' for Active; 'I' for Inactive)
REMARK    1  A    between atoms: N_1  and  C_2
REMARK    2  A    between atoms: C_2  and  C_3
REMARK    3  A    between atoms: C_3  and  C_4
REMARK    4  A    between atoms: C_7  and  O_8
REMARK    5  A    between atoms: O_8  and  C_9
REMARK    6  A    between atoms: C_9  and  C_10
REMARK    7  A    between atoms: C_14  and  C_15
REMARK                            x       y       z     vdW  Elec       q    Type
REMARK                         _______ _______ _______ _____ _____    ______ ____
ROOT
ATOM      1  O   UNL     1      46.552   4.027  14.744  0.00  0.00    +0.000 OA
ENDROOT
BRANCH   1   5
ATOM      2  C   UNL     1      49.164   4.436  17.971  0.00  0.00    +0.000 A 
ATOM      3  C   UNL     1      48.570   3.209  17.652  0.00  0.00    +0.000 A 
ATOM      4  C   UNL     1      47.720   3.104  16.548  0.00  0.00    +0.000 A 
ATOM      5  C   UNL     1      47.450   4.222  15.758  0.00  0.00    +0.000 A 
ATOM      6  C   UNL     1      48.091   5.429  16.032  0.00  0.00    +0.000 A 
ATOM      7  C   UNL     1      48.936   5.536  17.138  0.00  0.00    +0.000 A 
BRANCH   2   8
ATOM      8  C   UNL     1      50.029   4.584  19.197  0.00  0.00    +0.000 C 
BRANCH   8   9
ATOM      9  C   UNL     1      49.250   5.105  20.407  0.00  0.00    +0.000 C 
BRANCH   9  10
ATOM     10  N   UNL     1      48.412   4.048  20.974  0.00  0.00    +0.000 NA
ATOM     11  H   UNL     1      48.702   3.150  20.591  0.00  0.00    +0.000 HD
ATOM     12  H   UNL     1      47.446   4.186  20.681  0.00  0.00    +0.000 HD
ENDBRANCH   9  10
ENDBRANCH   8   9
ENDBRANCH   2   8
ENDBRANCH   1   5
BRANCH   1  13
ATOM     13  C   UNL     1      46.613   4.984  13.687  0.00  0.00    +0.000 C 
BRANCH  13  14
ATOM     14  C   UNL     1      45.384   4.815  12.832  0.00  0.00    +0.000 A 
ATOM     15  C   UNL     1      44.128   5.227  13.289  0.00  0.00    +0.000 A 
ATOM     16  C   UNL     1      43.004   5.093  12.475  0.00  0.00    +0.000 A 
ATOM     17  C   UNL     1      43.128   4.561  11.190  0.00  0.00    +0.000 A 
ATOM     18  C   UNL     1      44.379   4.157  10.705  0.00  0.00    +0.000 A 
ATOM     19  C   UNL     1      45.501   4.281  11.540  0.00  0.00    +0.000 A 
BRANCH  18  20
ATOM     20  C   UNL     1      44.546   3.614   9.309  0.00  0.00    +0.000 C 
ATOM     21  F   UNL     1      44.079   2.344   9.157  0.00  0.00    +0.000 F 
ATOM     22  F   UNL     1      43.894   4.364   8.377  0.00  0.00    +0.000 F 
ATOM     23  F   UNL     1      45.849   3.580   8.913  0.00  0.00    +0.000 F 
ENDBRANCH  18  20
ENDBRANCH  13  14
ENDBRANCH   1  13
TORSDOF 7
ENDMDL
