MODEL 1
REMARK VINA RESULT:    -8.910      0.000      0.000
REMARK INTER + INTRA:         -11.583
REMARK INTER:                 -10.994
REMARK INTRA:                  -0.589
REMARK UNBOUND:                -0.589
REMARK  Name = 
REMARK  4 active torsions:
REMARK  status: ('A' for Active; 'I' for Inactive)
REMARK    1  A    between atoms: C_2  and  C_4
REMARK    2  A    between atoms: N_8  and  C_9
REMARK    3  A    between atoms: C_9  and  C_10
REMARK    4  A    between atoms: C_14  and  N_15
REMARK                            x       y       z     vdW  Elec       q    Type
REMARK                         _______ _______ _______ _____ _____    ______ ____
ROOT
ATOM      1  C   UNL     1      46.433   2.286   7.728  0.00  0.00    +0.000 A 
ATOM      2  C   UNL     1      45.583   1.792   8.712  0.00  0.00    +0.000 A 
ATOM      3  C   UNL     1      44.708   2.668   9.357  0.00  0.00    +0.000 A 
ATOM      4  C   UNL     1      44.706   4.018   9.019  0.00  0.00    +0.000 A 
ATOM      5  N   UNL     1      43.798   4.922   9.521  0.00  0.00    +0.000 N 
ATOM      6  N   UNL     1      45.548   4.509   8.087  0.00  0.00    +0.000 NA
ATOM      7  C   UNL     1      46.399   3.646   7.471  0.00  0.00    +0.000 A 
ATOM      8  H   UNL     1      44.072   5.840   9.179  0.00  0.00    +0.000 HD
ENDROOT
BRANCH   1  10
ATOM      9  N   UNL     1      48.430   2.025   6.375  0.00  0.00    +0.000 N 
ATOM     10  C   UNL     1      47.347   1.421   6.954  0.00  0.00    +0.000 C 
ATOM     11  O   UNL     1      47.172   0.213   6.871  0.00  0.00    +0.000 OA
ATOM     12  H   UNL     1      49.109   1.411   5.945  0.00  0.00    +0.000 HD
ATOM     13  H   UNL     1      48.742   2.950   6.637  0.00  0.00    +0.000 HD
ENDBRANCH   1  10
BRANCH   5  14
ATOM     14  C   UNL     1      43.349   4.879  10.902  0.00  0.00    +0.000 C 
BRANCH  14  15
ATOM     15  C   UNL     1      44.486   4.939  11.880  0.00  0.00    +0.000 A 
ATOM     16  C   UNL     1      44.668   3.970  12.854  0.00  0.00    +0.000 A 
ATOM     17  N   UNL     1      45.637   4.020  13.791  0.00  0.00    +0.000 NA
ATOM     18  C   UNL     1      46.477   5.089  13.743  0.00  0.00    +0.000 A 
ATOM     19  C   UNL     1      46.415   6.128  12.814  0.00  0.00    +0.000 A 
ATOM     20  C   UNL     1      45.369   6.025  11.891  0.00  0.00    +0.000 A 
BRANCH  19  21
ATOM     21  N   UNL     1      47.244   7.228  12.802  0.00  0.00    +0.000 N 
ATOM     22  C   UNL     1      46.806   8.572  13.199  0.00  0.00    +0.000 C 
ATOM     23  C   UNL     1      47.534   9.596  12.305  0.00  0.00    +0.000 C 
ATOM     24  O   UNL     1      48.964   9.451  12.371  0.00  0.00    +0.000 OA
ATOM     25  C   UNL     1      49.358   8.125  11.973  0.00  0.00    +0.000 C 
ATOM     26  C   UNL     1      48.708   7.060  12.868  0.00  0.00    +0.000 C 
ENDBRANCH  19  21
ENDBRANCH  14  15
ENDBRANCH   5  14
TORSDOF 4
ENDMDL
MODEL 2
REMARK VINA RESULT:    -8.861      1.833      2.740
REMARK INTER + INTRA:         -11.522
REMARK INTER:                 -10.847
REMARK INTRA:                  -0.675
REMARK UNBOUND:                -0.589
REMARK  Name = 
REMARK  4 active torsions:
REMARK  status: ('A' for Active; 'I' for Inactive)
REMARK    1  A    between atoms: C_2  and  C_4
REMARK    2  A    between atoms: N_8  and  C_9
REMARK    3  A    between atoms: C_9  and  C_10
REMARK    4  A    between atoms: C_14  and  N_15
REMARK                            x       y       z     vdW  Elec       q    Type
REMARK                         _______ _______ _______ _____ _____    ______ ____
ROOT
ATOM      1  C   UNL     1      46.372   2.220   7.675  0.00  0.00    +0.000 A 
ATOM      2  C   UNL     1      45.645   1.771   8.772  0.00  0.00    +0.000 A 
ATOM      3  C   UNL     1      44.771   2.649   9.415  0.00  0.00    +0.000 A 
ATOM      4  C   UNL     1      44.648   3.959   8.961  0.00  0.00    +0.000 A 
ATOM      5  N   UNL     1      43.727   4.850   9.463  0.00  0.00    +0.000 N 
ATOM      6  N   UNL     1      45.372   4.410   7.917  0.00  0.00    +0.000 NA
ATOM      7  C   UNL     1      46.223   3.546   7.304  0.00  0.00    +0.000 A 
ATOM      8  H   UNL     1      43.908   5.746   9.018  0.00  0.00    +0.000 HD
ENDROOT
BRANCH   1  10
ATOM      9  N   UNL     1      48.310   1.946   6.241  0.00  0.00    +0.000 N 
ATOM     10  C   UNL     1      47.273   1.343   6.899  0.00  0.00    +0.000 C 
ATOM     11  O   UNL     1      47.128   0.129   6.881  0.00  0.00    +0.000 OA
ATOM     12  H   UNL     1      48.985   1.330   5.808  0.00  0.00    +0.000 HD
ATOM     13  H   UNL     1      48.608   2.890   6.444  0.00  0.00    +0.000 HD
ENDBRANCH   1  10
BRANCH   5  14
ATOM     14  C   UNL     1      43.403   4.909  10.878  0.00  0.00    +0.000 C 
BRANCH  14  15
ATOM     15  C   UNL     1      44.311   5.830  11.640  0.00  0.00    +0.000 A 
ATOM     16  C   UNL     1      44.339   7.195  11.404  0.00  0.00    +0.000 A 
ATOM     17  N   UNL     1      45.184   8.047  12.021  0.00  0.00    +0.000 NA
ATOM     18  C   UNL     1      46.037   7.506  12.932  0.00  0.00    +0.000 A 
ATOM     19  C   UNL     1      46.109   6.156  13.274  0.00  0.00    +0.000 A 
ATOM     20  C   UNL     1      45.224   5.328  12.576  0.00  0.00    +0.000 A 
BRANCH  19  21
ATOM     21  N   UNL     1      47.008   5.613  14.166  0.00  0.00    +0.000 N 
ATOM     22  C   UNL     1      47.044   4.184  14.506  0.00  0.00    +0.000 C 
ATOM     23  C   UNL     1      47.426   4.057  15.994  0.00  0.00    +0.000 C 
ATOM     24  O   UNL     1      48.671   4.716  16.291  0.00  0.00    +0.000 OA
ATOM     25  C   UNL     1      48.599   6.112  15.949  0.00  0.00    +0.000 C 
ATOM     26  C   UNL     1      48.278   6.303  14.460  0.00  0.00    +0.000 C 
ENDBRANCH  19  21
ENDBRANCH  14  15
ENDBRANCH   5  14
TORSDOF 4
ENDMDL
MODEL 3
REMARK VINA RESULT:    -7.154      1.771      2.524
REMARK INTER + INTRA:          -9.416
REMARK INTER:                  -9.032
REMARK INTRA:                  -0.384
REMARK UNBOUND:                -0.589
REMARK  Name = 
REMARK  4 active torsions:
REMARK  status: ('A' for Active; 'I' for Inactive)
REMARK    1  A    between atoms: C_2  and  C_4
REMARK    2  A    between atoms: N_8  and  C_9
REMARK    3  A    between atoms: C_9  and  C_10
REMARK    4  A    between atoms: C_14  and  N_15
REMARK                            x       y       z     vdW  Elec       q    Type
REMARK                         _______ _______ _______ _____ _____    ______ ____
ROOT
ATOM      1  C   UNL     1      46.516   2.736   7.207  0.00  0.00    +0.000 A 
ATOM      2  C   UNL     1      46.019   3.961   7.637  0.00  0.00    +0.000 A 
ATOM      3  C   UNL     1      45.332   4.029   8.850  0.00  0.00    +0.000 A 
ATOM      4  C   UNL     1      45.142   2.873   9.603  0.00  0.00    +0.000 A 
ATOM      5  N   UNL     1      44.580   2.873  10.859  0.00  0.00    +0.000 N 
ATOM      6  N   UNL     1      45.595   1.676   9.178  0.00  0.00    +0.000 NA
ATOM      7  C   UNL     1      46.258   1.625   7.992  0.00  0.00    +0.000 A 
ATOM      8  H   UNL     1      44.485   1.901  11.142  0.00  0.00    +0.000 HD
ENDROOT
BRANCH   1  10
ATOM      9  N   UNL     1      48.538   1.999   6.085  0.00  0.00    +0.000 N 
ATOM     10  C   UNL     1      47.306   2.584   5.968  0.00  0.00    +0.000 C 
ATOM     11  O   UNL     1      46.864   2.924   4.879  0.00  0.00    +0.000 OA
ATOM     12  H   UNL     1      49.022   1.796   5.220  0.00  0.00    +0.000 HD
ATOM     13  H   UNL     1      48.817   1.479   6.905  0.00  0.00    +0.000 HD
ENDBRANCH   1  10
BRANCH   5  14
ATOM     14  C   UNL     1      43.464   3.736  11.206  0.00  0.00    +0.000 C 
BRANCH  14  15
ATOM     15  C   UNL     1      43.890   5.150  11.475  0.00  0.00    +0.000 A 
ATOM     16  C   UNL     1      43.194   6.236  10.968  0.00  0.00    +0.000 A 
ATOM     17  N   UNL     1      43.579   7.519  11.133  0.00  0.00    +0.000 NA
ATOM     18  C   UNL     1      44.712   7.727  11.856  0.00  0.00    +0.000 A 
ATOM     19  C   UNL     1      45.501   6.730  12.431  0.00  0.00    +0.000 A 
ATOM     20  C   UNL     1      45.058   5.425  12.196  0.00  0.00    +0.000 A 
BRANCH  19  21
ATOM     21  N   UNL     1      46.671   6.951  13.124  0.00  0.00    +0.000 N 
ATOM     22  C   UNL     1      47.631   5.887  13.445  0.00  0.00    +0.000 C 
ATOM     23  C   UNL     1      48.242   6.194  14.827  0.00  0.00    +0.000 C 
ATOM     24  O   UNL     1      48.847   7.500  14.872  0.00  0.00    +0.000 OA
ATOM     25  C   UNL     1      47.878   8.517  14.556  0.00  0.00    +0.000 C 
ATOM     26  C   UNL     1      47.274   8.296  13.161  0.00  0.00    +0.000 C 
ENDBRANCH  19  21
ENDBRANCH  14  15
ENDBRANCH   5  14
TORSDOF 4
ENDMDL
MODEL 4
REMARK VINA RESULT:    -7.132      1.806      6.696
REMARK INTER + INTRA:          -9.388
REMARK INTER:                  -8.744
REMARK INTRA:                  -0.644
REMARK UNBOUND:                -0.589
REMARK  Name = 
REMARK  4 active torsions:
REMARK  status: ('A' for Active; 'I' for Inactive)
REMARK    1  A    between atoms: C_2  and  C_4
REMARK    2  A    between atoms: N_8  and  C_9
REMARK    3  A    between atoms: C_9  and  C_10
REMARK    4  A    between atoms: C_14  and  N_15
REMARK                            x       y       z     vdW  Elec       q    Type
REMARK                         _______ _______ _______ _____ _____    ______ ____
ROOT
ATOM      1  C   UNL     1      49.803   8.210  11.865  0.00  0.00    +0.000 A 
ATOM      2  C   UNL     1      48.594   8.853  11.617  0.00  0.00    +0.000 A 
ATOM      3  C   UNL     1      47.412   8.288  12.099  0.00  0.00    +0.000 A 
ATOM      4  C   UNL     1      47.456   7.089  12.806  0.00  0.00    +0.000 A 
ATOM      5  N   UNL     1      46.356   6.529  13.413  0.00  0.00    +0.000 N 
ATOM      6  N   UNL     1      48.621   6.445  13.024  0.00  0.00    +0.000 NA
ATOM      7  C   UNL     1      49.763   7.004  12.544  0.00  0.00    +0.000 A 
ATOM      8  H   UNL     1      46.647   5.627  13.782  0.00  0.00    +0.000 HD
ENDROOT
BRANCH   1  10
ATOM      9  N   UNL     1      52.221   8.048  11.771  0.00  0.00    +0.000 N 
ATOM     10  C   UNL     1      51.105   8.767  11.444  0.00  0.00    +0.000 C 
ATOM     11  O   UNL     1      51.181   9.800  10.794  0.00  0.00    +0.000 OA
ATOM     12  H   UNL     1      53.096   8.376  11.382  0.00  0.00    +0.000 HD
ATOM     13  H   UNL     1      52.180   7.083  12.067  0.00  0.00    +0.000 HD
ENDBRANCH   1  10
BRANCH   5  14
ATOM     14  C   UNL     1      45.038   6.557  12.801  0.00  0.00    +0.000 C 
BRANCH  14  15
ATOM     15  C   UNL     1      44.611   5.213  12.289  0.00  0.00    +0.000 A 
ATOM     16  C   UNL     1      43.849   4.344  13.053  0.00  0.00    +0.000 A 
ATOM     17  N   UNL     1      43.498   3.103  12.655  0.00  0.00    +0.000 NA
ATOM     18  C   UNL     1      43.921   2.716  11.422  0.00  0.00    +0.000 A 
ATOM     19  C   UNL     1      44.682   3.491  10.546  0.00  0.00    +0.000 A 
ATOM     20  C   UNL     1      45.032   4.753  11.035  0.00  0.00    +0.000 A 
BRANCH  19  21
ATOM     21  N   UNL     1      45.142   3.072   9.317  0.00  0.00    +0.000 N 
ATOM     22  C   UNL     1      45.161   1.664   8.900  0.00  0.00    +0.000 C 
ATOM     23  C   UNL     1      46.414   1.441   8.028  0.00  0.00    +0.000 C 
ATOM     24  O   UNL     1      46.456   2.339   6.904  0.00  0.00    +0.000 OA
ATOM     25  C   UNL     1      46.438   3.708   7.348  0.00  0.00    +0.000 C 
ATOM     26  C   UNL     1      45.180   4.007   8.176  0.00  0.00    +0.000 C 
ENDBRANCH  19  21
ENDBRANCH  14  15
ENDBRANCH   5  14
TORSDOF 4
ENDMDL
MODEL 5
REMARK VINA RESULT:    -7.120      2.260      7.156
REMARK INTER + INTRA:          -9.374
REMARK INTER:                  -9.029
REMARK INTRA:                  -0.345
REMARK UNBOUND:                -0.589
REMARK  Name = 
REMARK  4 active torsions:
REMARK  status: ('A' for Active; 'I' for Inactive)
REMARK    1  A    between atoms: C_2  and  C_4
REMARK    2  A    between atoms: N_8  and  C_9
REMARK    3  A    between atoms: C_9  and  C_10
REMARK    4  A    between atoms: C_14  and  N_15
REMARK                            x       y       z     vdW  Elec       q    Type
REMARK                         _______ _______ _______ _____ _____    ______ ____
ROOT
ATOM      1  C   UNL     1      47.822   5.505  15.285  0.00  0.00    +0.000 A 
ATOM      2  C   UNL     1      46.782   4.760  14.743  0.00  0.00    +0.000 A 
ATOM      3  C   UNL     1      46.267   5.117  13.495  0.00  0.00    +0.000 A 
ATOM      4  C   UNL     1      46.790   6.216  12.820  0.00  0.00    +0.000 A 
ATOM      5  N   UNL     1      46.421   6.563  11.541  0.00  0.00    +0.000 N 
ATOM      6  N   UNL     1      47.779   6.962  13.354  0.00  0.00    +0.000 NA
ATOM      7  C   UNL     1      48.266   6.606  14.571  0.00  0.00    +0.000 A 
ATOM      8  H   UNL     1      46.887   7.441  11.325  0.00  0.00    +0.000 HD
ENDROOT
BRANCH   1  10
ATOM      9  N   UNL     1      47.650   5.058  17.664  0.00  0.00    +0.000 N 
ATOM     10  C   UNL     1      48.466   5.163  16.571  0.00  0.00    +0.000 C 
ATOM     11  O   UNL     1      49.666   4.939  16.648  0.00  0.00    +0.000 OA
ATOM     12  H   UNL     1      48.079   4.712  18.513  0.00  0.00    +0.000 HD
ATOM     13  H   UNL     1      46.645   4.977  17.587  0.00  0.00    +0.000 HD
ENDBRANCH   1  10
BRANCH   5  14
ATOM     14  C   UNL     1      45.049   6.454  11.077  0.00  0.00    +0.000 C 
BRANCH  14  15
ATOM     15  C   UNL     1      44.690   5.058  10.658  0.00  0.00    +0.000 A 
ATOM     16  C   UNL     1      43.691   4.335  11.290  0.00  0.00    +0.000 A 
ATOM     17  N   UNL     1      43.382   3.057  10.986  0.00  0.00    +0.000 NA
ATOM     18  C   UNL     1      44.101   2.476   9.989  0.00  0.00    +0.000 A 
ATOM     19  C   UNL     1      45.123   3.089   9.264  0.00  0.00    +0.000 A 
ATOM     20  C   UNL     1      45.409   4.402   9.650  0.00  0.00    +0.000 A 
BRANCH  19  21
ATOM     21  N   UNL     1      45.874   2.476   8.284  0.00  0.00    +0.000 N 
ATOM     22  C   UNL     1      45.841   1.030   8.029  0.00  0.00    +0.000 C 
ATOM     23  C   UNL     1      47.258   0.585   7.617  0.00  0.00    +0.000 C 
ATOM     24  O   UNL     1      47.749   1.324   6.483  0.00  0.00    +0.000 OA
ATOM     25  C   UNL     1      47.771   2.734   6.769  0.00  0.00    +0.000 C 
ATOM     26  C   UNL     1      46.370   3.250   7.130  0.00  0.00    +0.000 C 
ENDBRANCH  19  21
ENDBRANCH  14  15
ENDBRANCH   5  14
TORSDOF 4
ENDMDL
MODEL 6
REMARK VINA RESULT:    -6.946      3.532      8.006
REMARK INTER + INTRA:          -9.159
REMARK INTER:                  -8.770
REMARK INTRA:                  -0.390
REMARK UNBOUND:                -0.589
REMARK  Name = 
REMARK  4 active torsions:
REMARK  status: ('A' for Active; 'I' for Inactive)
REMARK    1  A    between atoms: C_2  and  C_4
REMARK    2  A    between atoms: N_8  and  C_9
REMARK    3  A    between atoms: C_9  and  C_10
REMARK    4  A    between atoms: C_14  and  N_15
REMARK                            x       y       z     vdW  Elec       q    Type
REMARK                         _______ _______ _______ _____ _____    ______ ____
ROOT
ATOM      1  C   UNL     1      49.318   4.297  17.618  0.00  0.00    +0.000 A 
ATOM      2  C   UNL     1      49.191   5.442  16.839  0.00  0.00    +0.000 A 
ATOM      3  C   UNL     1      48.171   5.509  15.889  0.00  0.00    +0.000 A 
ATOM      4  C   UNL     1      47.307   4.430  15.723  0.00  0.00    +0.000 A 
ATOM      5  N   UNL     1      46.209   4.461  14.895  0.00  0.00    +0.000 N 
ATOM      6  N   UNL     1      47.443   3.304  16.453  0.00  0.00    +0.000 NA
ATOM      7  C   UNL     1      48.444   3.251  17.371  0.00  0.00    +0.000 A 
ATOM      8  H   UNL     1      45.808   3.526  14.898  0.00  0.00    +0.000 HD
ENDROOT
BRANCH   1  10
ATOM      9  N   UNL     1      51.404   3.359  18.427  0.00  0.00    +0.000 N 
ATOM     10  C   UNL     1      50.329   4.165  18.686  0.00  0.00    +0.000 C 
ATOM     11  O   UNL     1      50.236   4.781  19.739  0.00  0.00    +0.000 OA
ATOM     12  H   UNL     1      52.145   3.364  19.115  0.00  0.00    +0.000 HD
ATOM     13  H   UNL     1      51.641   3.053  17.493  0.00  0.00    +0.000 HD
ENDBRANCH   1  10
BRANCH   5  14
ATOM     14  C   UNL     1      46.236   5.123  13.602  0.00  0.00    +0.000 C 
BRANCH  14  15
ATOM     15  C   UNL     1      45.259   4.530  12.629  0.00  0.00    +0.000 A 
ATOM     16  C   UNL     1      43.927   4.329  12.956  0.00  0.00    +0.000 A 
ATOM     17  N   UNL     1      43.033   3.741  12.135  0.00  0.00    +0.000 NA
ATOM     18  C   UNL     1      43.491   3.346  10.917  0.00  0.00    +0.000 A 
ATOM     19  C   UNL     1      44.799   3.496  10.455  0.00  0.00    +0.000 A 
ATOM     20  C   UNL     1      45.677   4.087  11.368  0.00  0.00    +0.000 A 
BRANCH  19  21
ATOM     21  N   UNL     1      45.262   3.052   9.236  0.00  0.00    +0.000 N 
ATOM     22  C   UNL     1      45.207   1.646   8.815  0.00  0.00    +0.000 C 
ATOM     23  C   UNL     1      46.464   1.349   7.973  0.00  0.00    +0.000 C 
ATOM     24  O   UNL     1      46.588   2.245   6.853  0.00  0.00    +0.000 OA
ATOM     25  C   UNL     1      46.643   3.612   7.301  0.00  0.00    +0.000 C 
ATOM     26  C   UNL     1      45.385   3.985   8.100  0.00  0.00    +0.000 C 
ENDBRANCH  19  21
ENDBRANCH  14  15
ENDBRANCH   5  14
TORSDOF 4
ENDMDL
MODEL 7
REMARK VINA RESULT:    -6.618      1.681      6.666
REMARK INTER + INTRA:          -8.754
REMARK INTER:                  -8.027
REMARK INTRA:                  -0.727
REMARK UNBOUND:                -0.589
REMARK  Name = 
REMARK  4 active torsions:
REMARK  status: ('A' for Active; 'I' for Inactive)
REMARK    1  A    between atoms: C_2  and  C_4
REMARK    2  A    between atoms: N_8  and  C_9
REMARK    3  A    between atoms: C_9  and  C_10
REMARK    4  A    between atoms: C_14  and  N_15
REMARK                            x       y       z     vdW  Elec       q    Type
REMARK                         _______ _______ _______ _____ _____    ______ ____
ROOT
ATOM      1  C   UNL     1      48.404   7.158  12.967  0.00  0.00    +0.000 A 
ATOM      2  C   UNL     1      47.719   7.653  11.863  0.00  0.00    +0.000 A 
ATOM      3  C   UNL     1      46.371   7.330  11.697  0.00  0.00    +0.000 A 
ATOM      4  C   UNL     1      45.737   6.510  12.626  0.00  0.00    +0.000 A 
ATOM      5  N   UNL     1      44.388   6.241  12.600  0.00  0.00    +0.000 N 
ATOM      6  N   UNL     1      46.403   6.002  13.683  0.00  0.00    +0.000 NA
ATOM      7  C   UNL     1      47.716   6.320  13.829  0.00  0.00    +0.000 A 
ATOM      8  H   UNL     1      44.207   5.558  13.332  0.00  0.00    +0.000 HD
ENDROOT
BRANCH   1  10
ATOM      9  N   UNL     1      50.266   7.254  14.519  0.00  0.00    +0.000 N 
ATOM     10  C   UNL     1      49.813   7.498  13.251  0.00  0.00    +0.000 C 
ATOM     11  O   UNL     1      50.556   7.935  12.384  0.00  0.00    +0.000 OA
ATOM     12  H   UNL     1      51.258   7.382  14.674  0.00  0.00    +0.000 HD
ATOM     13  H   UNL     1      49.768   6.662  15.170  0.00  0.00    +0.000 HD
ENDBRANCH   1  10
BRANCH   5  14
ATOM     14  C   UNL     1      43.667   6.028  11.357  0.00  0.00    +0.000 C 
BRANCH  14  15
ATOM     15  C   UNL     1      43.838   4.636  10.821  0.00  0.00    +0.000 A 
ATOM     16  C   UNL     1      43.193   3.548  11.385  0.00  0.00    +0.000 A 
ATOM     17  N   UNL     1      43.369   2.275  10.975  0.00  0.00    +0.000 NA
ATOM     18  C   UNL     1      44.226   2.082   9.936  0.00  0.00    +0.000 A 
ATOM     19  C   UNL     1      44.931   3.085   9.270  0.00  0.00    +0.000 A 
ATOM     20  C   UNL     1      44.721   4.375   9.766  0.00  0.00    +0.000 A 
BRANCH  19  21
ATOM     21  N   UNL     1      45.829   2.873   8.248  0.00  0.00    +0.000 N 
ATOM     22  C   UNL     1      46.481   3.962   7.508  0.00  0.00    +0.000 C 
ATOM     23  C   UNL     1      46.644   3.513   6.042  0.00  0.00    +0.000 C 
ATOM     24  O   UNL     1      47.370   2.275   5.933  0.00  0.00    +0.000 OA
ATOM     25  C   UNL     1      46.702   1.231   6.666  0.00  0.00    +0.000 C 
ATOM     26  C   UNL     1      46.563   1.596   8.151  0.00  0.00    +0.000 C 
ENDBRANCH  19  21
ENDBRANCH  14  15
ENDBRANCH   5  14
TORSDOF 4
ENDMDL
MODEL 8
REMARK VINA RESULT:    -6.548      5.051      8.332
REMARK INTER + INTRA:          -8.668
REMARK INTER:                  -8.072
REMARK INTRA:                  -0.596
REMARK UNBOUND:                -0.589
REMARK  Name = 
REMARK  4 active torsions:
REMARK  status: ('A' for Active; 'I' for Inactive)
REMARK    1  A    between atoms: C_2  and  C_4
REMARK    2  A    between atoms: N_8  and  C_9
REMARK    3  A    between atoms: C_9  and  C_10
REMARK    4  A    between atoms: C_14  and  N_15
REMARK                            x       y       z     vdW  Elec       q    Type
REMARK                         _______ _______ _______ _____ _____    ______ ____
ROOT
ATOM      1  C   UNL     1      51.881   2.508  17.767  0.00  0.00    +0.000 A 
ATOM      2  C   UNL     1      51.288   3.660  18.272  0.00  0.00    +0.000 A 
ATOM      3  C   UNL     1      49.930   3.884  18.040  0.00  0.00    +0.000 A 
ATOM      4  C   UNL     1      49.193   2.964  17.299  0.00  0.00    +0.000 A 
ATOM      5  N   UNL     1      47.831   3.051  17.125  0.00  0.00    +0.000 N 
ATOM      6  N   UNL     1      49.768   1.860  16.781  0.00  0.00    +0.000 NA
ATOM      7  C   UNL     1      51.093   1.657  17.010  0.00  0.00    +0.000 A 
ATOM      8  H   UNL     1      47.566   2.308  16.482  0.00  0.00    +0.000 HD
ENDROOT
BRANCH   1  10
ATOM      9  N   UNL     1      53.550   0.912  18.511  0.00  0.00    +0.000 N 
ATOM     10  C   UNL     1      53.295   2.162  18.015  0.00  0.00    +0.000 C 
ATOM     11  O   UNL     1      54.202   2.938  17.749  0.00  0.00    +0.000 OA
ATOM     12  H   UNL     1      54.524   0.643  18.570  0.00  0.00    +0.000 HD
ATOM     13  H   UNL     1      52.865   0.170  18.493  0.00  0.00    +0.000 HD
ENDBRANCH   1  10
BRANCH   5  14
ATOM     14  C   UNL     1      47.158   4.322  16.922  0.00  0.00    +0.000 C 
BRANCH  14  15
ATOM     15  C   UNL     1      47.285   4.824  15.513  0.00  0.00    +0.000 A 
ATOM     16  C   UNL     1      48.249   5.750  15.148  0.00  0.00    +0.000 A 
ATOM     17  N   UNL     1      48.356   6.274  13.909  0.00  0.00    +0.000 NA
ATOM     18  C   UNL     1      47.460   5.837  12.983  0.00  0.00    +0.000 A 
ATOM     19  C   UNL     1      46.448   4.904  13.211  0.00  0.00    +0.000 A 
ATOM     20  C   UNL     1      46.379   4.425  14.523  0.00  0.00    +0.000 A 
BRANCH  19  21
ATOM     21  N   UNL     1      45.519   4.502  12.277  0.00  0.00    +0.000 N 
ATOM     22  C   UNL     1      45.226   5.259  11.053  0.00  0.00    +0.000 C 
ATOM     23  C   UNL     1      43.721   5.113  10.750  0.00  0.00    +0.000 C 
ATOM     24  O   UNL     1      43.323   3.734  10.641  0.00  0.00    +0.000 OA
ATOM     25  C   UNL     1      43.622   3.024  11.857  0.00  0.00    +0.000 C 
ATOM     26  C   UNL     1      45.121   3.084  12.182  0.00  0.00    +0.000 C 
ENDBRANCH  19  21
ENDBRANCH  14  15
ENDBRANCH   5  14
TORSDOF 4
ENDMDL
MODEL 9
REMARK VINA RESULT:    -5.932      4.234      6.389
REMARK INTER + INTRA:          -7.907
REMARK INTER:                  -7.406
REMARK INTRA:                  -0.502
REMARK UNBOUND:                -0.589
REMARK  Name = 
REMARK  4 active torsions:
REMARK  status: ('A' for Active; 'I' for Inactive)
REMARK    1  A    between atoms: C_2  and  C_4
REMARK    2  A    between atoms: N_8  and  C_9
REMARK    3  A    between atoms: C_9  and  C_10
REMARK    4  A    between atoms: C_14  and  N_15
REMARK                            x       y       z     vdW  Elec       q    Type
REMARK                         _______ _______ _______ _____ _____    ______ ____
ROOT
ATOM      1  C   UNL     1      44.764   4.414  12.160  0.00  0.00    +0.000 A 
ATOM      2  C   UNL     1      45.893   4.173  12.937  0.00  0.00    +0.000 A 
ATOM      3  C   UNL     1      46.610   5.256  13.448  0.00  0.00    +0.000 A 
ATOM      4  C   UNL     1      46.197   6.555  13.165  0.00  0.00    +0.000 A 
ATOM      5  N   UNL     1      46.777   7.671  13.724  0.00  0.00    +0.000 N 
ATOM      6  N   UNL     1      45.122   6.796  12.388  0.00  0.00    +0.000 NA
ATOM      7  C   UNL     1      44.436   5.732  11.893  0.00  0.00    +0.000 A 
ATOM      8  H   UNL     1      46.344   8.481  13.287  0.00  0.00    +0.000 HD
ENDROOT
BRANCH   1  10
ATOM      9  N   UNL     1      43.693   2.256  12.450  0.00  0.00    +0.000 N 
ATOM     10  C   UNL     1      43.913   3.329  11.630  0.00  0.00    +0.000 C 
ATOM     11  O   UNL     1      43.392   3.403  10.526  0.00  0.00    +0.000 OA
ATOM     12  H   UNL     1      43.020   1.574  12.126  0.00  0.00    +0.000 HD
ATOM     13  H   UNL     1      43.885   2.281  13.442  0.00  0.00    +0.000 HD
ENDBRANCH   1  10
BRANCH   5  14
ATOM     14  C   UNL     1      48.210   7.770  13.940  0.00  0.00    +0.000 C 
BRANCH  14  15
ATOM     15  C   UNL     1      48.603   7.463  15.356  0.00  0.00    +0.000 A 
ATOM     16  C   UNL     1      48.686   8.449  16.326  0.00  0.00    +0.000 A 
ATOM     17  N   UNL     1      49.096   8.225  17.592  0.00  0.00    +0.000 NA
ATOM     18  C   UNL     1      49.427   6.945  17.908  0.00  0.00    +0.000 A 
ATOM     19  C   UNL     1      49.380   5.856  17.036  0.00  0.00    +0.000 A 
ATOM     20  C   UNL     1      48.973   6.166  15.735  0.00  0.00    +0.000 A 
BRANCH  19  21
ATOM     21  N   UNL     1      49.759   4.571  17.356  0.00  0.00    +0.000 N 
ATOM     22  C   UNL     1      50.940   4.258  18.171  0.00  0.00    +0.000 C 
ATOM     23  C   UNL     1      51.560   2.953  17.632  0.00  0.00    +0.000 C 
ATOM     24  O   UNL     1      50.611   1.870  17.616  0.00  0.00    +0.000 OA
ATOM     25  C   UNL     1      49.469   2.210  16.808  0.00  0.00    +0.000 C 
ATOM     26  C   UNL     1      48.773   3.474  17.332  0.00  0.00    +0.000 C 
ENDBRANCH  19  21
ENDBRANCH  14  15
ENDBRANCH   5  14
TORSDOF 4
ENDMDL
