MODEL 1
REMARK VINA RESULT:    -7.509      0.000      0.000
REMARK INTER + INTRA:         -10.635
REMARK INTER:                 -10.143
REMARK INTRA:                  -0.492
REMARK UNBOUND:                -0.492
REMARK  Name = 
REMARK  7 active torsions:
REMARK  status: ('A' for Active; 'I' for Inactive)
REMARK    1  A    between atoms: N_1  and  C_2
REMARK    2  A    between atoms: C_2  and  C_3
REMARK    3  A    between atoms: C_7  and  O_8
REMARK    4  A    between atoms: O_8  and  C_9
REMARK    5  A    between atoms: C_9  and  C_10
REMARK    6  A    between atoms: C_10  and  O_11
REMARK    7  A    between atoms: C_10  and  C_12
REMARK                            x       y       z     vdW  Elec       q    Type
REMARK                         _______ _______ _______ _____ _____    ______ ____
ROOT
ATOM      1  O   UNL     1      44.318   4.588  11.222  0.00  0.00    +0.000 OA
ENDROOT
BRANCH   1   6
ATOM      2  C   UNL     1      46.808   5.141  13.820  0.00  0.00    +0.000 A 
ATOM      3  C   UNL     1      47.541   6.214  13.295  0.00  0.00    +0.000 A 
ATOM      4  C   UNL     1      47.186   6.782  12.072  0.00  0.00    +0.000 A 
ATOM      5  C   UNL     1      46.105   6.276  11.348  0.00  0.00    +0.000 A 
ATOM      6  C   UNL     1      45.371   5.199  11.848  0.00  0.00    +0.000 A 
ATOM      7  C   UNL     1      45.719   4.647  13.085  0.00  0.00    +0.000 A 
BRANCH   2   8
ATOM      8  C   UNL     1      47.220   4.491  15.117  0.00  0.00    +0.000 C 
BRANCH   8   9
ATOM      9  N   UNL     1      47.636   3.106  14.929  0.00  0.00    +0.000 NA
ATOM     10  H   UNL     1      48.653   3.065  14.918  0.00  0.00    +0.000 HD
ATOM     11  H   UNL     1      47.326   2.795  14.010  0.00  0.00    +0.000 HD
ENDBRANCH   8   9
ENDBRANCH   2   8
ENDBRANCH   1   6
BRANCH   1  12
ATOM     12  C   UNL     1      44.548   3.264  10.718  0.00  0.00    +0.000 C 
BRANCH  12  13
ATOM     13  C   UNL     1      44.253   3.229   9.207  0.00  0.00    +0.000 C 
BRANCH  13  14
ATOM     14  C   UNL     1      45.426   2.747   8.380  0.00  0.00    +0.000 A 
ATOM     15  C   UNL     1      45.798   1.394   8.419  0.00  0.00    +0.000 A 
ATOM     16  C   UNL     1      46.886   0.930   7.676  0.00  0.00    +0.000 A 
ATOM     17  C   UNL     1      47.621   1.815   6.889  0.00  0.00    +0.000 A 
ATOM     18  C   UNL     1      47.273   3.161   6.848  0.00  0.00    +0.000 A 
ATOM     19  C   UNL     1      46.189   3.625   7.592  0.00  0.00    +0.000 A 
ENDBRANCH  13  14
BRANCH  13  20
ATOM     20  O   UNL     1      43.811   4.513   8.759  0.00  0.00    +0.000 OA
ATOM     21  H   UNL     1      44.620   5.012   8.546  0.00  0.00    +0.000 HD
ENDBRANCH  13  20
ENDBRANCH  12  13
ENDBRANCH   1  12
TORSDOF 7
ENDMDL
MODEL 2
REMARK VINA RESULT:    -7.458      2.285      5.821
REMARK INTER + INTRA:         -10.565
REMARK INTER:                  -9.953
REMARK INTRA:                  -0.612
REMARK UNBOUND:                -0.492
REMARK  Name = 
REMARK  7 active torsions:
REMARK  status: ('A' for Active; 'I' for Inactive)
REMARK    1  A    between atoms: N_1  and  C_2
REMARK    2  A    between atoms: C_2  and  C_3
REMARK    3  A    between atoms: C_7  and  O_8
REMARK    4  A    between atoms: O_8  and  C_9
REMARK    5  A    between atoms: C_9  and  C_10
REMARK    6  A    between atoms: C_10  and  O_11
REMARK    7  A    between atoms: C_10  and  C_12
REMARK                            x       y       z     vdW  Elec       q    Type
REMARK                         _______ _______ _______ _____ _____    ______ ____
ROOT
ATOM      1  O   UNL     1      43.933   2.547  10.306  0.00  0.00    +0.000 OA
ENDROOT
BRANCH   1   6
ATOM      2  C   UNL     1      46.478   2.029   7.754  0.00  0.00    +0.000 A 
ATOM      3  C   UNL     1      46.696   3.335   7.294  0.00  0.00    +0.000 A 
ATOM      4  C   UNL     1      46.009   4.408   7.858  0.00  0.00    +0.000 A 
ATOM      5  C   UNL     1      45.081   4.191   8.879  0.00  0.00    +0.000 A 
ATOM      6  C   UNL     1      44.839   2.897   9.342  0.00  0.00    +0.000 A 
ATOM      7  C   UNL     1      45.548   1.826   8.786  0.00  0.00    +0.000 A 
BRANCH   2   8
ATOM      8  C   UNL     1      47.182   0.860   7.112  0.00  0.00    +0.000 C 
BRANCH   8   9
ATOM      9  N   UNL     1      46.835  -0.406   7.747  0.00  0.00    +0.000 NA
ATOM     10  H   UNL     1      46.608  -1.087   7.026  0.00  0.00    +0.000 HD
ATOM     11  H   UNL     1      45.986  -0.273   8.294  0.00  0.00    +0.000 HD
ENDBRANCH   8   9
ENDBRANCH   2   8
ENDBRANCH   1   6
BRANCH   1  12
ATOM     12  C   UNL     1      43.429   3.607  11.132  0.00  0.00    +0.000 C 
BRANCH  12  13
ATOM     13  C   UNL     1      44.210   3.640  12.459  0.00  0.00    +0.000 C 
BRANCH  13  14
ATOM     14  C   UNL     1      45.055   4.886  12.623  0.00  0.00    +0.000 A 
ATOM     15  C   UNL     1      46.342   4.788  13.175  0.00  0.00    +0.000 A 
ATOM     16  C   UNL     1      47.134   5.926  13.350  0.00  0.00    +0.000 A 
ATOM     17  C   UNL     1      46.646   7.178  12.980  0.00  0.00    +0.000 A 
ATOM     18  C   UNL     1      45.368   7.294  12.442  0.00  0.00    +0.000 A 
ATOM     19  C   UNL     1      44.577   6.159  12.271  0.00  0.00    +0.000 A 
ENDBRANCH  13  14
BRANCH  13  20
ATOM     20  O   UNL     1      45.012   2.463  12.593  0.00  0.00    +0.000 OA
ATOM     21  H   UNL     1      44.499   1.746  12.178  0.00  0.00    +0.000 HD
ENDBRANCH  13  20
ENDBRANCH  12  13
ENDBRANCH   1  12
TORSDOF 7
ENDMDL
MODEL 3
REMARK VINA RESULT:    -6.948      2.201      2.735
REMARK INTER + INTRA:          -9.877
REMARK INTER:                  -9.517
REMARK INTRA:                  -0.360
REMARK UNBOUND:                -0.492
REMARK  Name = 
REMARK  7 active torsions:
REMARK  status: ('A' for Active; 'I' for Inactive)
REMARK    1  A    between atoms: N_1  and  C_2
REMARK    2  A    between atoms: C_2  and  C_3
REMARK    3  A    between atoms: C_7  and  O_8
REMARK    4  A    between atoms: O_8  and  C_9
REMARK    5  A    between atoms: C_9  and  C_10
REMARK    6  A    between atoms: C_10  and  O_11
REMARK    7  A    between atoms: C_10  and  C_12
REMARK                            x       y       z     vdW  Elec       q    Type
REMARK                         _______ _______ _______ _____ _____    ______ ____
ROOT
ATOM      1  O   UNL     1      44.231   4.274  11.407  0.00  0.00    +0.000 OA
ENDROOT
BRANCH   1   6
ATOM      2  C   UNL     1      45.305   7.690  12.067  0.00  0.00    +0.000 A 
ATOM      3  C   UNL     1      46.409   7.489  12.907  0.00  0.00    +0.000 A 
ATOM      4  C   UNL     1      46.822   6.199  13.237  0.00  0.00    +0.000 A 
ATOM      5  C   UNL     1      46.127   5.091  12.746  0.00  0.00    +0.000 A 
ATOM      6  C   UNL     1      45.017   5.270  11.920  0.00  0.00    +0.000 A 
ATOM      7  C   UNL     1      44.621   6.568  11.576  0.00  0.00    +0.000 A 
BRANCH   2   8
ATOM      8  C   UNL     1      44.825   9.084  11.750  0.00  0.00    +0.000 C 
BRANCH   8   9
ATOM      9  N   UNL     1      43.606   9.075  10.950  0.00  0.00    +0.000 NA
ATOM     10  H   UNL     1      43.641   8.291  10.302  0.00  0.00    +0.000 HD
ATOM     11  H   UNL     1      43.585   9.919  10.380  0.00  0.00    +0.000 HD
ENDBRANCH   8   9
ENDBRANCH   2   8
ENDBRANCH   1   6
BRANCH   1  12
ATOM     12  C   UNL     1      44.902   3.230  10.687  0.00  0.00    +0.000 C 
BRANCH  12  13
ATOM     13  C   UNL     1      44.388   3.194   9.235  0.00  0.00    +0.000 C 
BRANCH  13  14
ATOM     14  C   UNL     1      45.443   2.762   8.239  0.00  0.00    +0.000 A 
ATOM     15  C   UNL     1      46.028   1.491   8.349  0.00  0.00    +0.000 A 
ATOM     16  C   UNL     1      47.015   1.077   7.450  0.00  0.00    +0.000 A 
ATOM     17  C   UNL     1      47.433   1.933   6.432  0.00  0.00    +0.000 A 
ATOM     18  C   UNL     1      46.872   3.200   6.316  0.00  0.00    +0.000 A 
ATOM     19  C   UNL     1      45.890   3.614   7.215  0.00  0.00    +0.000 A 
ENDBRANCH  13  14
BRANCH  13  20
ATOM     20  O   UNL     1      43.838   4.463   8.872  0.00  0.00    +0.000 OA
ATOM     21  H   UNL     1      43.329   4.763   9.648  0.00  0.00    +0.000 HD
ENDBRANCH  13  20
ENDBRANCH  12  13
ENDBRANCH   1  12
TORSDOF 7
ENDMDL
MODEL 4
REMARK VINA RESULT:    -6.849      2.345      6.046
REMARK INTER + INTRA:          -9.743
REMARK INTER:                  -9.152
REMARK INTRA:                  -0.591
REMARK UNBOUND:                -0.492
REMARK  Name = 
REMARK  7 active torsions:
REMARK  status: ('A' for Active; 'I' for Inactive)
REMARK    1  A    between atoms: N_1  and  C_2
REMARK    2  A    between atoms: C_2  and  C_3
REMARK    3  A    between atoms: C_7  and  O_8
REMARK    4  A    between atoms: O_8  and  C_9
REMARK    5  A    between atoms: C_9  and  C_10
REMARK    6  A    between atoms: C_10  and  O_11
REMARK    7  A    between atoms: C_10  and  C_12
REMARK                            x       y       z     vdW  Elec       q    Type
REMARK                         _______ _______ _______ _____ _____    ______ ____
ROOT
ATOM      1  O   UNL     1      44.232   5.025  10.097  0.00  0.00    +0.000 OA
ENDROOT
BRANCH   1   6
ATOM      2  C   UNL     1      46.235   3.219   7.650  0.00  0.00    +0.000 A 
ATOM      3  C   UNL     1      45.966   1.885   7.984  0.00  0.00    +0.000 A 
ATOM      4  C   UNL     1      45.084   1.579   9.019  0.00  0.00    +0.000 A 
ATOM      5  C   UNL     1      44.471   2.600   9.747  0.00  0.00    +0.000 A 
ATOM      6  C   UNL     1      44.736   3.936   9.439  0.00  0.00    +0.000 A 
ATOM      7  C   UNL     1      45.606   4.236   8.386  0.00  0.00    +0.000 A 
BRANCH   2   8
ATOM      8  C   UNL     1      47.227   3.556   6.566  0.00  0.00    +0.000 C 
BRANCH   8   9
ATOM      9  N   UNL     1      48.340   2.613   6.528  0.00  0.00    +0.000 NA
ATOM     10  H   UNL     1      48.415   2.228   5.589  0.00  0.00    +0.000 HD
ATOM     11  H   UNL     1      48.124   1.831   7.144  0.00  0.00    +0.000 HD
ENDBRANCH   8   9
ENDBRANCH   2   8
ENDBRANCH   1   6
BRANCH   1  12
ATOM     12  C   UNL     1      43.224   4.770  11.087  0.00  0.00    +0.000 C 
BRANCH  12  13
ATOM     13  C   UNL     1      43.447   5.695  12.298  0.00  0.00    +0.000 C 
BRANCH  13  14
ATOM     14  C   UNL     1      44.888   5.732  12.764  0.00  0.00    +0.000 A 
ATOM     15  C   UNL     1      45.642   6.905  12.604  0.00  0.00    +0.000 A 
ATOM     16  C   UNL     1      46.977   6.957  13.012  0.00  0.00    +0.000 A 
ATOM     17  C   UNL     1      47.577   5.834  13.581  0.00  0.00    +0.000 A 
ATOM     18  C   UNL     1      46.846   4.661  13.737  0.00  0.00    +0.000 A 
ATOM     19  C   UNL     1      45.515   4.608  13.326  0.00  0.00    +0.000 A 
ENDBRANCH  13  14
BRANCH  13  20
ATOM     20  O   UNL     1      42.577   5.325  13.371  0.00  0.00    +0.000 OA
ATOM     21  H   UNL     1      42.526   6.106  13.952  0.00  0.00    +0.000 HD
ENDBRANCH  13  20
ENDBRANCH  12  13
ENDBRANCH   1  12
TORSDOF 7
ENDMDL
MODEL 5
REMARK VINA RESULT:    -6.612      2.449      3.195
REMARK INTER + INTRA:          -9.424
REMARK INTER:                  -8.704
REMARK INTRA:                  -0.720
REMARK UNBOUND:                -0.492
REMARK  Name = 
REMARK  7 active torsions:
REMARK  status: ('A' for Active; 'I' for Inactive)
REMARK    1  A    between atoms: N_1  and  C_2
REMARK    2  A    between atoms: C_2  and  C_3
REMARK    3  A    between atoms: C_7  and  O_8
REMARK    4  A    between atoms: O_8  and  C_9
REMARK    5  A    between atoms: C_9  and  C_10
REMARK    6  A    between atoms: C_10  and  O_11
REMARK    7  A    between atoms: C_10  and  C_12
REMARK                            x       y       z     vdW  Elec       q    Type
REMARK                         _______ _______ _______ _____ _____    ______ ____
ROOT
ATOM      1  O   UNL     1      44.611   4.462  13.511  0.00  0.00    +0.000 OA
ENDROOT
BRANCH   1   6
ATOM      2  C   UNL     1      45.922   7.740  12.620  0.00  0.00    +0.000 A 
ATOM      3  C   UNL     1      47.306   7.531  12.705  0.00  0.00    +0.000 A 
ATOM      4  C   UNL     1      47.813   6.276  13.036  0.00  0.00    +0.000 A 
ATOM      5  C   UNL     1      46.945   5.214  13.303  0.00  0.00    +0.000 A 
ATOM      6  C   UNL     1      45.564   5.405  13.237  0.00  0.00    +0.000 A 
ATOM      7  C   UNL     1      45.062   6.663  12.884  0.00  0.00    +0.000 A 
BRANCH   2   8
ATOM      8  C   UNL     1      45.369   9.109  12.313  0.00  0.00    +0.000 C 
BRANCH   8   9
ATOM      9  N   UNL     1      44.073   9.040  11.647  0.00  0.00    +0.000 NA
ATOM     10  H   UNL     1      43.342   9.244  12.325  0.00  0.00    +0.000 HD
ATOM     11  H   UNL     1      43.918   8.083  11.336  0.00  0.00    +0.000 HD
ENDBRANCH   8   9
ENDBRANCH   2   8
ENDBRANCH   1   6
BRANCH   1  12
ATOM     12  C   UNL     1      43.640   4.210  12.486  0.00  0.00    +0.000 C 
BRANCH  12  13
ATOM     13  C   UNL     1      44.030   2.939  11.708  0.00  0.00    +0.000 C 
BRANCH  13  14
ATOM     14  C   UNL     1      44.655   3.232  10.360  0.00  0.00    +0.000 A 
ATOM     15  C   UNL     1      44.893   2.182   9.460  0.00  0.00    +0.000 A 
ATOM     16  C   UNL     1      45.483   2.426   8.217  0.00  0.00    +0.000 A 
ATOM     17  C   UNL     1      45.847   3.724   7.861  0.00  0.00    +0.000 A 
ATOM     18  C   UNL     1      45.628   4.774   8.746  0.00  0.00    +0.000 A 
ATOM     19  C   UNL     1      45.042   4.529   9.988  0.00  0.00    +0.000 A 
ENDBRANCH  13  14
BRANCH  13  20
ATOM     20  O   UNL     1      42.897   2.078  11.565  0.00  0.00    +0.000 OA
ATOM     21  H   UNL     1      42.446   2.088  12.429  0.00  0.00    +0.000 HD
ENDBRANCH  13  20
ENDBRANCH  12  13
ENDBRANCH   1  12
TORSDOF 7
ENDMDL
MODEL 6
REMARK VINA RESULT:    -6.522      1.219      1.873
REMARK INTER + INTRA:          -9.302
REMARK INTER:                  -8.856
REMARK INTRA:                  -0.446
REMARK UNBOUND:                -0.492
REMARK  Name = 
REMARK  7 active torsions:
REMARK  status: ('A' for Active; 'I' for Inactive)
REMARK    1  A    between atoms: N_1  and  C_2
REMARK    2  A    between atoms: C_2  and  C_3
REMARK    3  A    between atoms: C_7  and  O_8
REMARK    4  A    between atoms: O_8  and  C_9
REMARK    5  A    between atoms: C_9  and  C_10
REMARK    6  A    between atoms: C_10  and  O_11
REMARK    7  A    between atoms: C_10  and  C_12
REMARK                            x       y       z     vdW  Elec       q    Type
REMARK                         _______ _______ _______ _____ _____    ______ ____
ROOT
ATOM      1  O   UNL     1      45.333   3.523  12.031  0.00  0.00    +0.000 OA
ENDROOT
BRANCH   1   6
ATOM      2  C   UNL     1      47.267   4.852  14.816  0.00  0.00    +0.000 A 
ATOM      3  C   UNL     1      47.655   6.107  14.326  0.00  0.00    +0.000 A 
ATOM      4  C   UNL     1      47.244   6.531  13.063  0.00  0.00    +0.000 A 
ATOM      5  C   UNL     1      46.455   5.702  12.264  0.00  0.00    +0.000 A 
ATOM      6  C   UNL     1      46.070   4.443  12.728  0.00  0.00    +0.000 A 
ATOM      7  C   UNL     1      46.468   4.031  14.005  0.00  0.00    +0.000 A 
BRANCH   2   8
ATOM      8  C   UNL     1      47.750   4.368  16.160  0.00  0.00    +0.000 C 
BRANCH   8   9
ATOM      9  N   UNL     1      46.706   3.668  16.899  0.00  0.00    +0.000 NA
ATOM     10  H   UNL     1      45.848   3.680  16.351  0.00  0.00    +0.000 HD
ATOM     11  H   UNL     1      46.508   4.187  17.753  0.00  0.00    +0.000 HD
ENDBRANCH   8   9
ENDBRANCH   2   8
ENDBRANCH   1   6
BRANCH   1  12
ATOM     12  C   UNL     1      43.923   3.772  11.928  0.00  0.00    +0.000 C 
BRANCH  12  13
ATOM     13  C   UNL     1      43.551   4.024  10.455  0.00  0.00    +0.000 C 
BRANCH  13  14
ATOM     14  C   UNL     1      44.566   3.466   9.479  0.00  0.00    +0.000 A 
ATOM     15  C   UNL     1      45.301   4.340   8.662  0.00  0.00    +0.000 A 
ATOM     16  C   UNL     1      46.231   3.848   7.743  0.00  0.00    +0.000 A 
ATOM     17  C   UNL     1      46.435   2.473   7.627  0.00  0.00    +0.000 A 
ATOM     18  C   UNL     1      45.708   1.594   8.421  0.00  0.00    +0.000 A 
ATOM     19  C   UNL     1      44.776   2.085   9.335  0.00  0.00    +0.000 A 
ENDBRANCH  13  14
BRANCH  13  20
ATOM     20  O   UNL     1      43.344   5.421  10.228  0.00  0.00    +0.000 OA
ATOM     21  H   UNL     1      43.151   5.805  11.102  0.00  0.00    +0.000 HD
ENDBRANCH  13  20
ENDBRANCH  12  13
ENDBRANCH   1  12
TORSDOF 7
ENDMDL
MODEL 7
REMARK VINA RESULT:    -6.491      1.477      2.136
REMARK INTER + INTRA:          -9.259
REMARK INTER:                  -8.995
REMARK INTRA:                  -0.265
REMARK UNBOUND:                -0.492
REMARK  Name = 
REMARK  7 active torsions:
REMARK  status: ('A' for Active; 'I' for Inactive)
REMARK    1  A    between atoms: N_1  and  C_2
REMARK    2  A    between atoms: C_2  and  C_3
REMARK    3  A    between atoms: C_7  and  O_8
REMARK    4  A    between atoms: O_8  and  C_9
REMARK    5  A    between atoms: C_9  and  C_10
REMARK    6  A    between atoms: C_10  and  O_11
REMARK    7  A    between atoms: C_10  and  C_12
REMARK                            x       y       z     vdW  Elec       q    Type
REMARK                         _______ _______ _______ _____ _____    ______ ____
ROOT
ATOM      1  O   UNL     1      45.345   5.187  11.169  0.00  0.00    +0.000 OA
ENDROOT
BRANCH   1   6
ATOM      2  C   UNL     1      47.234   7.461  13.296  0.00  0.00    +0.000 A 
ATOM      3  C   UNL     1      46.512   8.654  13.157  0.00  0.00    +0.000 A 
ATOM      4  C   UNL     1      45.363   8.698  12.368  0.00  0.00    +0.000 A 
ATOM      5  C   UNL     1      44.929   7.556  11.692  0.00  0.00    +0.000 A 
ATOM      6  C   UNL     1      45.642   6.361  11.806  0.00  0.00    +0.000 A 
ATOM      7  C   UNL     1      46.782   6.318  12.616  0.00  0.00    +0.000 A 
BRANCH   2   8
ATOM      8  C   UNL     1      48.504   7.421  14.107  0.00  0.00    +0.000 C 
BRANCH   8   9
ATOM      9  N   UNL     1      48.638   6.177  14.857  0.00  0.00    +0.000 NA
ATOM     10  H   UNL     1      48.986   5.451  14.234  0.00  0.00    +0.000 HD
ATOM     11  H   UNL     1      47.712   5.878  15.158  0.00  0.00    +0.000 HD
ENDBRANCH   8   9
ENDBRANCH   2   8
ENDBRANCH   1   6
BRANCH   1  12
ATOM     12  C   UNL     1      45.611   5.133   9.760  0.00  0.00    +0.000 C 
BRANCH  12  13
ATOM     13  C   UNL     1      44.876   3.929   9.142  0.00  0.00    +0.000 C 
BRANCH  13  14
ATOM     14  C   UNL     1      45.764   3.073   8.264  0.00  0.00    +0.000 A 
ATOM     15  C   UNL     1      46.429   3.651   7.172  0.00  0.00    +0.000 A 
ATOM     16  C   UNL     1      47.241   2.878   6.338  0.00  0.00    +0.000 A 
ATOM     17  C   UNL     1      47.393   1.514   6.584  0.00  0.00    +0.000 A 
ATOM     18  C   UNL     1      46.731   0.923   7.655  0.00  0.00    +0.000 A 
ATOM     19  C   UNL     1      45.918   1.695   8.484  0.00  0.00    +0.000 A 
ENDBRANCH  13  14
BRANCH  13  20
ATOM     20  O   UNL     1      43.722   4.370   8.420  0.00  0.00    +0.000 OA
ATOM     21  H   UNL     1      43.857   4.076   7.501  0.00  0.00    +0.000 HD
ENDBRANCH  13  20
ENDBRANCH  12  13
ENDBRANCH   1  12
TORSDOF 7
ENDMDL
MODEL 8
REMARK VINA RESULT:    -6.263      3.448      7.316
REMARK INTER + INTRA:          -8.953
REMARK INTER:                  -8.617
REMARK INTRA:                  -0.335
REMARK UNBOUND:                -0.492
REMARK  Name = 
REMARK  7 active torsions:
REMARK  status: ('A' for Active; 'I' for Inactive)
REMARK    1  A    between atoms: N_1  and  C_2
REMARK    2  A    between atoms: C_2  and  C_3
REMARK    3  A    between atoms: C_7  and  O_8
REMARK    4  A    between atoms: O_8  and  C_9
REMARK    5  A    between atoms: C_9  and  C_10
REMARK    6  A    between atoms: C_10  and  O_11
REMARK    7  A    between atoms: C_10  and  C_12
REMARK                            x       y       z     vdW  Elec       q    Type
REMARK                         _______ _______ _______ _____ _____    ______ ____
ROOT
ATOM      1  O   UNL     1      46.597   3.944  14.731  0.00  0.00    +0.000 OA
ENDROOT
BRANCH   1   6
ATOM      2  C   UNL     1      44.912   3.927  11.503  0.00  0.00    +0.000 A 
ATOM      3  C   UNL     1      45.255   5.186  10.991  0.00  0.00    +0.000 A 
ATOM      4  C   UNL     1      46.083   6.043  11.715  0.00  0.00    +0.000 A 
ATOM      5  C   UNL     1      46.565   5.662  12.969  0.00  0.00    +0.000 A 
ATOM      6  C   UNL     1      46.223   4.419  13.503  0.00  0.00    +0.000 A 
ATOM      7  C   UNL     1      45.410   3.555  12.762  0.00  0.00    +0.000 A 
BRANCH   2   8
ATOM      8  C   UNL     1      43.977   3.019  10.746  0.00  0.00    +0.000 C 
BRANCH   8   9
ATOM      9  N   UNL     1      43.077   2.293  11.636  0.00  0.00    +0.000 NA
ATOM     10  H   UNL     1      42.496   1.668  11.080  0.00  0.00    +0.000 HD
ATOM     11  H   UNL     1      42.445   2.960  12.074  0.00  0.00    +0.000 HD
ENDBRANCH   8   9
ENDBRANCH   2   8
ENDBRANCH   1   6
BRANCH   1  12
ATOM     12  C   UNL     1      47.359   4.833  15.561  0.00  0.00    +0.000 C 
BRANCH  12  13
ATOM     13  C   UNL     1      47.561   4.195  16.948  0.00  0.00    +0.000 C 
BRANCH  13  14
ATOM     14  C   UNL     1      48.963   3.666  17.164  0.00  0.00    +0.000 A 
ATOM     15  C   UNL     1      49.244   2.314  16.912  0.00  0.00    +0.000 A 
ATOM     16  C   UNL     1      50.527   1.800  17.119  0.00  0.00    +0.000 A 
ATOM     17  C   UNL     1      51.545   2.631  17.585  0.00  0.00    +0.000 A 
ATOM     18  C   UNL     1      51.280   3.971  17.849  0.00  0.00    +0.000 A 
ATOM     19  C   UNL     1      49.998   4.483  17.646  0.00  0.00    +0.000 A 
ENDBRANCH  13  14
BRANCH  13  20
ATOM     20  O   UNL     1      46.592   3.166  17.167  0.00  0.00    +0.000 OA
ATOM     21  H   UNL     1      46.548   2.663  16.333  0.00  0.00    +0.000 HD
ENDBRANCH  13  20
ENDBRANCH  12  13
ENDBRANCH   1  12
TORSDOF 7
ENDMDL
MODEL 9
REMARK VINA RESULT:    -6.227      1.665      2.565
REMARK INTER + INTRA:          -8.903
REMARK INTER:                  -8.492
REMARK INTRA:                  -0.412
REMARK UNBOUND:                -0.492
REMARK  Name = 
REMARK  7 active torsions:
REMARK  status: ('A' for Active; 'I' for Inactive)
REMARK    1  A    between atoms: N_1  and  C_2
REMARK    2  A    between atoms: C_2  and  C_3
REMARK    3  A    between atoms: C_7  and  O_8
REMARK    4  A    between atoms: O_8  and  C_9
REMARK    5  A    between atoms: C_9  and  C_10
REMARK    6  A    between atoms: C_10  and  O_11
REMARK    7  A    between atoms: C_10  and  C_12
REMARK                            x       y       z     vdW  Elec       q    Type
REMARK                         _______ _______ _______ _____ _____    ______ ____
ROOT
ATOM      1  O   UNL     1      45.351   4.222  11.800  0.00  0.00    +0.000 OA
ENDROOT
BRANCH   1   6
ATOM      2  C   UNL     1      47.653   6.712  13.128  0.00  0.00    +0.000 A 
ATOM      3  C   UNL     1      47.924   6.203  14.406  0.00  0.00    +0.000 A 
ATOM      4  C   UNL     1      47.356   5.000  14.823  0.00  0.00    +0.000 A 
ATOM      5  C   UNL     1      46.497   4.297  13.977  0.00  0.00    +0.000 A 
ATOM      6  C   UNL     1      46.203   4.793  12.706  0.00  0.00    +0.000 A 
ATOM      7  C   UNL     1      46.792   5.991  12.286  0.00  0.00    +0.000 A 
BRANCH   2   8
ATOM      8  C   UNL     1      48.224   8.037  12.692  0.00  0.00    +0.000 C 
BRANCH   8   9
ATOM      9  N   UNL     1      48.882   7.950  11.393  0.00  0.00    +0.000 NA
ATOM     10  H   UNL     1      49.004   8.890  11.020  0.00  0.00    +0.000 HD
ATOM     11  H   UNL     1      48.264   7.463  10.747  0.00  0.00    +0.000 HD
ENDBRANCH   8   9
ENDBRANCH   2   8
ENDBRANCH   1   6
BRANCH   1  12
ATOM     12  C   UNL     1      45.235   4.873  10.526  0.00  0.00    +0.000 C 
BRANCH  12  13
ATOM     13  C   UNL     1      44.515   3.939   9.536  0.00  0.00    +0.000 C 
BRANCH  13  14
ATOM     14  C   UNL     1      45.464   3.171   8.640  0.00  0.00    +0.000 A 
ATOM     15  C   UNL     1      46.186   3.848   7.645  0.00  0.00    +0.000 A 
ATOM     16  C   UNL     1      47.055   3.157   6.797  0.00  0.00    +0.000 A 
ATOM     17  C   UNL     1      47.210   1.778   6.931  0.00  0.00    +0.000 A 
ATOM     18  C   UNL     1      46.494   1.090   7.904  0.00  0.00    +0.000 A 
ATOM     19  C   UNL     1      45.623   1.779   8.748  0.00  0.00    +0.000 A 
ENDBRANCH  13  14
BRANCH  13  20
ATOM     20  O   UNL     1      43.569   4.678   8.756  0.00  0.00    +0.000 OA
ATOM     21  H   UNL     1      42.849   4.914   9.369  0.00  0.00    +0.000 HD
ENDBRANCH  13  20
ENDBRANCH  12  13
ENDBRANCH   1  12
TORSDOF 7
ENDMDL
