MODEL 1
REMARK VINA RESULT:    -7.188      0.000      0.000
REMARK INTER + INTRA:         -10.433
REMARK INTER:                 -10.130
REMARK INTRA:                  -0.303
REMARK UNBOUND:                -0.303
REMARK  Name = 
REMARK  10 active torsions:
REMARK  status: ('A' for Active; 'I' for Inactive)
REMARK    1  A    between atoms: C_1  and  C_2
REMARK    2  A    between atoms: C_2  and  C_3
REMARK    3  A    between atoms: C_2  and  C_4
REMARK    4  A    between atoms: C_2  and  N_5
REMARK    5  A    between atoms: N_5  and  C_6
REMARK    6  A    between atoms: N_5  and  C_17
REMARK    7  A    between atoms: C_6  and  C_7
REMARK    8  A    between atoms: C_7  and  C_8
REMARK    9  A    between atoms: C_12  and  C_13
REMARK   10  A    between atoms: C_20  and  C_21
REMARK                            x       y       z     vdW  Elec       q    Type
REMARK                         _______ _______ _______ _____ _____    ______ ____
ROOT
ATOM      1  N   UNL     1      44.252   4.236  10.690  0.00  0.00    +0.000 N 
ENDROOT
BRANCH   1   2
ATOM      2  C   UNL     1      45.004   3.721   9.601  0.00  0.00    +0.000 A 
ATOM      3  C   UNL     1      45.152   2.341   9.348  0.00  0.00    +0.000 A 
ATOM      4  C   UNL     1      45.973   1.809   8.339  0.00  0.00    +0.000 A 
ATOM      5  C   UNL     1      46.655   2.650   7.492  0.00  0.00    +0.000 A 
ATOM      6  C   UNL     1      46.519   4.023   7.654  0.00  0.00    +0.000 A 
ATOM      7  C   UNL     1      45.721   4.532   8.704  0.00  0.00    +0.000 A 
BRANCH   5   8
ATOM      8  C   UNL     1      47.502   2.125   6.463  0.00  0.00    +0.000 C 
ATOM      9  N   UNL     1      48.188   1.708   5.626  0.00  0.00    +0.000 NA
ENDBRANCH   5   8
ENDBRANCH   1   2
BRANCH   1  11
ATOM     10  C   UNL     1      43.385   4.162  13.163  0.00  0.00    +0.000 C 
ATOM     11  C   UNL     1      44.122   3.455  12.000  0.00  0.00    +0.000 C 
ATOM     12  C   UNL     1      45.550   3.229  12.552  0.00  0.00    +0.000 C 
ATOM     13  C   UNL     1      43.319   2.138  11.859  0.00  0.00    +0.000 C 
ENDBRANCH   1  11
BRANCH   1  14
ATOM     14  C   UNL     1      43.519   5.517  10.420  0.00  0.00    +0.000 C 
BRANCH  14  15
ATOM     15  C   UNL     1      43.574   6.578  11.526  0.00  0.00    +0.000 C 
BRANCH  15  16
ATOM     16  C   UNL     1      44.850   7.349  11.761  0.00  0.00    +0.000 A 
ATOM     17  C   UNL     1      44.779   8.751  11.711  0.00  0.00    +0.000 A 
ATOM     18  C   UNL     1      45.931   9.498  11.900  0.00  0.00    +0.000 A 
ATOM     19  N   UNL     1      47.143   8.956  12.128  0.00  0.00    +0.000 NA
ATOM     20  C   UNL     1      47.190   7.594  12.167  0.00  0.00    +0.000 A 
ATOM     21  C   UNL     1      46.090   6.762  11.987  0.00  0.00    +0.000 A 
BRANCH  20  22
ATOM     22  C   UNL     1      48.524   6.973  12.422  0.00  0.00    +0.000 C 
ATOM     23  N   UNL     1      49.589   7.600  11.843  0.00  0.00    +0.000 N 
ATOM     24  O   UNL     1      48.670   5.972  13.104  0.00  0.00    +0.000 OA
ATOM     25  H   UNL     1      49.437   8.425  11.275  0.00  0.00    +0.000 HD
ATOM     26  H   UNL     1      50.517   7.222  11.972  0.00  0.00    +0.000 HD
ENDBRANCH  20  22
ENDBRANCH  15  16
ENDBRANCH  14  15
ENDBRANCH   1  14
TORSDOF 7
ENDMDL
MODEL 2
REMARK VINA RESULT:    -7.048      1.552      1.931
REMARK INTER + INTRA:         -10.235
REMARK INTER:                  -9.722
REMARK INTRA:                  -0.512
REMARK UNBOUND:                -0.303
REMARK  Name = 
REMARK  10 active torsions:
REMARK  status: ('A' for Active; 'I' for Inactive)
REMARK    1  A    between atoms: C_1  and  C_2
REMARK    2  A    between atoms: C_2  and  C_3
REMARK    3  A    between atoms: C_2  and  C_4
REMARK    4  A    between atoms: C_2  and  N_5
REMARK    5  A    between atoms: N_5  and  C_6
REMARK    6  A    between atoms: N_5  and  C_17
REMARK    7  A    between atoms: C_6  and  C_7
REMARK    8  A    between atoms: C_7  and  C_8
REMARK    9  A    between atoms: C_12  and  C_13
REMARK   10  A    between atoms: C_20  and  C_21
REMARK                            x       y       z     vdW  Elec       q    Type
REMARK                         _______ _______ _______ _____ _____    ______ ____
ROOT
ATOM      1  N   UNL     1      44.566   4.492  10.818  0.00  0.00    +0.000 N 
ENDROOT
BRANCH   1   2
ATOM      2  C   UNL     1      45.213   3.939   9.680  0.00  0.00    +0.000 A 
ATOM      3  C   UNL     1      45.284   2.553   9.430  0.00  0.00    +0.000 A 
ATOM      4  C   UNL     1      46.004   1.981   8.367  0.00  0.00    +0.000 A 
ATOM      5  C   UNL     1      46.654   2.787   7.463  0.00  0.00    +0.000 A 
ATOM      6  C   UNL     1      46.587   4.165   7.621  0.00  0.00    +0.000 A 
ATOM      7  C   UNL     1      45.892   4.714   8.724  0.00  0.00    +0.000 A 
BRANCH   5   8
ATOM      8  C   UNL     1      47.398   2.221   6.378  0.00  0.00    +0.000 C 
ATOM      9  N   UNL     1      48.000   1.770   5.496  0.00  0.00    +0.000 NA
ENDBRANCH   5   8
ENDBRANCH   1   2
BRANCH   1  11
ATOM     10  C   UNL     1      43.417   4.304  13.166  0.00  0.00    +0.000 C 
ATOM     11  C   UNL     1      44.190   3.617  12.016  0.00  0.00    +0.000 C 
ATOM     12  C   UNL     1      45.506   3.150  12.684  0.00  0.00    +0.000 C 
ATOM     13  C   UNL     1      43.253   2.438  11.653  0.00  0.00    +0.000 C 
ENDBRANCH   1  11
BRANCH   1  14
ATOM     14  C   UNL     1      44.188   5.939  10.706  0.00  0.00    +0.000 C 
BRANCH  14  15
ATOM     15  C   UNL     1      44.684   6.860  11.827  0.00  0.00    +0.000 C 
BRANCH  15  16
ATOM     16  C   UNL     1      46.109   6.748  12.314  0.00  0.00    +0.000 A 
ATOM     17  C   UNL     1      47.131   7.079  11.409  0.00  0.00    +0.000 A 
ATOM     18  C   UNL     1      48.454   6.970  11.807  0.00  0.00    +0.000 A 
ATOM     19  N   UNL     1      48.833   6.553  13.031  0.00  0.00    +0.000 NA
ATOM     20  C   UNL     1      47.824   6.231  13.891  0.00  0.00    +0.000 A 
ATOM     21  C   UNL     1      46.471   6.307  13.581  0.00  0.00    +0.000 A 
BRANCH  20  22
ATOM     22  C   UNL     1      48.224   5.769  15.254  0.00  0.00    +0.000 C 
ATOM     23  N   UNL     1      47.326   4.963  15.892  0.00  0.00    +0.000 N 
ATOM     24  O   UNL     1      49.281   6.080  15.776  0.00  0.00    +0.000 OA
ATOM     25  H   UNL     1      46.452   4.727  15.437  0.00  0.00    +0.000 HD
ATOM     26  H   UNL     1      47.536   4.625  16.820  0.00  0.00    +0.000 HD
ENDBRANCH  20  22
ENDBRANCH  15  16
ENDBRANCH  14  15
ENDBRANCH   1  14
TORSDOF 7
ENDMDL
MODEL 3
REMARK VINA RESULT:    -6.827      3.294      4.112
REMARK INTER + INTRA:          -9.923
REMARK INTER:                  -8.978
REMARK INTRA:                  -0.945
REMARK UNBOUND:                -0.303
REMARK  Name = 
REMARK  10 active torsions:
REMARK  status: ('A' for Active; 'I' for Inactive)
REMARK    1  A    between atoms: C_1  and  C_2
REMARK    2  A    between atoms: C_2  and  C_3
REMARK    3  A    between atoms: C_2  and  C_4
REMARK    4  A    between atoms: C_2  and  N_5
REMARK    5  A    between atoms: N_5  and  C_6
REMARK    6  A    between atoms: N_5  and  C_17
REMARK    7  A    between atoms: C_6  and  C_7
REMARK    8  A    between atoms: C_7  and  C_8
REMARK    9  A    between atoms: C_12  and  C_13
REMARK   10  A    between atoms: C_20  and  C_21
REMARK                            x       y       z     vdW  Elec       q    Type
REMARK                         _______ _______ _______ _____ _____    ______ ____
ROOT
ATOM      1  N   UNL     1      44.961   4.513  11.702  0.00  0.00    +0.000 N 
ENDROOT
BRANCH   1   2
ATOM      2  C   UNL     1      45.270   4.157  10.362  0.00  0.00    +0.000 A 
ATOM      3  C   UNL     1      45.151   2.842   9.865  0.00  0.00    +0.000 A 
ATOM      4  C   UNL     1      45.547   2.449   8.575  0.00  0.00    +0.000 A 
ATOM      5  C   UNL     1      46.041   3.380   7.693  0.00  0.00    +0.000 A 
ATOM      6  C   UNL     1      46.143   4.704   8.100  0.00  0.00    +0.000 A 
ATOM      7  C   UNL     1      45.778   5.066   9.417  0.00  0.00    +0.000 A 
BRANCH   5   8
ATOM      8  C   UNL     1      46.456   2.996   6.377  0.00  0.00    +0.000 C 
ATOM      9  N   UNL     1      46.793   2.678   5.314  0.00  0.00    +0.000 NA
ENDBRANCH   5   8
ENDBRANCH   1   2
BRANCH   1  11
ATOM     10  C   UNL     1      42.504   5.181  11.078  0.00  0.00    +0.000 C 
ATOM     11  C   UNL     1      43.713   5.333  12.033  0.00  0.00    +0.000 C 
ATOM     12  C   UNL     1      44.091   6.829  11.912  0.00  0.00    +0.000 C 
ATOM     13  C   UNL     1      43.087   4.983  13.406  0.00  0.00    +0.000 C 
ENDBRANCH   1  11
BRANCH   1  14
ATOM     14  C   UNL     1      45.990   4.131  12.724  0.00  0.00    +0.000 C 
BRANCH  14  15
ATOM     15  C   UNL     1      46.942   5.244  13.180  0.00  0.00    +0.000 C 
BRANCH  15  16
ATOM     16  C   UNL     1      47.491   5.232  14.585  0.00  0.00    +0.000 A 
ATOM     17  C   UNL     1      48.343   6.284  14.958  0.00  0.00    +0.000 A 
ATOM     18  C   UNL     1      48.886   6.302  16.233  0.00  0.00    +0.000 A 
ATOM     19  N   UNL     1      48.649   5.351  17.158  0.00  0.00    +0.000 NA
ATOM     20  C   UNL     1      47.824   4.336  16.773  0.00  0.00    +0.000 A 
ATOM     21  C   UNL     1      47.235   4.233  15.517  0.00  0.00    +0.000 A 
BRANCH  20  22
ATOM     22  C   UNL     1      47.546   3.274  17.785  0.00  0.00    +0.000 C 
ATOM     23  N   UNL     1      48.382   3.250  18.863  0.00  0.00    +0.000 N 
ATOM     24  O   UNL     1      46.633   2.472  17.672  0.00  0.00    +0.000 OA
ATOM     25  H   UNL     1      49.136   3.924  18.927  0.00  0.00    +0.000 HD
ATOM     26  H   UNL     1      48.250   2.549  19.578  0.00  0.00    +0.000 HD
ENDBRANCH  20  22
ENDBRANCH  15  16
ENDBRANCH  14  15
ENDBRANCH   1  14
TORSDOF 7
ENDMDL
MODEL 4
REMARK VINA RESULT:    -6.636      1.337      1.999
REMARK INTER + INTRA:          -9.654
REMARK INTER:                  -9.517
REMARK INTRA:                  -0.137
REMARK UNBOUND:                -0.303
REMARK  Name = 
REMARK  10 active torsions:
REMARK  status: ('A' for Active; 'I' for Inactive)
REMARK    1  A    between atoms: C_1  and  C_2
REMARK    2  A    between atoms: C_2  and  C_3
REMARK    3  A    between atoms: C_2  and  C_4
REMARK    4  A    between atoms: C_2  and  N_5
REMARK    5  A    between atoms: N_5  and  C_6
REMARK    6  A    between atoms: N_5  and  C_17
REMARK    7  A    between atoms: C_6  and  C_7
REMARK    8  A    between atoms: C_7  and  C_8
REMARK    9  A    between atoms: C_12  and  C_13
REMARK   10  A    between atoms: C_20  and  C_21
REMARK                            x       y       z     vdW  Elec       q    Type
REMARK                         _______ _______ _______ _____ _____    ______ ____
ROOT
ATOM      1  N   UNL     1      44.601   4.683  10.773  0.00  0.00    +0.000 N 
ENDROOT
BRANCH   1   2
ATOM      2  C   UNL     1      45.237   4.073   9.659  0.00  0.00    +0.000 A 
ATOM      3  C   UNL     1      45.281   2.676   9.465  0.00  0.00    +0.000 A 
ATOM      4  C   UNL     1      45.991   2.048   8.426  0.00  0.00    +0.000 A 
ATOM      5  C   UNL     1      46.657   2.805   7.492  0.00  0.00    +0.000 A 
ATOM      6  C   UNL     1      46.617   4.190   7.595  0.00  0.00    +0.000 A 
ATOM      7  C   UNL     1      45.933   4.796   8.674  0.00  0.00    +0.000 A 
BRANCH   5   8
ATOM      8  C   UNL     1      47.391   2.181   6.431  0.00  0.00    +0.000 C 
ATOM      9  N   UNL     1      47.990   1.683   5.573  0.00  0.00    +0.000 NA
ENDBRANCH   5   8
ENDBRANCH   1   2
BRANCH   1  11
ATOM     10  C   UNL     1      43.211   2.603  11.558  0.00  0.00    +0.000 C 
ATOM     11  C   UNL     1      44.060   3.843  11.932  0.00  0.00    +0.000 C 
ATOM     12  C   UNL     1      43.080   4.731  12.735  0.00  0.00    +0.000 C 
ATOM     13  C   UNL     1      45.169   3.222  12.818  0.00  0.00    +0.000 C 
ENDBRANCH   1  11
BRANCH   1  14
ATOM     14  C   UNL     1      44.403   6.167  10.670  0.00  0.00    +0.000 C 
BRANCH  14  15
ATOM     15  C   UNL     1      44.905   7.003  11.854  0.00  0.00    +0.000 C 
BRANCH  15  16
ATOM     16  C   UNL     1      46.343   6.884  12.298  0.00  0.00    +0.000 A 
ATOM     17  C   UNL     1      46.610   6.092  13.426  0.00  0.00    +0.000 A 
ATOM     18  C   UNL     1      47.913   5.972  13.881  0.00  0.00    +0.000 A 
ATOM     19  N   UNL     1      48.965   6.584  13.302  0.00  0.00    +0.000 NA
ATOM     20  C   UNL     1      48.682   7.353  12.212  0.00  0.00    +0.000 A 
ATOM     21  C   UNL     1      47.408   7.534  11.685  0.00  0.00    +0.000 A 
BRANCH  20  22
ATOM     22  C   UNL     1      49.834   8.038  11.554  0.00  0.00    +0.000 C 
ATOM     23  N   UNL     1      50.922   7.254  11.300  0.00  0.00    +0.000 N 
ATOM     24  O   UNL     1      49.819   9.221  11.254  0.00  0.00    +0.000 OA
ATOM     25  H   UNL     1      50.909   6.277  11.566  0.00  0.00    +0.000 HD
ATOM     26  H   UNL     1      51.736   7.663  10.864  0.00  0.00    +0.000 HD
ENDBRANCH  20  22
ENDBRANCH  15  16
ENDBRANCH  14  15
ENDBRANCH   1  14
TORSDOF 7
ENDMDL
MODEL 5
REMARK VINA RESULT:    -6.226      5.768      8.244
REMARK INTER + INTRA:          -9.078
REMARK INTER:                  -8.243
REMARK INTRA:                  -0.835
REMARK UNBOUND:                -0.303
REMARK  Name = 
REMARK  10 active torsions:
REMARK  status: ('A' for Active; 'I' for Inactive)
REMARK    1  A    between atoms: C_1  and  C_2
REMARK    2  A    between atoms: C_2  and  C_3
REMARK    3  A    between atoms: C_2  and  C_4
REMARK    4  A    between atoms: C_2  and  N_5
REMARK    5  A    between atoms: N_5  and  C_6
REMARK    6  A    between atoms: N_5  and  C_17
REMARK    7  A    between atoms: C_6  and  C_7
REMARK    8  A    between atoms: C_7  and  C_8
REMARK    9  A    between atoms: C_12  and  C_13
REMARK   10  A    between atoms: C_20  and  C_21
REMARK                            x       y       z     vdW  Elec       q    Type
REMARK                         _______ _______ _______ _____ _____    ______ ____
ROOT
ATOM      1  N   UNL     1      48.680   4.682  17.493  0.00  0.00    +0.000 N 
ENDROOT
BRANCH   1   2
ATOM      2  C   UNL     1      49.825   3.842  17.495  0.00  0.00    +0.000 A 
ATOM      3  C   UNL     1      49.762   2.449  17.277  0.00  0.00    +0.000 A 
ATOM      4  C   UNL     1      50.867   1.587  17.375  0.00  0.00    +0.000 A 
ATOM      5  C   UNL     1      52.114   2.094  17.651  0.00  0.00    +0.000 A 
ATOM      6  C   UNL     1      52.258   3.464  17.832  0.00  0.00    +0.000 A 
ATOM      7  C   UNL     1      51.123   4.305  17.770  0.00  0.00    +0.000 A 
BRANCH   5   8
ATOM      8  C   UNL     1      53.250   1.228  17.762  0.00  0.00    +0.000 C 
ATOM      9  N   UNL     1      54.170   0.527  17.844  0.00  0.00    +0.000 NA
ENDBRANCH   5   8
ENDBRANCH   1   2
BRANCH   1  11
ATOM     10  C   UNL     1      48.825   5.072  20.081  0.00  0.00    +0.000 C 
ATOM     11  C   UNL     1      48.349   5.569  18.694  0.00  0.00    +0.000 C 
ATOM     12  C   UNL     1      46.808   5.616  18.830  0.00  0.00    +0.000 C 
ATOM     13  C   UNL     1      48.986   6.979  18.619  0.00  0.00    +0.000 C 
ENDBRANCH   1  11
BRANCH   1  14
ATOM     14  C   UNL     1      47.782   4.546  16.298  0.00  0.00    +0.000 C 
BRANCH  14  15
ATOM     15  C   UNL     1      47.960   5.593  15.192  0.00  0.00    +0.000 C 
BRANCH  15  16
ATOM     16  C   UNL     1      47.173   5.470  13.910  0.00  0.00    +0.000 A 
ATOM     17  C   UNL     1      47.312   6.496  12.962  0.00  0.00    +0.000 A 
ATOM     18  C   UNL     1      46.591   6.434  11.780  0.00  0.00    +0.000 A 
ATOM     19  N   UNL     1      45.742   5.433  11.476  0.00  0.00    +0.000 NA
ATOM     20  C   UNL     1      45.617   4.450  12.413  0.00  0.00    +0.000 A 
ATOM     21  C   UNL     1      46.297   4.428  13.626  0.00  0.00    +0.000 A 
BRANCH  20  22
ATOM     22  C   UNL     1      44.683   3.330  12.094  0.00  0.00    +0.000 C 
ATOM     23  N   UNL     1      44.878   2.722  10.888  0.00  0.00    +0.000 N 
ATOM     24  O   UNL     1      43.798   2.968  12.852  0.00  0.00    +0.000 OA
ATOM     25  H   UNL     1      45.617   3.048  10.276  0.00  0.00    +0.000 HD
ATOM     26  H   UNL     1      44.272   1.962  10.612  0.00  0.00    +0.000 HD
ENDBRANCH  20  22
ENDBRANCH  15  16
ENDBRANCH  14  15
ENDBRANCH   1  14
TORSDOF 7
ENDMDL
MODEL 6
REMARK VINA RESULT:    -6.210      3.198      6.927
REMARK INTER + INTRA:          -9.055
REMARK INTER:                  -8.208
REMARK INTRA:                  -0.847
REMARK UNBOUND:                -0.303
REMARK  Name = 
REMARK  10 active torsions:
REMARK  status: ('A' for Active; 'I' for Inactive)
REMARK    1  A    between atoms: C_1  and  C_2
REMARK    2  A    between atoms: C_2  and  C_3
REMARK    3  A    between atoms: C_2  and  C_4
REMARK    4  A    between atoms: C_2  and  N_5
REMARK    5  A    between atoms: N_5  and  C_6
REMARK    6  A    between atoms: N_5  and  C_17
REMARK    7  A    between atoms: C_6  and  C_7
REMARK    8  A    between atoms: C_7  and  C_8
REMARK    9  A    between atoms: C_12  and  C_13
REMARK   10  A    between atoms: C_20  and  C_21
REMARK                            x       y       z     vdW  Elec       q    Type
REMARK                         _______ _______ _______ _____ _____    ______ ____
ROOT
ATOM      1  N   UNL     1      47.460   7.525  13.207  0.00  0.00    +0.000 N 
ENDROOT
BRANCH   1   2
ATOM      2  C   UNL     1      47.626   6.491  14.166  0.00  0.00    +0.000 A 
ATOM      3  C   UNL     1      47.018   5.223  14.048  0.00  0.00    +0.000 A 
ATOM      4  C   UNL     1      47.086   4.223  15.034  0.00  0.00    +0.000 A 
ATOM      5  C   UNL     1      47.820   4.431  16.177  0.00  0.00    +0.000 A 
ATOM      6  C   UNL     1      48.485   5.641  16.338  0.00  0.00    +0.000 A 
ATOM      7  C   UNL     1      48.364   6.647  15.352  0.00  0.00    +0.000 A 
BRANCH   5   8
ATOM      8  C   UNL     1      47.895   3.426  17.194  0.00  0.00    +0.000 C 
ATOM      9  N   UNL     1      47.956   2.607  18.012  0.00  0.00    +0.000 NA
ENDBRANCH   5   8
ENDBRANCH   1   2
BRANCH   1  11
ATOM     10  C   UNL     1      48.357   9.468  11.693  0.00  0.00    +0.000 C 
ATOM     11  C   UNL     1      48.658   8.327  12.695  0.00  0.00    +0.000 C 
ATOM     12  C   UNL     1      49.557   7.359  11.889  0.00  0.00    +0.000 C 
ATOM     13  C   UNL     1      49.430   9.071  13.812  0.00  0.00    +0.000 C 
ENDBRANCH   1  11
BRANCH   1  14
ATOM     14  C   UNL     1      46.041   7.838  12.834  0.00  0.00    +0.000 C 
BRANCH  14  15
ATOM     15  C   UNL     1      45.606   7.437  11.419  0.00  0.00    +0.000 C 
BRANCH  15  16
ATOM     16  C   UNL     1      44.868   6.138  11.202  0.00  0.00    +0.000 A 
ATOM     17  C   UNL     1      43.840   5.818  12.103  0.00  0.00    +0.000 A 
ATOM     18  C   UNL     1      43.149   4.626  11.953  0.00  0.00    +0.000 A 
ATOM     19  N   UNL     1      43.409   3.730  10.981  0.00  0.00    +0.000 NA
ATOM     20  C   UNL     1      44.416   4.058  10.120  0.00  0.00    +0.000 A 
ATOM     21  C   UNL     1      45.163   5.229  10.193  0.00  0.00    +0.000 A 
BRANCH  20  22
ATOM     22  C   UNL     1      44.718   3.080   9.034  0.00  0.00    +0.000 C 
ATOM     23  N   UNL     1      44.621   1.764   9.379  0.00  0.00    +0.000 N 
ATOM     24  O   UNL     1      45.029   3.420   7.904  0.00  0.00    +0.000 OA
ATOM     25  H   UNL     1      44.366   1.511  10.326  0.00  0.00    +0.000 HD
ATOM     26  H   UNL     1      44.821   1.054   8.688  0.00  0.00    +0.000 HD
ENDBRANCH  20  22
ENDBRANCH  15  16
ENDBRANCH  14  15
ENDBRANCH   1  14
TORSDOF 7
ENDMDL
MODEL 7
REMARK VINA RESULT:    -6.058      4.239      7.051
REMARK INTER + INTRA:          -8.840
REMARK INTER:                  -7.679
REMARK INTRA:                  -1.161
REMARK UNBOUND:                -0.303
REMARK  Name = 
REMARK  10 active torsions:
REMARK  status: ('A' for Active; 'I' for Inactive)
REMARK    1  A    between atoms: C_1  and  C_2
REMARK    2  A    between atoms: C_2  and  C_3
REMARK    3  A    between atoms: C_2  and  C_4
REMARK    4  A    between atoms: C_2  and  N_5
REMARK    5  A    between atoms: N_5  and  C_6
REMARK    6  A    between atoms: N_5  and  C_17
REMARK    7  A    between atoms: C_6  and  C_7
REMARK    8  A    between atoms: C_7  and  C_8
REMARK    9  A    between atoms: C_12  and  C_13
REMARK   10  A    between atoms: C_20  and  C_21
REMARK                            x       y       z     vdW  Elec       q    Type
REMARK                         _______ _______ _______ _____ _____    ______ ____
ROOT
ATOM      1  N   UNL     1      48.237   8.340  13.537  0.00  0.00    +0.000 N 
ENDROOT
BRANCH   1   2
ATOM      2  C   UNL     1      47.304   7.292  13.318  0.00  0.00    +0.000 A 
ATOM      3  C   UNL     1      45.972   7.516  12.911  0.00  0.00    +0.000 A 
ATOM      4  C   UNL     1      45.006   6.503  12.788  0.00  0.00    +0.000 A 
ATOM      5  C   UNL     1      45.348   5.193  13.022  0.00  0.00    +0.000 A 
ATOM      6  C   UNL     1      46.656   4.893  13.382  0.00  0.00    +0.000 A 
ATOM      7  C   UNL     1      47.599   5.935  13.541  0.00  0.00    +0.000 A 
BRANCH   5   8
ATOM      8  C   UNL     1      44.375   4.148  12.908  0.00  0.00    +0.000 C 
ATOM      9  N   UNL     1      43.589   3.301  12.809  0.00  0.00    +0.000 NA
ENDBRANCH   5   8
ENDBRANCH   1   2
BRANCH   1  11
ATOM     10  C   UNL     1      50.435   9.553  12.781  0.00  0.00    +0.000 C 
ATOM     11  C   UNL     1      49.093   8.887  12.392  0.00  0.00    +0.000 C 
ATOM     12  C   UNL     1      48.296  10.031  11.719  0.00  0.00    +0.000 C 
ATOM     13  C   UNL     1      49.549   7.802  11.385  0.00  0.00    +0.000 C 
ENDBRANCH   1  11
BRANCH   1  14
ATOM     14  C   UNL     1      48.396   8.776  14.963  0.00  0.00    +0.000 C 
BRANCH  14  15
ATOM     15  C   UNL     1      49.266   7.882  15.855  0.00  0.00    +0.000 C 
BRANCH  15  16
ATOM     16  C   UNL     1      48.633   7.111  16.988  0.00  0.00    +0.000 A 
ATOM     17  C   UNL     1      48.284   7.828  18.144  0.00  0.00    +0.000 A 
ATOM     18  C   UNL     1      47.719   7.156  19.216  0.00  0.00    +0.000 A 
ATOM     19  N   UNL     1      47.482   5.830  19.225  0.00  0.00    +0.000 NA
ATOM     20  C   UNL     1      47.835   5.153  18.095  0.00  0.00    +0.000 A 
ATOM     21  C   UNL     1      48.408   5.740  16.972  0.00  0.00    +0.000 A 
BRANCH  20  22
ATOM     22  C   UNL     1      47.578   3.682  18.084  0.00  0.00    +0.000 C 
ATOM     23  N   UNL     1      48.305   2.947  18.974  0.00  0.00    +0.000 N 
ATOM     24  O   UNL     1      46.771   3.155  17.335  0.00  0.00    +0.000 OA
ATOM     25  H   UNL     1      48.973   3.411  19.579  0.00  0.00    +0.000 HD
ATOM     26  H   UNL     1      48.182   1.945  19.008  0.00  0.00    +0.000 HD
ENDBRANCH  20  22
ENDBRANCH  15  16
ENDBRANCH  14  15
ENDBRANCH   1  14
TORSDOF 7
ENDMDL
MODEL 8
REMARK VINA RESULT:    -6.036      5.024      8.078
REMARK INTER + INTRA:          -8.809
REMARK INTER:                  -7.783
REMARK INTRA:                  -1.026
REMARK UNBOUND:                -0.303
REMARK  Name = 
REMARK  10 active torsions:
REMARK  status: ('A' for Active; 'I' for Inactive)
REMARK    1  A    between atoms: C_1  and  C_2
REMARK    2  A    between atoms: C_2  and  C_3
REMARK    3  A    between atoms: C_2  and  C_4
REMARK    4  A    between atoms: C_2  and  N_5
REMARK    5  A    between atoms: N_5  and  C_6
REMARK    6  A    between atoms: N_5  and  C_17
REMARK    7  A    between atoms: C_6  and  C_7
REMARK    8  A    between atoms: C_7  and  C_8
REMARK    9  A    between atoms: C_12  and  C_13
REMARK   10  A    between atoms: C_20  and  C_21
REMARK                            x       y       z     vdW  Elec       q    Type
REMARK                         _______ _______ _______ _____ _____    ______ ____
ROOT
ATOM      1  N   UNL     1      48.888   7.418  17.162  0.00  0.00    +0.000 N 
ENDROOT
BRANCH   1   2
ATOM      2  C   UNL     1      49.373   6.090  17.295  0.00  0.00    +0.000 A 
ATOM      3  C   UNL     1      50.744   5.774  17.395  0.00  0.00    +0.000 A 
ATOM      4  C   UNL     1      51.249   4.463  17.425  0.00  0.00    +0.000 A 
ATOM      5  C   UNL     1      50.388   3.392  17.408  0.00  0.00    +0.000 A 
ATOM      6  C   UNL     1      49.020   3.630  17.357  0.00  0.00    +0.000 A 
ATOM      7  C   UNL     1      48.539   4.958  17.284  0.00  0.00    +0.000 A 
BRANCH   5   8
ATOM      8  C   UNL     1      50.886   2.049  17.431  0.00  0.00    +0.000 C 
ATOM      9  N   UNL     1      51.282   0.960  17.454  0.00  0.00    +0.000 NA
ENDBRANCH   5   8
ENDBRANCH   1   2
BRANCH   1  11
ATOM     10  C   UNL     1      47.562   7.641  19.412  0.00  0.00    +0.000 C 
ATOM     11  C   UNL     1      48.547   8.262  18.392  0.00  0.00    +0.000 C 
ATOM     12  C   UNL     1      47.812   9.531  17.898  0.00  0.00    +0.000 C 
ATOM     13  C   UNL     1      49.773   8.587  19.281  0.00  0.00    +0.000 C 
ENDBRANCH   1  11
BRANCH   1  14
ATOM     14  C   UNL     1      48.636   7.875  15.755  0.00  0.00    +0.000 C 
BRANCH  14  15
ATOM     15  C   UNL     1      49.018   6.890  14.643  0.00  0.00    +0.000 C 
BRANCH  15  16
ATOM     16  C   UNL     1      47.983   6.467  13.629  0.00  0.00    +0.000 A 
ATOM     17  C   UNL     1      47.906   7.201  12.435  0.00  0.00    +0.000 A 
ATOM     18  C   UNL     1      46.957   6.859  11.485  0.00  0.00    +0.000 A 
ATOM     19  N   UNL     1      46.078   5.849  11.638  0.00  0.00    +0.000 NA
ATOM     20  C   UNL     1      46.166   5.153  12.808  0.00  0.00    +0.000 A 
ATOM     21  C   UNL     1      47.084   5.424  13.818  0.00  0.00    +0.000 A 
BRANCH  20  22
ATOM     22  C   UNL     1      45.204   4.028  12.996  0.00  0.00    +0.000 C 
ATOM     23  N   UNL     1      45.652   2.796  12.619  0.00  0.00    +0.000 N 
ATOM     24  O   UNL     1      44.085   4.183  13.458  0.00  0.00    +0.000 OA
ATOM     25  H   UNL     1      46.584   2.698  12.233  0.00  0.00    +0.000 HD
ATOM     26  H   UNL     1      45.043   1.996  12.715  0.00  0.00    +0.000 HD
ENDBRANCH  20  22
ENDBRANCH  15  16
ENDBRANCH  14  15
ENDBRANCH   1  14
TORSDOF 7
ENDMDL
MODEL 9
REMARK VINA RESULT:    -6.032      3.540      8.074
REMARK INTER + INTRA:          -8.803
REMARK INTER:                  -7.619
REMARK INTRA:                  -1.184
REMARK UNBOUND:                -0.303
REMARK  Name = 
REMARK  10 active torsions:
REMARK  status: ('A' for Active; 'I' for Inactive)
REMARK    1  A    between atoms: C_1  and  C_2
REMARK    2  A    between atoms: C_2  and  C_3
REMARK    3  A    between atoms: C_2  and  C_4
REMARK    4  A    between atoms: C_2  and  N_5
REMARK    5  A    between atoms: N_5  and  C_6
REMARK    6  A    between atoms: N_5  and  C_17
REMARK    7  A    between atoms: C_6  and  C_7
REMARK    8  A    between atoms: C_7  and  C_8
REMARK    9  A    between atoms: C_12  and  C_13
REMARK   10  A    between atoms: C_20  and  C_21
REMARK                            x       y       z     vdW  Elec       q    Type
REMARK                         _______ _______ _______ _____ _____    ______ ____
ROOT
ATOM      1  N   UNL     1      48.254   8.500  13.260  0.00  0.00    +0.000 N 
ENDROOT
BRANCH   1   2
ATOM      2  C   UNL     1      48.628   8.200  14.597  0.00  0.00    +0.000 A 
ATOM      3  C   UNL     1      49.376   7.058  14.951  0.00  0.00    +0.000 A 
ATOM      4  C   UNL     1      49.669   6.689  16.276  0.00  0.00    +0.000 A 
ATOM      5  C   UNL     1      49.263   7.486  17.318  0.00  0.00    +0.000 A 
ATOM      6  C   UNL     1      48.561   8.653  17.040  0.00  0.00    +0.000 A 
ATOM      7  C   UNL     1      48.241   8.979  15.701  0.00  0.00    +0.000 A 
BRANCH   5   8
ATOM      8  C   UNL     1      49.546   7.122  18.675  0.00  0.00    +0.000 C 
ATOM      9  N   UNL     1      49.774   6.835  19.775  0.00  0.00    +0.000 NA
ENDBRANCH   5   8
ENDBRANCH   1   2
BRANCH   1  11
ATOM     10  C   UNL     1      50.431   9.915  12.899  0.00  0.00    +0.000 C 
ATOM     11  C   UNL     1      49.252   9.124  12.282  0.00  0.00    +0.000 C 
ATOM     12  C   UNL     1      48.491  10.187  11.453  0.00  0.00    +0.000 C 
ATOM     13  C   UNL     1      49.985   8.086  11.396  0.00  0.00    +0.000 C 
ENDBRANCH   1  11
BRANCH   1  14
ATOM     14  C   UNL     1      46.809   8.271  12.927  0.00  0.00    +0.000 C 
BRANCH  14  15
ATOM     15  C   UNL     1      46.523   7.288  11.784  0.00  0.00    +0.000 C 
BRANCH  15  16
ATOM     16  C   UNL     1      46.124   5.867  12.101  0.00  0.00    +0.000 A 
ATOM     17  C   UNL     1      46.766   5.239  13.181  0.00  0.00    +0.000 A 
ATOM     18  C   UNL     1      46.446   3.927  13.494  0.00  0.00    +0.000 A 
ATOM     19  N   UNL     1      45.541   3.197  12.813  0.00  0.00    +0.000 NA
ATOM     20  C   UNL     1      44.934   3.825  11.765  0.00  0.00    +0.000 A 
ATOM     21  C   UNL     1      45.192   5.135  11.375  0.00  0.00    +0.000 A 
BRANCH  20  22
ATOM     22  C   UNL     1      43.927   3.034  10.998  0.00  0.00    +0.000 C 
ATOM     23  N   UNL     1      44.078   3.039   9.642  0.00  0.00    +0.000 N 
ATOM     24  O   UNL     1      43.022   2.415  11.534  0.00  0.00    +0.000 OA
ATOM     25  H   UNL     1      44.834   3.567   9.224  0.00  0.00    +0.000 HD
ATOM     26  H   UNL     1      43.422   2.528   9.068  0.00  0.00    +0.000 HD
ENDBRANCH  20  22
ENDBRANCH  15  16
ENDBRANCH  14  15
ENDBRANCH   1  14
TORSDOF 7
ENDMDL
