MODEL 1
REMARK VINA RESULT:    -7.623      0.000      0.000
REMARK INTER + INTRA:          -9.774
REMARK INTER:                  -9.405
REMARK INTRA:                  -0.368
REMARK UNBOUND:                -0.368
REMARK  Name = 
REMARK  4 active torsions:
REMARK  status: ('A' for Active; 'I' for Inactive)
REMARK    1  A    between atoms: C_2  and  C_4
REMARK    2  A    between atoms: C_7  and  N_8
REMARK    3  A    between atoms: N_8  and  C_9
REMARK    4  A    between atoms: C_9  and  C_10
REMARK                            x       y       z     vdW  Elec       q    Type
REMARK                         _______ _______ _______ _____ _____    ______ ____
ROOT
ATOM      1  C   UNL     1      46.411   2.340   7.772  0.00  0.00    +0.000 A 
ATOM      2  C   UNL     1      46.422   3.705   7.536  0.00  0.00    +0.000 A 
ATOM      3  N   UNL     1      45.564   4.557   8.159  0.00  0.00    +0.000 NA
ATOM      4  C   UNL     1      44.718   4.022   9.062  0.00  0.00    +0.000 A 
ATOM      5  C   UNL     1      44.713   2.634   9.265  0.00  0.00    +0.000 A 
ATOM      6  N   UNL     1      45.546   1.761   8.645  0.00  0.00    +0.000 NA
ENDROOT
BRANCH   1   8
ATOM      7  N   UNL     1      48.463   2.035   6.528  0.00  0.00    +0.000 N 
ATOM      8  C   UNL     1      47.342   1.442   7.041  0.00  0.00    +0.000 C 
ATOM      9  O   UNL     1      47.134   0.240   6.921  0.00  0.00    +0.000 OA
ATOM     10  H   UNL     1      49.165   1.462   6.079  0.00  0.00    +0.000 HD
ATOM     11  H   UNL     1      48.648   3.018   6.707  0.00  0.00    +0.000 HD
ENDBRANCH   1   8
BRANCH   4  12
ATOM     12  N   UNL     1      43.835   4.899   9.687  0.00  0.00    +0.000 N 
ATOM     13  H   UNL     1      42.943   4.866   9.199  0.00  0.00    +0.000 HD
BRANCH  12  14
ATOM     14  C   UNL     1      43.662   4.737  11.124  0.00  0.00    +0.000 C 
BRANCH  14  15
ATOM     15  C   UNL     1      44.937   5.082  11.853  0.00  0.00    +0.000 A 
ATOM     16  C   UNL     1      45.568   6.317  11.657  0.00  0.00    +0.000 A 
ATOM     17  C   UNL     1      46.706   6.649  12.393  0.00  0.00    +0.000 A 
ATOM     18  C   UNL     1      47.222   5.754  13.329  0.00  0.00    +0.000 A 
ATOM     19  C   UNL     1      46.602   4.523  13.529  0.00  0.00    +0.000 A 
ATOM     20  C   UNL     1      45.466   4.188  12.795  0.00  0.00    +0.000 A 
ENDBRANCH  14  15
ENDBRANCH  12  14
ENDBRANCH   4  12
TORSDOF 4
ENDMDL
MODEL 2
REMARK VINA RESULT:    -7.549      3.162      5.937
REMARK INTER + INTRA:          -9.682
REMARK INTER:                  -9.370
REMARK INTRA:                  -0.313
REMARK UNBOUND:                -0.368
REMARK  Name = 
REMARK  4 active torsions:
REMARK  status: ('A' for Active; 'I' for Inactive)
REMARK    1  A    between atoms: C_2  and  C_4
REMARK    2  A    between atoms: C_7  and  N_8
REMARK    3  A    between atoms: N_8  and  C_9
REMARK    4  A    between atoms: C_9  and  C_10
REMARK                            x       y       z     vdW  Elec       q    Type
REMARK                         _______ _______ _______ _____ _____    ______ ____
ROOT
ATOM      1  C   UNL     1      46.473   4.565  13.645  0.00  0.00    +0.000 A 
ATOM      2  C   UNL     1      46.710   5.705  12.895  0.00  0.00    +0.000 A 
ATOM      3  N   UNL     1      46.148   5.898  11.670  0.00  0.00    +0.000 NA
ATOM      4  C   UNL     1      45.304   4.945  11.226  0.00  0.00    +0.000 A 
ATOM      5  C   UNL     1      45.101   3.791  11.997  0.00  0.00    +0.000 A 
ATOM      6  N   UNL     1      45.662   3.565  13.211  0.00  0.00    +0.000 NA
ENDROOT
BRANCH   1   8
ATOM      7  N   UNL     1      47.535   5.522  15.595  0.00  0.00    +0.000 N 
ATOM      8  C   UNL     1      47.138   4.378  14.960  0.00  0.00    +0.000 C 
ATOM      9  O   UNL     1      47.303   3.270  15.460  0.00  0.00    +0.000 OA
ATOM     10  H   UNL     1      47.933   5.461  16.524  0.00  0.00    +0.000 HD
ATOM     11  H   UNL     1      47.320   6.430  15.194  0.00  0.00    +0.000 HD
ENDBRANCH   1   8
BRANCH   4  12
ATOM     12  N   UNL     1      44.743   5.146   9.968  0.00  0.00    +0.000 N 
ATOM     13  H   UNL     1      45.420   5.628   9.382  0.00  0.00    +0.000 HD
BRANCH  12  14
ATOM     14  C   UNL     1      44.203   3.970   9.300  0.00  0.00    +0.000 C 
BRANCH  14  15
ATOM     15  C   UNL     1      45.292   3.233   8.562  0.00  0.00    +0.000 A 
ATOM     16  C   UNL     1      45.483   1.857   8.744  0.00  0.00    +0.000 A 
ATOM     17  C   UNL     1      46.448   1.177   8.001  0.00  0.00    +0.000 A 
ATOM     18  C   UNL     1      47.227   1.862   7.070  0.00  0.00    +0.000 A 
ATOM     19  C   UNL     1      47.046   3.230   6.882  0.00  0.00    +0.000 A 
ATOM     20  C   UNL     1      46.083   3.912   7.624  0.00  0.00    +0.000 A 
ENDBRANCH  14  15
ENDBRANCH  12  14
ENDBRANCH   4  12
TORSDOF 4
ENDMDL
MODEL 3
REMARK VINA RESULT:    -7.181      3.410      6.057
REMARK INTER + INTRA:          -9.229
REMARK INTER:                  -8.871
REMARK INTRA:                  -0.358
REMARK UNBOUND:                -0.368
REMARK  Name = 
REMARK  4 active torsions:
REMARK  status: ('A' for Active; 'I' for Inactive)
REMARK    1  A    between atoms: C_2  and  C_4
REMARK    2  A    between atoms: C_7  and  N_8
REMARK    3  A    between atoms: N_8  and  C_9
REMARK    4  A    between atoms: C_9  and  C_10
REMARK                            x       y       z     vdW  Elec       q    Type
REMARK                         _______ _______ _______ _____ _____    ______ ____
ROOT
ATOM      1  C   UNL     1      46.999   5.082  13.546  0.00  0.00    +0.000 A 
ATOM      2  C   UNL     1      46.822   3.720  13.726  0.00  0.00    +0.000 A 
ATOM      3  N   UNL     1      45.974   2.989  12.954  0.00  0.00    +0.000 NA
ATOM      4  C   UNL     1      45.334   3.640  11.961  0.00  0.00    +0.000 A 
ATOM      5  C   UNL     1      45.515   5.023  11.816  0.00  0.00    +0.000 A 
ATOM      6  N   UNL     1      46.341   5.779  12.582  0.00  0.00    +0.000 NA
ENDROOT
BRANCH   1   8
ATOM      7  N   UNL     1      47.713   5.671  15.780  0.00  0.00    +0.000 N 
ATOM      8  C   UNL     1      47.908   5.847  14.438  0.00  0.00    +0.000 C 
ATOM      9  O   UNL     1      48.793   6.576  14.002  0.00  0.00    +0.000 OA
ATOM     10  H   UNL     1      48.345   6.114  16.435  0.00  0.00    +0.000 HD
ATOM     11  H   UNL     1      47.022   5.005  16.112  0.00  0.00    +0.000 HD
ENDBRANCH   1   8
BRANCH   4  12
ATOM     12  N   UNL     1      44.459   2.887  11.182  0.00  0.00    +0.000 N 
ATOM     13  H   UNL     1      43.631   2.678  11.733  0.00  0.00    +0.000 HD
BRANCH  12  14
ATOM     14  C   UNL     1      44.109   3.436   9.880  0.00  0.00    +0.000 C 
BRANCH  14  15
ATOM     15  C   UNL     1      45.118   3.019   8.840  0.00  0.00    +0.000 A 
ATOM     16  C   UNL     1      45.696   3.959   7.977  0.00  0.00    +0.000 A 
ATOM     17  C   UNL     1      46.681   3.569   7.069  0.00  0.00    +0.000 A 
ATOM     18  C   UNL     1      47.098   2.240   7.016  0.00  0.00    +0.000 A 
ATOM     19  C   UNL     1      46.529   1.297   7.870  0.00  0.00    +0.000 A 
ATOM     20  C   UNL     1      45.544   1.684   8.776  0.00  0.00    +0.000 A 
ENDBRANCH  14  15
ENDBRANCH  12  14
ENDBRANCH   4  12
TORSDOF 4
ENDMDL
MODEL 4
REMARK VINA RESULT:    -7.067      3.337      6.315
REMARK INTER + INTRA:          -9.088
REMARK INTER:                  -8.818
REMARK INTRA:                  -0.271
REMARK UNBOUND:                -0.368
REMARK  Name = 
REMARK  4 active torsions:
REMARK  status: ('A' for Active; 'I' for Inactive)
REMARK    1  A    between atoms: C_2  and  C_4
REMARK    2  A    between atoms: C_7  and  N_8
REMARK    3  A    between atoms: N_8  and  C_9
REMARK    4  A    between atoms: C_9  and  C_10
REMARK                            x       y       z     vdW  Elec       q    Type
REMARK                         _______ _______ _______ _____ _____    ______ ____
ROOT
ATOM      1  C   UNL     1      45.716   6.577  12.532  0.00  0.00    +0.000 A 
ATOM      2  C   UNL     1      45.456   6.438  11.179  0.00  0.00    +0.000 A 
ATOM      3  N   UNL     1      45.217   5.227  10.606  0.00  0.00    +0.000 NA
ATOM      4  C   UNL     1      45.199   4.155  11.423  0.00  0.00    +0.000 A 
ATOM      5  C   UNL     1      45.487   4.323  12.786  0.00  0.00    +0.000 A 
ATOM      6  N   UNL     1      45.746   5.516  13.380  0.00  0.00    +0.000 NA
ENDROOT
BRANCH   1   8
ATOM      7  N   UNL     1      47.101   7.984  13.929  0.00  0.00    +0.000 N 
ATOM      8  C   UNL     1      46.009   7.915  13.108  0.00  0.00    +0.000 C 
ATOM      9  O   UNL     1      45.331   8.903  12.849  0.00  0.00    +0.000 OA
ATOM     10  H   UNL     1      47.388   8.882  14.297  0.00  0.00    +0.000 HD
ATOM     11  H   UNL     1      47.688   7.167  14.067  0.00  0.00    +0.000 HD
ENDBRANCH   1   8
BRANCH   4  12
ATOM     12  N   UNL     1      44.965   2.919  10.827  0.00  0.00    +0.000 N 
ATOM     13  H   UNL     1      44.404   2.354  11.459  0.00  0.00    +0.000 HD
BRANCH  12  14
ATOM     14  C   UNL     1      44.399   2.939   9.486  0.00  0.00    +0.000 C 
BRANCH  14  15
ATOM     15  C   UNL     1      45.454   2.605   8.461  0.00  0.00    +0.000 A 
ATOM     16  C   UNL     1      46.020   1.325   8.399  0.00  0.00    +0.000 A 
ATOM     17  C   UNL     1      46.942   1.011   7.400  0.00  0.00    +0.000 A 
ATOM     18  C   UNL     1      47.304   1.969   6.455  0.00  0.00    +0.000 A 
ATOM     19  C   UNL     1      46.749   3.245   6.509  0.00  0.00    +0.000 A 
ATOM     20  C   UNL     1      45.829   3.562   7.506  0.00  0.00    +0.000 A 
ENDBRANCH  14  15
ENDBRANCH  12  14
ENDBRANCH   4  12
TORSDOF 4
ENDMDL
MODEL 5
REMARK VINA RESULT:    -6.250      3.909      6.474
REMARK INTER + INTRA:          -8.080
REMARK INTER:                  -7.802
REMARK INTRA:                  -0.278
REMARK UNBOUND:                -0.368
REMARK  Name = 
REMARK  4 active torsions:
REMARK  status: ('A' for Active; 'I' for Inactive)
REMARK    1  A    between atoms: C_2  and  C_4
REMARK    2  A    between atoms: C_7  and  N_8
REMARK    3  A    between atoms: N_8  and  C_9
REMARK    4  A    between atoms: C_9  and  C_10
REMARK                            x       y       z     vdW  Elec       q    Type
REMARK                         _______ _______ _______ _____ _____    ______ ____
ROOT
ATOM      1  C   UNL     1      47.224   4.855  15.016  0.00  0.00    +0.000 A 
ATOM      2  C   UNL     1      47.694   6.000  14.393  0.00  0.00    +0.000 A 
ATOM      3  N   UNL     1      47.255   6.392  13.166  0.00  0.00    +0.000 NA
ATOM      4  C   UNL     1      46.298   5.638  12.589  0.00  0.00    +0.000 A 
ATOM      5  C   UNL     1      45.856   4.472  13.232  0.00  0.00    +0.000 A 
ATOM      6  N   UNL     1      46.290   4.049  14.446  0.00  0.00    +0.000 NA
ENDROOT
BRANCH   1   8
ATOM      7  N   UNL     1      47.210   5.069  17.425  0.00  0.00    +0.000 N 
ATOM      8  C   UNL     1      47.760   4.445  16.339  0.00  0.00    +0.000 C 
ATOM      9  O   UNL     1      48.625   3.583  16.457  0.00  0.00    +0.000 OA
ATOM     10  H   UNL     1      47.488   4.782  18.355  0.00  0.00    +0.000 HD
ATOM     11  H   UNL     1      46.443   5.724  17.303  0.00  0.00    +0.000 HD
ENDBRANCH   1   8
BRANCH   4  12
ATOM     12  N   UNL     1      45.862   6.040  11.329  0.00  0.00    +0.000 N 
ATOM     13  H   UNL     1      46.646   5.996  10.684  0.00  0.00    +0.000 HD
BRANCH  12  14
ATOM     14  C   UNL     1      44.693   5.355  10.794  0.00  0.00    +0.000 C 
BRANCH  14  15
ATOM     15  C   UNL     1      45.107   4.299   9.801  0.00  0.00    +0.000 A 
ATOM     16  C   UNL     1      44.742   2.958   9.980  0.00  0.00    +0.000 A 
ATOM     17  C   UNL     1      45.071   2.005   9.015  0.00  0.00    +0.000 A 
ATOM     18  C   UNL     1      45.764   2.382   7.865  0.00  0.00    +0.000 A 
ATOM     19  C   UNL     1      46.132   3.712   7.679  0.00  0.00    +0.000 A 
ATOM     20  C   UNL     1      45.806   4.666   8.641  0.00  0.00    +0.000 A 
ENDBRANCH  14  15
ENDBRANCH  12  14
ENDBRANCH   4  12
TORSDOF 4
ENDMDL
MODEL 6
REMARK VINA RESULT:    -5.748      4.086      5.793
REMARK INTER + INTRA:          -7.460
REMARK INTER:                  -7.159
REMARK INTRA:                  -0.302
REMARK UNBOUND:                -0.368
REMARK  Name = 
REMARK  4 active torsions:
REMARK  status: ('A' for Active; 'I' for Inactive)
REMARK    1  A    between atoms: C_2  and  C_4
REMARK    2  A    between atoms: C_7  and  N_8
REMARK    3  A    between atoms: N_8  and  C_9
REMARK    4  A    between atoms: C_9  and  C_10
REMARK                            x       y       z     vdW  Elec       q    Type
REMARK                         _______ _______ _______ _____ _____    ______ ____
ROOT
ATOM      1  C   UNL     1      45.029   4.240  11.876  0.00  0.00    +0.000 A 
ATOM      2  C   UNL     1      45.196   5.547  12.301  0.00  0.00    +0.000 A 
ATOM      3  N   UNL     1      45.952   5.867  13.386  0.00  0.00    +0.000 NA
ATOM      4  C   UNL     1      46.580   4.854  14.016  0.00  0.00    +0.000 A 
ATOM      5  C   UNL     1      46.375   3.538  13.577  0.00  0.00    +0.000 A 
ATOM      6  N   UNL     1      45.613   3.189  12.510  0.00  0.00    +0.000 NA
ENDROOT
BRANCH   1   8
ATOM      7  N   UNL     1      44.295   4.767   9.632  0.00  0.00    +0.000 N 
ATOM      8  C   UNL     1      44.164   3.932  10.708  0.00  0.00    +0.000 C 
ATOM      9  O   UNL     1      43.394   2.978  10.696  0.00  0.00    +0.000 OA
ATOM     10  H   UNL     1      43.781   4.567   8.784  0.00  0.00    +0.000 HD
ATOM     11  H   UNL     1      44.994   5.504   9.641  0.00  0.00    +0.000 HD
ENDBRANCH   1   8
BRANCH   4  12
ATOM     12  N   UNL     1      47.342   5.189  15.132  0.00  0.00    +0.000 N 
ATOM     13  H   UNL     1      47.151   6.157  15.378  0.00  0.00    +0.000 HD
BRANCH  12  14
ATOM     14  C   UNL     1      47.225   4.312  16.289  0.00  0.00    +0.000 C 
BRANCH  14  15
ATOM     15  C   UNL     1      48.583   3.817  16.718  0.00  0.00    +0.000 A 
ATOM     16  C   UNL     1      49.518   4.686  17.296  0.00  0.00    +0.000 A 
ATOM     17  C   UNL     1      50.742   4.198  17.753  0.00  0.00    +0.000 A 
ATOM     18  C   UNL     1      51.042   2.841  17.640  0.00  0.00    +0.000 A 
ATOM     19  C   UNL     1      50.120   1.970  17.066  0.00  0.00    +0.000 A 
ATOM     20  C   UNL     1      48.897   2.455  16.607  0.00  0.00    +0.000 A 
ENDBRANCH  14  15
ENDBRANCH  12  14
ENDBRANCH   4  12
TORSDOF 4
ENDMDL
MODEL 7
REMARK VINA RESULT:    -5.635      3.649      5.335
REMARK INTER + INTRA:          -7.322
REMARK INTER:                  -7.087
REMARK INTRA:                  -0.235
REMARK UNBOUND:                -0.368
REMARK  Name = 
REMARK  4 active torsions:
REMARK  status: ('A' for Active; 'I' for Inactive)
REMARK    1  A    between atoms: C_2  and  C_4
REMARK    2  A    between atoms: C_7  and  N_8
REMARK    3  A    between atoms: N_8  and  C_9
REMARK    4  A    between atoms: C_9  and  C_10
REMARK                            x       y       z     vdW  Elec       q    Type
REMARK                         _______ _______ _______ _____ _____    ______ ____
ROOT
ATOM      1  C   UNL     1      45.430   4.667  10.682  0.00  0.00    +0.000 A 
ATOM      2  C   UNL     1      45.163   3.542  11.445  0.00  0.00    +0.000 A 
ATOM      3  N   UNL     1      45.446   3.481  12.774  0.00  0.00    +0.000 NA
ATOM      4  C   UNL     1      45.964   4.589  13.341  0.00  0.00    +0.000 A 
ATOM      5  C   UNL     1      46.245   5.707  12.541  0.00  0.00    +0.000 A 
ATOM      6  N   UNL     1      45.988   5.788  11.211  0.00  0.00    +0.000 NA
ENDROOT
BRANCH   1   8
ATOM      7  N   UNL     1      43.863   4.332   8.870  0.00  0.00    +0.000 N 
ATOM      8  C   UNL     1      45.139   4.676   9.226  0.00  0.00    +0.000 C 
ATOM      9  O   UNL     1      45.979   4.993   8.391  0.00  0.00    +0.000 OA
ATOM     10  H   UNL     1      43.589   4.385   7.898  0.00  0.00    +0.000 HD
ATOM     11  H   UNL     1      43.167   4.146   9.586  0.00  0.00    +0.000 HD
ENDBRANCH   1   8
BRANCH   4  12
ATOM     12  N   UNL     1      46.262   4.515  14.699  0.00  0.00    +0.000 N 
ATOM     13  H   UNL     1      46.218   3.541  14.990  0.00  0.00    +0.000 HD
BRANCH  12  14
ATOM     14  C   UNL     1      47.503   5.144  15.130  0.00  0.00    +0.000 C 
BRANCH  14  15
ATOM     15  C   UNL     1      47.876   4.684  16.517  0.00  0.00    +0.000 A 
ATOM     16  C   UNL     1      47.609   3.375  16.939  0.00  0.00    +0.000 A 
ATOM     17  C   UNL     1      48.025   2.944  18.200  0.00  0.00    +0.000 A 
ATOM     18  C   UNL     1      48.711   3.813  19.046  0.00  0.00    +0.000 A 
ATOM     19  C   UNL     1      48.980   5.117  18.636  0.00  0.00    +0.000 A 
ATOM     20  C   UNL     1      48.565   5.550  17.378  0.00  0.00    +0.000 A 
ENDBRANCH  14  15
ENDBRANCH  12  14
ENDBRANCH   4  12
TORSDOF 4
ENDMDL
MODEL 8
REMARK VINA RESULT:    -5.561      4.754      7.081
REMARK INTER + INTRA:          -7.230
REMARK INTER:                  -6.917
REMARK INTRA:                  -0.313
REMARK UNBOUND:                -0.368
REMARK  Name = 
REMARK  4 active torsions:
REMARK  status: ('A' for Active; 'I' for Inactive)
REMARK    1  A    between atoms: C_2  and  C_4
REMARK    2  A    between atoms: C_7  and  N_8
REMARK    3  A    between atoms: N_8  and  C_9
REMARK    4  A    between atoms: C_9  and  C_10
REMARK                            x       y       z     vdW  Elec       q    Type
REMARK                         _______ _______ _______ _____ _____    ______ ____
ROOT
ATOM      1  C   UNL     1      48.401   5.814  15.475  0.00  0.00    +0.000 A 
ATOM      2  C   UNL     1      47.668   4.766  16.006  0.00  0.00    +0.000 A 
ATOM      3  N   UNL     1      46.750   4.078  15.274  0.00  0.00    +0.000 NA
ATOM      4  C   UNL     1      46.609   4.431  13.980  0.00  0.00    +0.000 A 
ATOM      5  C   UNL     1      47.349   5.510  13.475  0.00  0.00    +0.000 A 
ATOM      6  N   UNL     1      48.258   6.224  14.187  0.00  0.00    +0.000 NA
ENDROOT
BRANCH   1   8
ATOM      7  N   UNL     1      50.318   5.807  16.951  0.00  0.00    +0.000 N 
ATOM      8  C   UNL     1      49.366   6.562  16.322  0.00  0.00    +0.000 C 
ATOM      9  O   UNL     1      49.329   7.783  16.435  0.00  0.00    +0.000 OA
ATOM     10  H   UNL     1      51.041   6.268  17.487  0.00  0.00    +0.000 HD
ATOM     11  H   UNL     1      50.371   4.807  16.780  0.00  0.00    +0.000 HD
ENDBRANCH   1   8
BRANCH   4  12
ATOM     12  N   UNL     1      45.660   3.729  13.241  0.00  0.00    +0.000 N 
ATOM     13  H   UNL     1      45.141   3.122  13.870  0.00  0.00    +0.000 HD
BRANCH  12  14
ATOM     14  C   UNL     1      44.766   4.522  12.408  0.00  0.00    +0.000 C 
BRANCH  14  15
ATOM     15  C   UNL     1      44.911   4.136  10.958  0.00  0.00    +0.000 A 
ATOM     16  C   UNL     1      44.394   2.925  10.479  0.00  0.00    +0.000 A 
ATOM     17  C   UNL     1      44.473   2.614   9.121  0.00  0.00    +0.000 A 
ATOM     18  C   UNL     1      45.065   3.509   8.231  0.00  0.00    +0.000 A 
ATOM     19  C   UNL     1      45.583   4.715   8.698  0.00  0.00    +0.000 A 
ATOM     20  C   UNL     1      45.507   5.027  10.054  0.00  0.00    +0.000 A 
ENDBRANCH  14  15
ENDBRANCH  12  14
ENDBRANCH   4  12
TORSDOF 4
ENDMDL
MODEL 9
REMARK VINA RESULT:    -5.462      3.436      5.149
REMARK INTER + INTRA:          -7.108
REMARK INTER:                  -6.804
REMARK INTRA:                  -0.303
REMARK UNBOUND:                -0.368
REMARK  Name = 
REMARK  4 active torsions:
REMARK  status: ('A' for Active; 'I' for Inactive)
REMARK    1  A    between atoms: C_2  and  C_4
REMARK    2  A    between atoms: C_7  and  N_8
REMARK    3  A    between atoms: N_8  and  C_9
REMARK    4  A    between atoms: C_9  and  C_10
REMARK                            x       y       z     vdW  Elec       q    Type
REMARK                         _______ _______ _______ _____ _____    ______ ____
ROOT
ATOM      1  C   UNL     1      44.845   3.948  11.694  0.00  0.00    +0.000 A 
ATOM      2  C   UNL     1      44.905   5.204  11.114  0.00  0.00    +0.000 A 
ATOM      3  N   UNL     1      45.536   6.251  11.713  0.00  0.00    +0.000 NA
ATOM      4  C   UNL     1      46.148   6.006  12.889  0.00  0.00    +0.000 A 
ATOM      5  C   UNL     1      46.052   4.730  13.463  0.00  0.00    +0.000 A 
ATOM      6  N   UNL     1      45.414   3.674  12.897  0.00  0.00    +0.000 NA
ENDROOT
BRANCH   1   8
ATOM      7  N   UNL     1      44.750   2.264   9.961  0.00  0.00    +0.000 N 
ATOM      8  C   UNL     1      44.112   2.844  11.022  0.00  0.00    +0.000 C 
ATOM      9  O   UNL     1      43.013   2.457  11.407  0.00  0.00    +0.000 OA
ATOM     10  H   UNL     1      44.329   1.464   9.507  0.00  0.00    +0.000 HD
ATOM     11  H   UNL     1      45.691   2.553   9.711  0.00  0.00    +0.000 HD
ENDBRANCH   1   8
BRANCH   4  12
ATOM     12  N   UNL     1      46.782   7.084  13.500  0.00  0.00    +0.000 N 
ATOM     13  H   UNL     1      47.780   7.022  13.318  0.00  0.00    +0.000 HD
BRANCH  12  14
ATOM     14  C   UNL     1      46.265   8.409  13.183  0.00  0.00    +0.000 C 
BRANCH  14  15
ATOM     15  C   UNL     1      47.303   9.220  12.449  0.00  0.00    +0.000 A 
ATOM     16  C   UNL     1      48.590   8.714  12.227  0.00  0.00    +0.000 A 
ATOM     17  C   UNL     1      49.516   9.448  11.484  0.00  0.00    +0.000 A 
ATOM     18  C   UNL     1      49.165  10.690  10.957  0.00  0.00    +0.000 A 
ATOM     19  C   UNL     1      47.888  11.202  11.174  0.00  0.00    +0.000 A 
ATOM     20  C   UNL     1      46.962  10.472  11.916  0.00  0.00    +0.000 A 
ENDBRANCH  14  15
ENDBRANCH  12  14
ENDBRANCH   4  12
TORSDOF 4
ENDMDL
