MODEL 1
REMARK VINA RESULT:    -8.570      0.000      0.000
REMARK INTER + INTRA:         -10.970
REMARK INTER:                 -10.573
REMARK INTRA:                  -0.397
REMARK UNBOUND:                -0.397
REMARK  Name = 
REMARK  4 active torsions:
REMARK  status: ('A' for Active; 'I' for Inactive)
REMARK    1  A    between atoms: C_2  and  C_3
REMARK    2  A    between atoms: N_7  and  C_8
REMARK    3  A    between atoms: C_8  and  C_9
REMARK    4  A    between atoms: C_13  and  C_14
REMARK                            x       y       z     vdW  Elec       q    Type
REMARK                         _______ _______ _______ _____ _____    ______ ____
ROOT
ATOM      1  C   UNL     1      45.429   5.079  11.755  0.00  0.00    +0.000 A 
ATOM      2  C   UNL     1      45.772   6.318  11.196  0.00  0.00    +0.000 A 
ATOM      3  C   UNL     1      46.655   7.172  11.853  0.00  0.00    +0.000 A 
ATOM      4  C   UNL     1      47.231   6.784  13.065  0.00  0.00    +0.000 A 
ATOM      5  C   UNL     1      47.001   5.508  13.600  0.00  0.00    +0.000 A 
ATOM      6  C   UNL     1      46.143   4.653  12.890  0.00  0.00    +0.000 A 
ENDROOT
BRANCH   5   7
ATOM      7  C   UNL     1      47.486   5.107  14.936  0.00  0.00    +0.000 A 
ATOM      8  C   UNL     1      48.337   5.945  15.677  0.00  0.00    +0.000 A 
ATOM      9  C   UNL     1      48.705   5.618  16.981  0.00  0.00    +0.000 A 
ATOM     10  F   UNL     1      49.501   6.450  17.665  0.00  0.00    +0.000 F 
ATOM     11  C   UNL     1      48.241   4.464  17.590  0.00  0.00    +0.000 A 
ATOM     12  C   UNL     1      47.408   3.626  16.868  0.00  0.00    +0.000 A 
ATOM     13  F   UNL     1      46.931   2.514  17.444  0.00  0.00    +0.000 F 
ATOM     14  C   UNL     1      47.035   3.929  15.558  0.00  0.00    +0.000 A 
ENDBRANCH   5   7
BRANCH   1  15
ATOM     15  C   UNL     1      44.122   4.396  11.386  0.00  0.00    +0.000 C 
ATOM     16  C   UNL     1      43.015   4.185  12.396  0.00  0.00    +0.000 C 
ATOM     17  C   UNL     1      42.848   5.210  11.320  0.00  0.00    +0.000 C 
BRANCH  15  22
ATOM     18  C   UNL     1      46.736   2.661   7.201  0.00  0.00    +0.000 A 
ATOM     19  C   UNL     1      46.442   3.968   7.556  0.00  0.00    +0.000 A 
ATOM     20  C   UNL     1      45.690   4.216   8.705  0.00  0.00    +0.000 A 
ATOM     21  C   UNL     1      45.242   3.142   9.466  0.00  0.00    +0.000 A 
ATOM     22  N   UNL     1      44.346   3.236  10.520  0.00  0.00    +0.000 N 
ATOM     23  N   UNL     1      45.570   1.869   9.163  0.00  0.00    +0.000 NA
ATOM     24  C   UNL     1      46.294   1.643   8.044  0.00  0.00    +0.000 A 
ATOM     25  H   UNL     1      44.351   2.321  10.969  0.00  0.00    +0.000 HD
BRANCH  18  27
ATOM     26  N   UNL     1      47.996   2.025   5.029  0.00  0.00    +0.000 NA
ATOM     27  C   UNL     1      47.422   2.318   5.996  0.00  0.00    +0.000 C 
ENDBRANCH  18  27
ENDBRANCH  15  22
ENDBRANCH   1  15
TORSDOF 4
ENDMDL
MODEL 2
REMARK VINA RESULT:    -8.407      2.793      4.080
REMARK INTER + INTRA:         -10.770
REMARK INTER:                  -9.996
REMARK INTRA:                  -0.774
REMARK UNBOUND:                -0.397
REMARK  Name = 
REMARK  4 active torsions:
REMARK  status: ('A' for Active; 'I' for Inactive)
REMARK    1  A    between atoms: C_2  and  C_3
REMARK    2  A    between atoms: N_7  and  C_8
REMARK    3  A    between atoms: C_8  and  C_9
REMARK    4  A    between atoms: C_13  and  C_14
REMARK                            x       y       z     vdW  Elec       q    Type
REMARK                         _______ _______ _______ _____ _____    ______ ____
ROOT
ATOM      1  C   UNL     1      44.881   5.342  12.428  0.00  0.00    +0.000 A 
ATOM      2  C   UNL     1      45.353   4.267  13.195  0.00  0.00    +0.000 A 
ATOM      3  C   UNL     1      46.659   4.263  13.682  0.00  0.00    +0.000 A 
ATOM      4  C   UNL     1      47.501   5.350  13.433  0.00  0.00    +0.000 A 
ATOM      5  C   UNL     1      47.030   6.492  12.767  0.00  0.00    +0.000 A 
ATOM      6  C   UNL     1      45.696   6.484  12.330  0.00  0.00    +0.000 A 
ENDROOT
BRANCH   5   7
ATOM      7  C   UNL     1      47.919   7.605  12.374  0.00  0.00    +0.000 A 
ATOM      8  C   UNL     1      49.279   7.380  12.102  0.00  0.00    +0.000 A 
ATOM      9  C   UNL     1      50.092   8.408  11.624  0.00  0.00    +0.000 A 
ATOM     10  F   UNL     1      51.379   8.154  11.357  0.00  0.00    +0.000 F 
ATOM     11  C   UNL     1      49.585   9.676  11.396  0.00  0.00    +0.000 A 
ATOM     12  C   UNL     1      48.248   9.912  11.666  0.00  0.00    +0.000 A 
ATOM     13  F   UNL     1      47.732  11.125  11.433  0.00  0.00    +0.000 F 
ATOM     14  C   UNL     1      47.420   8.901  12.154  0.00  0.00    +0.000 A 
ENDBRANCH   5   7
BRANCH   1  15
ATOM     15  C   UNL     1      43.725   5.155  11.458  0.00  0.00    +0.000 C 
ATOM     16  C   UNL     1      42.294   5.447  11.851  0.00  0.00    +0.000 C 
ATOM     17  C   UNL     1      43.005   6.370  10.914  0.00  0.00    +0.000 C 
BRANCH  15  22
ATOM     18  C   UNL     1      46.513   2.824   7.696  0.00  0.00    +0.000 A 
ATOM     19  C   UNL     1      46.377   4.178   7.958  0.00  0.00    +0.000 A 
ATOM     20  C   UNL     1      45.544   4.598   8.996  0.00  0.00    +0.000 A 
ATOM     21  C   UNL     1      44.859   3.644   9.741  0.00  0.00    +0.000 A 
ATOM     22  N   UNL     1      43.873   3.926  10.675  0.00  0.00    +0.000 N 
ATOM     23  N   UNL     1      45.027   2.323   9.534  0.00  0.00    +0.000 NA
ATOM     24  C   UNL     1      45.833   1.931   8.522  0.00  0.00    +0.000 A 
ATOM     25  H   UNL     1      43.692   3.048  11.159  0.00  0.00    +0.000 HD
BRANCH  18  27
ATOM     26  N   UNL     1      47.907   1.893   5.722  0.00  0.00    +0.000 NA
ATOM     27  C   UNL     1      47.274   2.317   6.598  0.00  0.00    +0.000 C 
ENDBRANCH  18  27
ENDBRANCH  15  22
ENDBRANCH   1  15
TORSDOF 4
ENDMDL
MODEL 3
REMARK VINA RESULT:    -8.012      4.238      7.401
REMARK INTER + INTRA:         -10.282
REMARK INTER:                  -9.796
REMARK INTRA:                  -0.485
REMARK UNBOUND:                -0.397
REMARK  Name = 
REMARK  4 active torsions:
REMARK  status: ('A' for Active; 'I' for Inactive)
REMARK    1  A    between atoms: C_2  and  C_3
REMARK    2  A    between atoms: N_7  and  C_8
REMARK    3  A    between atoms: C_8  and  C_9
REMARK    4  A    between atoms: C_13  and  C_14
REMARK                            x       y       z     vdW  Elec       q    Type
REMARK                         _______ _______ _______ _____ _____    ______ ____
ROOT
ATOM      1  C   UNL     1      45.027   4.563  12.363  0.00  0.00    +0.000 A 
ATOM      2  C   UNL     1      43.828   5.281  12.243  0.00  0.00    +0.000 A 
ATOM      3  C   UNL     1      43.145   5.322  11.029  0.00  0.00    +0.000 A 
ATOM      4  C   UNL     1      43.637   4.620   9.927  0.00  0.00    +0.000 A 
ATOM      5  C   UNL     1      44.770   3.800  10.038  0.00  0.00    +0.000 A 
ATOM      6  C   UNL     1      45.409   3.743  11.287  0.00  0.00    +0.000 A 
ENDROOT
BRANCH   5   7
ATOM      7  C   UNL     1      45.394   3.144   8.870  0.00  0.00    +0.000 A 
ATOM      8  C   UNL     1      45.796   3.892   7.751  0.00  0.00    +0.000 A 
ATOM      9  C   UNL     1      46.484   3.291   6.698  0.00  0.00    +0.000 A 
ATOM     10  F   UNL     1      46.869   4.038   5.656  0.00  0.00    +0.000 F 
ATOM     11  C   UNL     1      46.798   1.943   6.724  0.00  0.00    +0.000 A 
ATOM     12  C   UNL     1      46.403   1.192   7.818  0.00  0.00    +0.000 A 
ATOM     13  F   UNL     1      46.714  -0.109   7.873  0.00  0.00    +0.000 F 
ATOM     14  C   UNL     1      45.704   1.772   8.878  0.00  0.00    +0.000 A 
ENDBRANCH   5   7
BRANCH   1  15
ATOM     15  C   UNL     1      46.043   4.924  13.435  0.00  0.00    +0.000 C 
ATOM     16  C   UNL     1      46.157   4.144  14.727  0.00  0.00    +0.000 C 
ATOM     17  C   UNL     1      47.221   4.006  13.684  0.00  0.00    +0.000 C 
BRANCH  15  22
ATOM     18  C   UNL     1      48.360   9.288  11.719  0.00  0.00    +0.000 A 
ATOM     19  C   UNL     1      48.782   7.974  11.583  0.00  0.00    +0.000 A 
ATOM     20  C   UNL     1      48.030   6.948  12.156  0.00  0.00    +0.000 A 
ATOM     21  C   UNL     1      46.875   7.268  12.861  0.00  0.00    +0.000 A 
ATOM     22  N   UNL     1      46.138   6.374  13.622  0.00  0.00    +0.000 N 
ATOM     23  N   UNL     1      46.423   8.535  12.950  0.00  0.00    +0.000 NA
ATOM     24  C   UNL     1      47.164   9.520  12.395  0.00  0.00    +0.000 A 
ATOM     25  H   UNL     1      45.278   6.862  13.866  0.00  0.00    +0.000 HD
BRANCH  18  27
ATOM     26  N   UNL     1      49.739  11.293  10.830  0.00  0.00    +0.000 NA
ATOM     27  C   UNL     1      49.117  10.400  11.240  0.00  0.00    +0.000 C 
ENDBRANCH  18  27
ENDBRANCH  15  22
ENDBRANCH   1  15
TORSDOF 4
ENDMDL
MODEL 4
REMARK VINA RESULT:    -7.470      4.288      8.321
REMARK INTER + INTRA:          -9.614
REMARK INTER:                  -8.932
REMARK INTRA:                  -0.682
REMARK UNBOUND:                -0.397
REMARK  Name = 
REMARK  4 active torsions:
REMARK  status: ('A' for Active; 'I' for Inactive)
REMARK    1  A    between atoms: C_2  and  C_3
REMARK    2  A    between atoms: N_7  and  C_8
REMARK    3  A    between atoms: C_8  and  C_9
REMARK    4  A    between atoms: C_13  and  C_14
REMARK                            x       y       z     vdW  Elec       q    Type
REMARK                         _______ _______ _______ _____ _____    ______ ____
ROOT
ATOM      1  C   UNL     1      47.423   7.649  12.507  0.00  0.00    +0.000 A 
ATOM      2  C   UNL     1      46.595   8.773  12.639  0.00  0.00    +0.000 A 
ATOM      3  C   UNL     1      45.310   8.774  12.100  0.00  0.00    +0.000 A 
ATOM      4  C   UNL     1      44.825   7.638  11.448  0.00  0.00    +0.000 A 
ATOM      5  C   UNL     1      45.580   6.456  11.395  0.00  0.00    +0.000 A 
ATOM      6  C   UNL     1      46.853   6.473  11.988  0.00  0.00    +0.000 A 
ENDROOT
BRANCH   5   7
ATOM      7  C   UNL     1      45.159   5.279  10.609  0.00  0.00    +0.000 A 
ATOM      8  C   UNL     1      45.603   5.096   9.289  0.00  0.00    +0.000 A 
ATOM      9  C   UNL     1      45.296   3.931   8.585  0.00  0.00    +0.000 A 
ATOM     10  F   UNL     1      45.753   3.782   7.336  0.00  0.00    +0.000 F 
ATOM     11  C   UNL     1      44.552   2.918   9.165  0.00  0.00    +0.000 A 
ATOM     12  C   UNL     1      44.102   3.089  10.464  0.00  0.00    +0.000 A 
ATOM     13  F   UNL     1      43.398   2.113  11.052  0.00  0.00    +0.000 F 
ATOM     14  C   UNL     1      44.389   4.250  11.182  0.00  0.00    +0.000 A 
ENDBRANCH   5   7
BRANCH   1  15
ATOM     15  C   UNL     1      48.936   7.787  12.576  0.00  0.00    +0.000 C 
ATOM     16  C   UNL     1      49.800   7.758  11.335  0.00  0.00    +0.000 C 
ATOM     17  C   UNL     1      49.593   9.049  12.061  0.00  0.00    +0.000 C 
BRANCH  15  22
ATOM     18  C   UNL     1      48.970   7.268  17.780  0.00  0.00    +0.000 A 
ATOM     19  C   UNL     1      48.615   8.374  17.024  0.00  0.00    +0.000 A 
ATOM     20  C   UNL     1      48.716   8.318  15.634  0.00  0.00    +0.000 A 
ATOM     21  C   UNL     1      49.181   7.152  15.036  0.00  0.00    +0.000 A 
ATOM     22  N   UNL     1      49.496   7.021  13.692  0.00  0.00    +0.000 N 
ATOM     23  N   UNL     1      49.474   6.050  15.756  0.00  0.00    +0.000 NA
ATOM     24  C   UNL     1      49.376   6.121  17.103  0.00  0.00    +0.000 A 
ATOM     25  H   UNL     1      49.641   6.025  13.538  0.00  0.00    +0.000 HD
BRANCH  18  27
ATOM     26  N   UNL     1      48.963   7.279  20.371  0.00  0.00    +0.000 NA
ATOM     27  C   UNL     1      48.980   7.274  19.209  0.00  0.00    +0.000 C 
ENDBRANCH  18  27
ENDBRANCH  15  22
ENDBRANCH   1  15
TORSDOF 4
ENDMDL
MODEL 5
REMARK VINA RESULT:    -7.423      4.309      8.432
REMARK INTER + INTRA:          -9.556
REMARK INTER:                  -8.882
REMARK INTRA:                  -0.674
REMARK UNBOUND:                -0.397
REMARK  Name = 
REMARK  4 active torsions:
REMARK  status: ('A' for Active; 'I' for Inactive)
REMARK    1  A    between atoms: C_2  and  C_3
REMARK    2  A    between atoms: N_7  and  C_8
REMARK    3  A    between atoms: C_8  and  C_9
REMARK    4  A    between atoms: C_13  and  C_14
REMARK                            x       y       z     vdW  Elec       q    Type
REMARK                         _______ _______ _______ _____ _____    ______ ____
ROOT
ATOM      1  C   UNL     1      47.428   7.605  12.557  0.00  0.00    +0.000 A 
ATOM      2  C   UNL     1      46.560   8.703  12.635  0.00  0.00    +0.000 A 
ATOM      3  C   UNL     1      45.288   8.642  12.069  0.00  0.00    +0.000 A 
ATOM      4  C   UNL     1      44.857   7.470  11.443  0.00  0.00    +0.000 A 
ATOM      5  C   UNL     1      45.652   6.314  11.445  0.00  0.00    +0.000 A 
ATOM      6  C   UNL     1      46.910   6.394  12.064  0.00  0.00    +0.000 A 
ENDROOT
BRANCH   5   7
ATOM      7  C   UNL     1      45.289   5.098  10.688  0.00  0.00    +0.000 A 
ATOM      8  C   UNL     1      44.516   4.085  11.280  0.00  0.00    +0.000 A 
ATOM      9  C   UNL     1      44.080   2.991  10.534  0.00  0.00    +0.000 A 
ATOM     10  F   UNL     1      43.328   2.053  11.125  0.00  0.00    +0.000 F 
ATOM     11  C   UNL     1      44.387   2.871   9.189  0.00  0.00    +0.000 A 
ATOM     12  C   UNL     1      45.153   3.860   8.596  0.00  0.00    +0.000 A 
ATOM     13  F   UNL     1      45.446   3.774   7.291  0.00  0.00    +0.000 F 
ATOM     14  C   UNL     1      45.609   4.957   9.326  0.00  0.00    +0.000 A 
ENDBRANCH   5   7
BRANCH   1  15
ATOM     15  C   UNL     1      48.933   7.797  12.653  0.00  0.00    +0.000 C 
ATOM     16  C   UNL     1      49.819   7.817  11.426  0.00  0.00    +0.000 C 
ATOM     17  C   UNL     1      49.553   9.089  12.165  0.00  0.00    +0.000 C 
BRANCH  15  22
ATOM     18  C   UNL     1      48.983   7.283  17.858  0.00  0.00    +0.000 A 
ATOM     19  C   UNL     1      48.616   8.385  17.101  0.00  0.00    +0.000 A 
ATOM     20  C   UNL     1      48.715   8.329  15.711  0.00  0.00    +0.000 A 
ATOM     21  C   UNL     1      49.190   7.166  15.113  0.00  0.00    +0.000 A 
ATOM     22  N   UNL     1      49.503   7.037  13.768  0.00  0.00    +0.000 N 
ATOM     23  N   UNL     1      49.494   6.068  15.834  0.00  0.00    +0.000 NA
ATOM     24  C   UNL     1      49.398   6.139  17.180  0.00  0.00    +0.000 A 
ATOM     25  H   UNL     1      49.657   6.042  13.615  0.00  0.00    +0.000 HD
BRANCH  18  27
ATOM     26  N   UNL     1      49.003   7.271  20.448  0.00  0.00    +0.000 NA
ATOM     27  C   UNL     1      48.995   7.290  19.286  0.00  0.00    +0.000 C 
ENDBRANCH  18  27
ENDBRANCH  15  22
ENDBRANCH   1  15
TORSDOF 4
ENDMDL
MODEL 6
REMARK VINA RESULT:    -7.346      4.642      7.534
REMARK INTER + INTRA:          -9.461
REMARK INTER:                  -8.637
REMARK INTRA:                  -0.824
REMARK UNBOUND:                -0.397
REMARK  Name = 
REMARK  4 active torsions:
REMARK  status: ('A' for Active; 'I' for Inactive)
REMARK    1  A    between atoms: C_2  and  C_3
REMARK    2  A    between atoms: N_7  and  C_8
REMARK    3  A    between atoms: C_8  and  C_9
REMARK    4  A    between atoms: C_13  and  C_14
REMARK                            x       y       z     vdW  Elec       q    Type
REMARK                         _______ _______ _______ _____ _____    ______ ____
ROOT
ATOM      1  C   UNL     1      44.465   5.146  11.777  0.00  0.00    +0.000 A 
ATOM      2  C   UNL     1      43.567   4.328  12.477  0.00  0.00    +0.000 A 
ATOM      3  C   UNL     1      43.275   3.043  12.023  0.00  0.00    +0.000 A 
ATOM      4  C   UNL     1      43.903   2.549  10.877  0.00  0.00    +0.000 A 
ATOM      5  C   UNL     1      44.890   3.293  10.214  0.00  0.00    +0.000 A 
ATOM      6  C   UNL     1      45.195   4.565  10.724  0.00  0.00    +0.000 A 
ENDROOT
BRANCH   5   7
ATOM      7  C   UNL     1      45.483   2.861   8.931  0.00  0.00    +0.000 A 
ATOM      8  C   UNL     1      45.809   3.797   7.936  0.00  0.00    +0.000 A 
ATOM      9  C   UNL     1      46.470   3.404   6.773  0.00  0.00    +0.000 A 
ATOM     10  F   UNL     1      46.783   4.326   5.854  0.00  0.00    +0.000 F 
ATOM     11  C   UNL     1      46.831   2.083   6.564  0.00  0.00    +0.000 A 
ATOM     12  C   UNL     1      46.510   1.150   7.535  0.00  0.00    +0.000 A 
ATOM     13  F   UNL     1      46.868  -0.129   7.364  0.00  0.00    +0.000 F 
ATOM     14  C   UNL     1      45.840   1.520   8.701  0.00  0.00    +0.000 A 
ENDBRANCH   5   7
BRANCH   1  15
ATOM     15  C   UNL     1      44.396   6.659  11.901  0.00  0.00    +0.000 C 
ATOM     16  C   UNL     1      44.425   7.565  10.689  0.00  0.00    +0.000 C 
ATOM     17  C   UNL     1      43.149   7.388  11.448  0.00  0.00    +0.000 C 
BRANCH  15  22
ATOM     18  C   UNL     1      49.240   8.037  13.313  0.00  0.00    +0.000 A 
ATOM     19  C   UNL     1      48.843   7.229  12.259  0.00  0.00    +0.000 A 
ATOM     20  C   UNL     1      47.488   6.950  12.078  0.00  0.00    +0.000 A 
ATOM     21  C   UNL     1      46.563   7.484  12.968  0.00  0.00    +0.000 A 
ATOM     22  N   UNL     1      45.218   7.147  13.010  0.00  0.00    +0.000 N 
ATOM     23  N   UNL     1      46.930   8.318  13.962  0.00  0.00    +0.000 NA
ATOM     24  C   UNL     1      48.246   8.575  14.128  0.00  0.00    +0.000 A 
ATOM     25  H   UNL     1      44.785   7.818  13.642  0.00  0.00    +0.000 HD
BRANCH  18  27
ATOM     26  N   UNL     1      51.732   8.496  13.851  0.00  0.00    +0.000 NA
ATOM     27  C   UNL     1      50.610   8.299  13.620  0.00  0.00    +0.000 C 
ENDBRANCH  18  27
ENDBRANCH  15  22
ENDBRANCH   1  15
TORSDOF 4
ENDMDL
MODEL 7
REMARK VINA RESULT:    -7.244      3.945      7.602
REMARK INTER + INTRA:          -9.334
REMARK INTER:                  -9.085
REMARK INTRA:                  -0.250
REMARK UNBOUND:                -0.397
REMARK  Name = 
REMARK  4 active torsions:
REMARK  status: ('A' for Active; 'I' for Inactive)
REMARK    1  A    between atoms: C_2  and  C_3
REMARK    2  A    between atoms: N_7  and  C_8
REMARK    3  A    between atoms: C_8  and  C_9
REMARK    4  A    between atoms: C_13  and  C_14
REMARK                            x       y       z     vdW  Elec       q    Type
REMARK                         _______ _______ _______ _____ _____    ______ ____
ROOT
ATOM      1  C   UNL     1      44.649   4.433  11.058  0.00  0.00    +0.000 A 
ATOM      2  C   UNL     1      44.972   5.787  10.897  0.00  0.00    +0.000 A 
ATOM      3  C   UNL     1      45.701   6.215   9.789  0.00  0.00    +0.000 A 
ATOM      4  C   UNL     1      46.091   5.296   8.812  0.00  0.00    +0.000 A 
ATOM      5  C   UNL     1      45.690   3.954   8.880  0.00  0.00    +0.000 A 
ATOM      6  C   UNL     1      44.916   3.564   9.985  0.00  0.00    +0.000 A 
ENDROOT
BRANCH   5   7
ATOM      7  C   UNL     1      46.184   2.928   7.939  0.00  0.00    +0.000 A 
ATOM      8  C   UNL     1      46.791   3.294   6.726  0.00  0.00    +0.000 A 
ATOM      9  C   UNL     1      47.356   2.332   5.890  0.00  0.00    +0.000 A 
ATOM     10  F   UNL     1      47.944   2.718   4.751  0.00  0.00    +0.000 F 
ATOM     11  C   UNL     1      47.343   0.989   6.230  0.00  0.00    +0.000 A 
ATOM     12  C   UNL     1      46.742   0.615   7.420  0.00  0.00    +0.000 A 
ATOM     13  F   UNL     1      46.736  -0.676   7.778  0.00  0.00    +0.000 F 
ATOM     14  C   UNL     1      46.161   1.560   8.265  0.00  0.00    +0.000 A 
ENDBRANCH   5   7
BRANCH   1  15
ATOM     15  C   UNL     1      44.364   3.862  12.438  0.00  0.00    +0.000 C 
ATOM     16  C   UNL     1      43.237   4.380  13.304  0.00  0.00    +0.000 C 
ATOM     17  C   UNL     1      43.116   3.035  12.660  0.00  0.00    +0.000 C 
BRANCH  15  22
ATOM     18  C   UNL     1      48.336   6.143  14.964  0.00  0.00    +0.000 A 
ATOM     19  C   UNL     1      47.494   6.687  14.007  0.00  0.00    +0.000 A 
ATOM     20  C   UNL     1      46.511   5.887  13.421  0.00  0.00    +0.000 A 
ATOM     21  C   UNL     1      46.405   4.555  13.805  0.00  0.00    +0.000 A 
ATOM     22  N   UNL     1      45.601   3.613  13.184  0.00  0.00    +0.000 N 
ATOM     23  N   UNL     1      47.179   4.030  14.777  0.00  0.00    +0.000 NA
ATOM     24  C   UNL     1      48.129   4.815  15.332  0.00  0.00    +0.000 A 
ATOM     25  H   UNL     1      45.614   2.795  13.790  0.00  0.00    +0.000 HD
BRANCH  18  27
ATOM     26  N   UNL     1      50.319   7.441  16.009  0.00  0.00    +0.000 NA
ATOM     27  C   UNL     1      49.421   6.867  15.547  0.00  0.00    +0.000 C 
ENDBRANCH  18  27
ENDBRANCH  15  22
ENDBRANCH   1  15
TORSDOF 4
ENDMDL
MODEL 8
REMARK VINA RESULT:    -6.818      3.575      5.487
REMARK INTER + INTRA:          -8.809
REMARK INTER:                  -7.829
REMARK INTRA:                  -0.980
REMARK UNBOUND:                -0.397
REMARK  Name = 
REMARK  4 active torsions:
REMARK  status: ('A' for Active; 'I' for Inactive)
REMARK    1  A    between atoms: C_2  and  C_3
REMARK    2  A    between atoms: N_7  and  C_8
REMARK    3  A    between atoms: C_8  and  C_9
REMARK    4  A    between atoms: C_13  and  C_14
REMARK                            x       y       z     vdW  Elec       q    Type
REMARK                         _______ _______ _______ _____ _____    ______ ____
ROOT
ATOM      1  C   UNL     1      49.005   8.375  14.351  0.00  0.00    +0.000 A 
ATOM      2  C   UNL     1      48.603   9.451  15.154  0.00  0.00    +0.000 A 
ATOM      3  C   UNL     1      48.357   9.268  16.513  0.00  0.00    +0.000 A 
ATOM      4  C   UNL     1      48.540   8.010  17.093  0.00  0.00    +0.000 A 
ATOM      5  C   UNL     1      49.050   6.937  16.347  0.00  0.00    +0.000 A 
ATOM      6  C   UNL     1      49.332   7.166  14.991  0.00  0.00    +0.000 A 
ENDROOT
BRANCH   5   7
ATOM      7  C   UNL     1      49.139   5.565  16.888  0.00  0.00    +0.000 A 
ATOM      8  C   UNL     1      48.006   4.735  16.939  0.00  0.00    +0.000 A 
ATOM      9  C   UNL     1      48.111   3.405  17.345  0.00  0.00    +0.000 A 
ATOM     10  F   UNL     1      47.015   2.638  17.363  0.00  0.00    +0.000 F 
ATOM     11  C   UNL     1      49.332   2.859  17.703  0.00  0.00    +0.000 A 
ATOM     12  C   UNL     1      50.455   3.668  17.662  0.00  0.00    +0.000 A 
ATOM     13  F   UNL     1      51.650   3.155  17.985  0.00  0.00    +0.000 F 
ATOM     14  C   UNL     1      50.370   5.004  17.269  0.00  0.00    +0.000 A 
ENDBRANCH   5   7
BRANCH   1  15
ATOM     15  C   UNL     1      48.756   8.390  12.851  0.00  0.00    +0.000 C 
ATOM     16  C   UNL     1      49.391   9.421  11.943  0.00  0.00    +0.000 C 
ATOM     17  C   UNL     1      49.875   8.007  11.906  0.00  0.00    +0.000 C 
BRANCH  15  22
ATOM     18  C   UNL     1      45.012   4.738  12.868  0.00  0.00    +0.000 A 
ATOM     19  C   UNL     1      46.388   4.566  12.874  0.00  0.00    +0.000 A 
ATOM     20  C   UNL     1      47.221   5.684  12.826  0.00  0.00    +0.000 A 
ATOM     21  C   UNL     1      46.650   6.951  12.764  0.00  0.00    +0.000 A 
ATOM     22  N   UNL     1      47.350   8.125  12.535  0.00  0.00    +0.000 N 
ATOM     23  N   UNL     1      45.315   7.134  12.816  0.00  0.00    +0.000 NA
ATOM     24  C   UNL     1      44.520   6.041  12.858  0.00  0.00    +0.000 A 
ATOM     25  H   UNL     1      46.690   8.880  12.714  0.00  0.00    +0.000 HD
BRANCH  18  27
ATOM     26  N   UNL     1      43.363   2.742  12.793  0.00  0.00    +0.000 NA
ATOM     27  C   UNL     1      44.092   3.645  12.826  0.00  0.00    +0.000 C 
ENDBRANCH  18  27
ENDBRANCH  15  22
ENDBRANCH   1  15
TORSDOF 4
ENDMDL
MODEL 9
REMARK VINA RESULT:    -6.631      2.706      4.726
REMARK INTER + INTRA:          -8.579
REMARK INTER:                  -7.987
REMARK INTRA:                  -0.591
REMARK UNBOUND:                -0.397
REMARK  Name = 
REMARK  4 active torsions:
REMARK  status: ('A' for Active; 'I' for Inactive)
REMARK    1  A    between atoms: C_2  and  C_3
REMARK    2  A    between atoms: N_7  and  C_8
REMARK    3  A    between atoms: C_8  and  C_9
REMARK    4  A    between atoms: C_13  and  C_14
REMARK                            x       y       z     vdW  Elec       q    Type
REMARK                         _______ _______ _______ _____ _____    ______ ____
ROOT
ATOM      1  C   UNL     1      48.888   7.622  13.427  0.00  0.00    +0.000 A 
ATOM      2  C   UNL     1      50.104   8.319  13.433  0.00  0.00    +0.000 A 
ATOM      3  C   UNL     1      50.982   8.204  14.510  0.00  0.00    +0.000 A 
ATOM      4  C   UNL     1      50.667   7.364  15.581  0.00  0.00    +0.000 A 
ATOM      5  C   UNL     1      49.515   6.564  15.559  0.00  0.00    +0.000 A 
ATOM      6  C   UNL     1      48.674   6.669  14.439  0.00  0.00    +0.000 A 
ENDROOT
BRANCH   5   7
ATOM      7  C   UNL     1      49.082   5.762  16.722  0.00  0.00    +0.000 A 
ATOM      8  C   UNL     1      48.090   4.776  16.590  0.00  0.00    +0.000 A 
ATOM      9  C   UNL     1      47.761   3.945  17.659  0.00  0.00    +0.000 A 
ATOM     10  F   UNL     1      46.825   3.002  17.492  0.00  0.00    +0.000 F 
ATOM     11  C   UNL     1      48.403   4.059  18.881  0.00  0.00    +0.000 A 
ATOM     12  C   UNL     1      49.378   5.031  19.026  0.00  0.00    +0.000 A 
ATOM     13  F   UNL     1      50.026   5.146  20.193  0.00  0.00    +0.000 F 
ATOM     14  C   UNL     1      49.716   5.880  17.972  0.00  0.00    +0.000 A 
ENDBRANCH   5   7
BRANCH   1  15
ATOM     15  C   UNL     1      47.714   8.116  12.598  0.00  0.00    +0.000 C 
ATOM     16  C   UNL     1      46.563   8.881  13.213  0.00  0.00    +0.000 C 
ATOM     17  C   UNL     1      47.549   9.600  12.349  0.00  0.00    +0.000 C 
BRANCH  15  22
ATOM     18  C   UNL     1      44.475   4.094  11.768  0.00  0.00    +0.000 A 
ATOM     19  C   UNL     1      44.921   4.610  12.975  0.00  0.00    +0.000 A 
ATOM     20  C   UNL     1      45.825   5.673  12.976  0.00  0.00    +0.000 A 
ATOM     21  C   UNL     1      46.266   6.187  11.762  0.00  0.00    +0.000 A 
ATOM     22  N   UNL     1      47.287   7.115  11.618  0.00  0.00    +0.000 N 
ATOM     23  N   UNL     1      45.795   5.733  10.582  0.00  0.00    +0.000 NA
ATOM     24  C   UNL     1      44.925   4.699  10.596  0.00  0.00    +0.000 A 
ATOM     25  H   UNL     1      47.257   7.410  10.643  0.00  0.00    +0.000 HD
BRANCH  18  27
ATOM     26  N   UNL     1      42.934   2.020  11.583  0.00  0.00    +0.000 NA
ATOM     27  C   UNL     1      43.621   2.952  11.679  0.00  0.00    +0.000 C 
ENDBRANCH  18  27
ENDBRANCH  15  22
ENDBRANCH   1  15
TORSDOF 4
ENDMDL
