MODEL 1
REMARK VINA RESULT:    -7.806      0.000      0.000
REMARK INTER + INTRA:         -12.857
REMARK INTER:                 -11.457
REMARK INTRA:                  -1.400
REMARK UNBOUND:                -1.400
REMARK  Name = 
REMARK  9 active torsions:
REMARK  status: ('A' for Active; 'I' for Inactive)
REMARK    1  A    between atoms: C_1  and  O_2
REMARK    2  A    between atoms: O_2  and  C_3
REMARK    3  A    between atoms: C_10  and  C_11
REMARK    4  A    between atoms: N_13  and  C_14
REMARK    5  A    between atoms: C_14  and  C_15
REMARK    6  A    between atoms: C_18  and  C_19
REMARK    7  A    between atoms: C_19  and  O_20
REMARK    8  A    between atoms: O_20  and  C_21
REMARK    9  A    between atoms: C_21  and  C_22
REMARK                            x       y       z     vdW  Elec       q    Type
REMARK                         _______ _______ _______ _____ _____    ______ ____
ROOT
ATOM      1  C   UNL     1      48.649   6.771  13.482  0.00  0.00    +0.000 C 
ENDROOT
BRANCH   1   2
ATOM      2  C   UNL     1      47.271   6.425  12.971  0.00  0.00    +0.000 A 
ATOM      3  C   UNL     1      46.715   7.110  11.882  0.00  0.00    +0.000 A 
ATOM      4  C   UNL     1      45.433   6.790  11.418  0.00  0.00    +0.000 A 
ATOM      5  C   UNL     1      44.673   5.789  12.039  0.00  0.00    +0.000 A 
ATOM      6  C   UNL     1      45.223   5.121  13.143  0.00  0.00    +0.000 A 
ATOM      7  C   UNL     1      46.504   5.439  13.606  0.00  0.00    +0.000 A 
BRANCH   5   8
ATOM      8  C   UNL     1      43.285   5.457  11.551  0.00  0.00    +0.000 C 
BRANCH   8   9
ATOM      9  O   UNL     1      43.363   4.861  10.258  0.00  0.00    +0.000 OA
BRANCH   9  10
ATOM     10  C   UNL     1      43.832   3.514  10.321  0.00  0.00    +0.000 C 
BRANCH  10  11
ATOM     11  C   UNL     1      44.874   3.286   9.261  0.00  0.00    +0.000 A 
ATOM     12  C   UNL     1      45.380   4.349   8.518  0.00  0.00    +0.000 A 
ATOM     13  N   UNL     1      46.295   4.220   7.529  0.00  0.00    +0.000 NA
ATOM     14  C   UNL     1      46.725   2.964   7.259  0.00  0.00    +0.000 A 
ATOM     15  C   UNL     1      46.272   1.837   7.926  0.00  0.00    +0.000 A 
ATOM     16 CL   UNL     1      46.856   0.276   7.519  0.00  0.00    +0.000 Cl
ATOM     17  C   UNL     1      45.328   2.001   8.933  0.00  0.00    +0.000 A 
ENDBRANCH  10  11
ENDBRANCH   9  10
ENDBRANCH   8   9
ENDBRANCH   5   8
ENDBRANCH   1   2
BRANCH   1  20
ATOM     18  C   UNL     1      49.746   7.224  15.643  0.00  0.00    +0.000 C 
ATOM     19  O   UNL     1      50.742   7.677  15.087  0.00  0.00    +0.000 OA
ATOM     20  N   UNL     1      48.683   6.753  14.923  0.00  0.00    +0.000 N 
ATOM     21  H   UNL     1      47.906   6.316  15.398  0.00  0.00    +0.000 HD
BRANCH  18  29
ATOM     22  C   UNL     1      48.956   4.719  17.869  0.00  0.00    +0.000 A 
ATOM     23  N   UNL     1      48.658   3.950  18.934  0.00  0.00    +0.000 NA
ATOM     24  C   UNL     1      48.689   4.515  20.143  0.00  0.00    +0.000 A 
ATOM     25  N   UNL     1      48.987   5.780  20.430  0.00  0.00    +0.000 NA
ATOM     26  C   UNL     1      49.283   6.510  19.341  0.00  0.00    +0.000 A 
ATOM     27  S   UNL     1      49.693   8.147  19.517  0.00  0.00    +0.000 S 
ATOM     28  C   UNL     1      49.885   8.331  17.838  0.00  0.00    +0.000 A 
ATOM     29  C   UNL     1      49.643   7.169  17.113  0.00  0.00    +0.000 A 
ATOM     30  C   UNL     1      49.294   6.076  18.019  0.00  0.00    +0.000 A 
BRANCH  22  32
ATOM     31  C   UNL     1      47.809   3.355  16.351  0.00  0.00    +0.000 C 
ATOM     32  O   UNL     1      48.979   4.122  16.627  0.00  0.00    +0.000 OA
ENDBRANCH  22  32
ENDBRANCH  18  29
ENDBRANCH   1  20
TORSDOF 8
ENDMDL
MODEL 2
REMARK VINA RESULT:    -7.333      1.924      2.909
REMARK INTER + INTRA:         -12.162
REMARK INTER:                 -10.975
REMARK INTRA:                  -1.187
REMARK UNBOUND:                -1.400
REMARK  Name = 
REMARK  9 active torsions:
REMARK  status: ('A' for Active; 'I' for Inactive)
REMARK    1  A    between atoms: C_1  and  O_2
REMARK    2  A    between atoms: O_2  and  C_3
REMARK    3  A    between atoms: C_10  and  C_11
REMARK    4  A    between atoms: N_13  and  C_14
REMARK    5  A    between atoms: C_14  and  C_15
REMARK    6  A    between atoms: C_18  and  C_19
REMARK    7  A    between atoms: C_19  and  O_20
REMARK    8  A    between atoms: O_20  and  C_21
REMARK    9  A    between atoms: C_21  and  C_22
REMARK                            x       y       z     vdW  Elec       q    Type
REMARK                         _______ _______ _______ _____ _____    ______ ____
ROOT
ATOM      1  C   UNL     1      48.604   6.647  14.077  0.00  0.00    +0.000 C 
ENDROOT
BRANCH   1   2
ATOM      2  C   UNL     1      47.413   6.195  13.268  0.00  0.00    +0.000 A 
ATOM      3  C   UNL     1      47.098   6.808  12.047  0.00  0.00    +0.000 A 
ATOM      4  C   UNL     1      45.986   6.390  11.305  0.00  0.00    +0.000 A 
ATOM      5  C   UNL     1      45.157   5.362  11.772  0.00  0.00    +0.000 A 
ATOM      6  C   UNL     1      45.460   4.767  13.005  0.00  0.00    +0.000 A 
ATOM      7  C   UNL     1      46.571   5.182  13.746  0.00  0.00    +0.000 A 
BRANCH   5   8
ATOM      8  C   UNL     1      43.948   4.924  10.982  0.00  0.00    +0.000 C 
BRANCH   8   9
ATOM      9  O   UNL     1      44.274   3.772  10.209  0.00  0.00    +0.000 OA
BRANCH   9  10
ATOM     10  C   UNL     1      44.486   4.098   8.835  0.00  0.00    +0.000 C 
BRANCH  10  11
ATOM     11  C   UNL     1      45.362   3.058   8.192  0.00  0.00    +0.000 A 
ATOM     12  C   UNL     1      45.505   1.795   8.761  0.00  0.00    +0.000 A 
ATOM     13  N   UNL     1      46.295   0.818   8.260  0.00  0.00    +0.000 NA
ATOM     14  C   UNL     1      46.988   1.115   7.134  0.00  0.00    +0.000 A 
ATOM     15  C   UNL     1      46.930   2.345   6.499  0.00  0.00    +0.000 A 
ATOM     16 CL   UNL     1      47.847   2.651   5.081  0.00  0.00    +0.000 Cl
ATOM     17  C   UNL     1      46.114   3.331   7.041  0.00  0.00    +0.000 A 
ENDBRANCH  10  11
ENDBRANCH   9  10
ENDBRANCH   8   9
ENDBRANCH   5   8
ENDBRANCH   1   2
BRANCH   1  20
ATOM     18  C   UNL     1      48.742   6.090  16.475  0.00  0.00    +0.000 C 
ATOM     19  O   UNL     1      49.524   5.170  16.256  0.00  0.00    +0.000 OA
ATOM     20  N   UNL     1      48.242   6.854  15.456  0.00  0.00    +0.000 N 
ATOM     21  H   UNL     1      47.543   7.556  15.650  0.00  0.00    +0.000 HD
BRANCH  18  29
ATOM     22  C   UNL     1      48.969   8.932  18.404  0.00  0.00    +0.000 A 
ATOM     23  N   UNL     1      48.949   9.876  19.366  0.00  0.00    +0.000 NA
ATOM     24  C   UNL     1      48.411   9.558  20.545  0.00  0.00    +0.000 A 
ATOM     25  N   UNL     1      47.875   8.391  20.894  0.00  0.00    +0.000 NA
ATOM     26  C   UNL     1      47.909   7.481  19.906  0.00  0.00    +0.000 A 
ATOM     27  S   UNL     1      47.265   5.933  20.170  0.00  0.00    +0.000 S 
ATOM     28  C   UNL     1      47.677   5.438  18.597  0.00  0.00    +0.000 A 
ATOM     29  C   UNL     1      48.308   6.423  17.844  0.00  0.00    +0.000 A 
ATOM     30  C   UNL     1      48.435   7.650  18.629  0.00  0.00    +0.000 A 
BRANCH  22  32
ATOM     31  C   UNL     1      48.650  10.201  16.464  0.00  0.00    +0.000 C 
ATOM     32  O   UNL     1      49.474   9.277  17.169  0.00  0.00    +0.000 OA
ENDBRANCH  22  32
ENDBRANCH  18  29
ENDBRANCH   1  20
TORSDOF 8
ENDMDL
MODEL 3
REMARK VINA RESULT:    -7.330      1.937      2.674
REMARK INTER + INTRA:         -12.159
REMARK INTER:                 -11.073
REMARK INTRA:                  -1.086
REMARK UNBOUND:                -1.400
REMARK  Name = 
REMARK  9 active torsions:
REMARK  status: ('A' for Active; 'I' for Inactive)
REMARK    1  A    between atoms: C_1  and  O_2
REMARK    2  A    between atoms: O_2  and  C_3
REMARK    3  A    between atoms: C_10  and  C_11
REMARK    4  A    between atoms: N_13  and  C_14
REMARK    5  A    between atoms: C_14  and  C_15
REMARK    6  A    between atoms: C_18  and  C_19
REMARK    7  A    between atoms: C_19  and  O_20
REMARK    8  A    between atoms: O_20  and  C_21
REMARK    9  A    between atoms: C_21  and  C_22
REMARK                            x       y       z     vdW  Elec       q    Type
REMARK                         _______ _______ _______ _____ _____    ______ ____
ROOT
ATOM      1  C   UNL     1      47.475   4.257  14.964  0.00  0.00    +0.000 C 
ENDROOT
BRANCH   1   2
ATOM      2  C   UNL     1      46.463   4.388  13.851  0.00  0.00    +0.000 A 
ATOM      3  C   UNL     1      45.912   5.634  13.523  0.00  0.00    +0.000 A 
ATOM      4  C   UNL     1      44.966   5.748  12.496  0.00  0.00    +0.000 A 
ATOM      5  C   UNL     1      44.542   4.618  11.783  0.00  0.00    +0.000 A 
ATOM      6  C   UNL     1      45.077   3.369  12.128  0.00  0.00    +0.000 A 
ATOM      7  C   UNL     1      46.022   3.256  13.153  0.00  0.00    +0.000 A 
BRANCH   5   8
ATOM      8  C   UNL     1      43.510   4.738  10.688  0.00  0.00    +0.000 C 
BRANCH   8   9
ATOM      9  O   UNL     1      43.740   3.732   9.704  0.00  0.00    +0.000 OA
BRANCH   9  10
ATOM     10  C   UNL     1      44.542   4.216   8.627  0.00  0.00    +0.000 C 
BRANCH  10  11
ATOM     11  C   UNL     1      45.401   3.105   8.090  0.00  0.00    +0.000 A 
ATOM     12  C   UNL     1      45.472   1.878   8.745  0.00  0.00    +0.000 A 
ATOM     13  N   UNL     1      46.243   0.842   8.342  0.00  0.00    +0.000 NA
ATOM     14  C   UNL     1      46.991   1.038   7.229  0.00  0.00    +0.000 A 
ATOM     15  C   UNL     1      47.007   2.226   6.515  0.00  0.00    +0.000 A 
ATOM     16 CL   UNL     1      47.991   2.403   5.120  0.00  0.00    +0.000 Cl
ATOM     17  C   UNL     1      46.209   3.274   6.957  0.00  0.00    +0.000 A 
ENDBRANCH  10  11
ENDBRANCH   9  10
ENDBRANCH   8   9
ENDBRANCH   5   8
ENDBRANCH   1   2
BRANCH   1  20
ATOM     18  C   UNL     1      48.640   5.728  16.562  0.00  0.00    +0.000 C 
ATOM     19  O   UNL     1      49.470   4.860  16.816  0.00  0.00    +0.000 OA
ATOM     20  N   UNL     1      47.628   5.503  15.670  0.00  0.00    +0.000 N 
ATOM     21  H   UNL     1      46.913   6.203  15.532  0.00  0.00    +0.000 HD
BRANCH  18  29
ATOM     22  C   UNL     1      47.817   6.886  19.697  0.00  0.00    +0.000 A 
ATOM     23  N   UNL     1      47.553   7.596  20.811  0.00  0.00    +0.000 NA
ATOM     24  C   UNL     1      47.784   8.911  20.785  0.00  0.00    +0.000 A 
ATOM     25  N   UNL     1      48.258   9.622  19.765  0.00  0.00    +0.000 NA
ATOM     26  C   UNL     1      48.513   8.875  18.678  0.00  0.00    +0.000 A 
ATOM     27  S   UNL     1      49.128   9.615  17.280  0.00  0.00    +0.000 S 
ATOM     28  C   UNL     1      49.152   8.134  16.445  0.00  0.00    +0.000 A 
ATOM     29  C   UNL     1      48.696   7.057  17.198  0.00  0.00    +0.000 A 
ATOM     30  C   UNL     1      48.326   7.504  18.540  0.00  0.00    +0.000 A 
BRANCH  22  32
ATOM     31  C   UNL     1      48.760   4.818  20.256  0.00  0.00    +0.000 C 
ATOM     32  O   UNL     1      47.631   5.521  19.742  0.00  0.00    +0.000 OA
ENDBRANCH  22  32
ENDBRANCH  18  29
ENDBRANCH   1  20
TORSDOF 8
ENDMDL
MODEL 4
REMARK VINA RESULT:    -7.293      2.235      3.849
REMARK INTER + INTRA:         -12.103
REMARK INTER:                 -10.781
REMARK INTRA:                  -1.322
REMARK UNBOUND:                -1.400
REMARK  Name = 
REMARK  9 active torsions:
REMARK  status: ('A' for Active; 'I' for Inactive)
REMARK    1  A    between atoms: C_1  and  O_2
REMARK    2  A    between atoms: O_2  and  C_3
REMARK    3  A    between atoms: C_10  and  C_11
REMARK    4  A    between atoms: N_13  and  C_14
REMARK    5  A    between atoms: C_14  and  C_15
REMARK    6  A    between atoms: C_18  and  C_19
REMARK    7  A    between atoms: C_19  and  O_20
REMARK    8  A    between atoms: O_20  and  C_21
REMARK    9  A    between atoms: C_21  and  C_22
REMARK                            x       y       z     vdW  Elec       q    Type
REMARK                         _______ _______ _______ _____ _____    ______ ____
ROOT
ATOM      1  C   UNL     1      47.405   4.616  14.878  0.00  0.00    +0.000 C 
ENDROOT
BRANCH   1   2
ATOM      2  C   UNL     1      46.363   4.602  13.786  0.00  0.00    +0.000 A 
ATOM      3  C   UNL     1      46.033   3.413  13.121  0.00  0.00    +0.000 A 
ATOM      4  C   UNL     1      45.072   3.408  12.102  0.00  0.00    +0.000 A 
ATOM      5  C   UNL     1      44.429   4.592  11.716  0.00  0.00    +0.000 A 
ATOM      6  C   UNL     1      44.778   5.784  12.367  0.00  0.00    +0.000 A 
ATOM      7  C   UNL     1      45.737   5.789  13.385  0.00  0.00    +0.000 A 
BRANCH   5   8
ATOM      8  C   UNL     1      43.407   4.590  10.606  0.00  0.00    +0.000 C 
BRANCH   8   9
ATOM      9  O   UNL     1      43.763   3.614   9.631  0.00  0.00    +0.000 OA
BRANCH   9  10
ATOM     10  C   UNL     1      44.614   4.156   8.622  0.00  0.00    +0.000 C 
BRANCH  10  11
ATOM     11  C   UNL     1      45.480   3.071   8.045  0.00  0.00    +0.000 A 
ATOM     12  C   UNL     1      45.578   1.830   8.669  0.00  0.00    +0.000 A 
ATOM     13  N   UNL     1      46.357   0.814   8.229  0.00  0.00    +0.000 NA
ATOM     14  C   UNL     1      47.084   1.048   7.110  0.00  0.00    +0.000 A 
ATOM     15  C   UNL     1      47.073   2.252   6.424  0.00  0.00    +0.000 A 
ATOM     16 CL   UNL     1      48.032   2.477   5.019  0.00  0.00    +0.000 Cl
ATOM     17  C   UNL     1      46.268   3.278   6.904  0.00  0.00    +0.000 A 
ENDBRANCH  10  11
ENDBRANCH   9  10
ENDBRANCH   8   9
ENDBRANCH   5   8
ENDBRANCH   1   2
BRANCH   1  20
ATOM     18  C   UNL     1      48.812   6.267  16.051  0.00  0.00    +0.000 C 
ATOM     19  O   UNL     1      49.523   5.384  16.522  0.00  0.00    +0.000 OA
ATOM     20  N   UNL     1      47.749   5.967  15.244  0.00  0.00    +0.000 N 
ATOM     21  H   UNL     1      47.133   6.703  14.929  0.00  0.00    +0.000 HD
BRANCH  18  29
ATOM     22  C   UNL     1      48.684   9.113  14.119  0.00  0.00    +0.000 A 
ATOM     23  N   UNL     1      48.743  10.353  13.596  0.00  0.00    +0.000 NA
ATOM     24  C   UNL     1      49.125  11.352  14.396  0.00  0.00    +0.000 A 
ATOM     25  N   UNL     1      49.460  11.268  15.680  0.00  0.00    +0.000 NA
ATOM     26  C   UNL     1      49.383  10.016  16.163  0.00  0.00    +0.000 A 
ATOM     27  S   UNL     1      49.772   9.720  17.788  0.00  0.00    +0.000 S 
ATOM     28  C   UNL     1      49.466   8.057  17.610  0.00  0.00    +0.000 A 
ATOM     29  C   UNL     1      49.069   7.691  16.328  0.00  0.00    +0.000 A 
ATOM     30  C   UNL     1      49.009   8.871  15.466  0.00  0.00    +0.000 A 
BRANCH  22  32
ATOM     31  C   UNL     1      48.904   8.040  12.050  0.00  0.00    +0.000 C 
ATOM     32  O   UNL     1      48.238   8.091  13.309  0.00  0.00    +0.000 OA
ENDBRANCH  22  32
ENDBRANCH  18  29
ENDBRANCH   1  20
TORSDOF 8
ENDMDL
MODEL 5
REMARK VINA RESULT:    -7.173      1.707      1.864
REMARK INTER + INTRA:         -11.928
REMARK INTER:                 -10.627
REMARK INTRA:                  -1.301
REMARK UNBOUND:                -1.400
REMARK  Name = 
REMARK  9 active torsions:
REMARK  status: ('A' for Active; 'I' for Inactive)
REMARK    1  A    between atoms: C_1  and  O_2
REMARK    2  A    between atoms: O_2  and  C_3
REMARK    3  A    between atoms: C_10  and  C_11
REMARK    4  A    between atoms: N_13  and  C_14
REMARK    5  A    between atoms: C_14  and  C_15
REMARK    6  A    between atoms: C_18  and  C_19
REMARK    7  A    between atoms: C_19  and  O_20
REMARK    8  A    between atoms: O_20  and  C_21
REMARK    9  A    between atoms: C_21  and  C_22
REMARK                            x       y       z     vdW  Elec       q    Type
REMARK                         _______ _______ _______ _____ _____    ______ ____
ROOT
ATOM      1  C   UNL     1      49.156   7.756  12.825  0.00  0.00    +0.000 C 
ENDROOT
BRANCH   1   2
ATOM      2  C   UNL     1      47.878   6.962  12.694  0.00  0.00    +0.000 A 
ATOM      3  C   UNL     1      46.933   7.276  11.708  0.00  0.00    +0.000 A 
ATOM      4  C   UNL     1      45.746   6.541  11.597  0.00  0.00    +0.000 A 
ATOM      5  C   UNL     1      45.471   5.485  12.477  0.00  0.00    +0.000 A 
ATOM      6  C   UNL     1      46.408   5.187  13.477  0.00  0.00    +0.000 A 
ATOM      7  C   UNL     1      47.594   5.920  13.587  0.00  0.00    +0.000 A 
BRANCH   5   8
ATOM      8  C   UNL     1      44.184   4.705  12.370  0.00  0.00    +0.000 C 
BRANCH   8   9
ATOM      9  O   UNL     1      43.774   4.645  11.006  0.00  0.00    +0.000 OA
BRANCH   9  10
ATOM     10  C   UNL     1      43.793   3.309  10.503  0.00  0.00    +0.000 C 
BRANCH  10  11
ATOM     11  C   UNL     1      44.814   3.191   9.405  0.00  0.00    +0.000 A 
ATOM     12  C   UNL     1      45.237   4.315   8.700  0.00  0.00    +0.000 A 
ATOM     13  N   UNL     1      46.127   4.286   7.682  0.00  0.00    +0.000 NA
ATOM     14  C   UNL     1      46.619   3.071   7.340  0.00  0.00    +0.000 A 
ATOM     15  C   UNL     1      46.250   1.890   7.963  0.00  0.00    +0.000 A 
ATOM     16 CL   UNL     1      46.908   0.386   7.465  0.00  0.00    +0.000 Cl
ATOM     17  C   UNL     1      45.329   1.951   9.002  0.00  0.00    +0.000 A 
ENDBRANCH  10  11
ENDBRANCH   9  10
ENDBRANCH   8   9
ENDBRANCH   5   8
ENDBRANCH   1   2
BRANCH   1  20
ATOM     18  C   UNL     1      50.365   7.720  14.974  0.00  0.00    +0.000 C 
ATOM     19  O   UNL     1      49.907   8.812  15.294  0.00  0.00    +0.000 OA
ATOM     20  N   UNL     1      50.049   7.141  13.775  0.00  0.00    +0.000 N 
ATOM     21  H   UNL     1      50.495   6.279  13.499  0.00  0.00    +0.000 HD
BRANCH  18  29
ATOM     22  C   UNL     1      49.852   5.470  17.529  0.00  0.00    +0.000 A 
ATOM     23  N   UNL     1      49.935   4.611  18.563  0.00  0.00    +0.000 NA
ATOM     24  C   UNL     1      51.149   4.306  19.027  0.00  0.00    +0.000 A 
ATOM     25  N   UNL     1      52.317   4.758  18.578  0.00  0.00    +0.000 NA
ATOM     26  C   UNL     1      52.189   5.607  17.544  0.00  0.00    +0.000 A 
ATOM     27  S   UNL     1      53.577   6.282  16.838  0.00  0.00    +0.000 S 
ATOM     28  C   UNL     1      52.643   7.166  15.726  0.00  0.00    +0.000 A 
ATOM     29  C   UNL     1      51.272   6.974  15.865  0.00  0.00    +0.000 A 
ATOM     30  C   UNL     1      51.005   6.029  16.948  0.00  0.00    +0.000 A 
BRANCH  22  32
ATOM     31  C   UNL     1      47.728   4.617  17.039  0.00  0.00    +0.000 C 
ATOM     32  O   UNL     1      48.602   5.743  17.014  0.00  0.00    +0.000 OA
ENDBRANCH  22  32
ENDBRANCH  18  29
ENDBRANCH   1  20
TORSDOF 8
ENDMDL
MODEL 6
REMARK VINA RESULT:    -6.832      2.866      4.702
REMARK INTER + INTRA:         -11.427
REMARK INTER:                 -10.098
REMARK INTRA:                  -1.329
REMARK UNBOUND:                -1.400
REMARK  Name = 
REMARK  9 active torsions:
REMARK  status: ('A' for Active; 'I' for Inactive)
REMARK    1  A    between atoms: C_1  and  O_2
REMARK    2  A    between atoms: O_2  and  C_3
REMARK    3  A    between atoms: C_10  and  C_11
REMARK    4  A    between atoms: N_13  and  C_14
REMARK    5  A    between atoms: C_14  and  C_15
REMARK    6  A    between atoms: C_18  and  C_19
REMARK    7  A    between atoms: C_19  and  O_20
REMARK    8  A    between atoms: O_20  and  C_21
REMARK    9  A    between atoms: C_21  and  C_22
REMARK                            x       y       z     vdW  Elec       q    Type
REMARK                         _______ _______ _______ _____ _____    ______ ____
ROOT
ATOM      1  C   UNL     1      47.470   5.489  14.784  0.00  0.00    +0.000 C 
ENDROOT
BRANCH   1   2
ATOM      2  C   UNL     1      46.432   5.267  13.711  0.00  0.00    +0.000 A 
ATOM      3  C   UNL     1      46.169   3.981  13.218  0.00  0.00    +0.000 A 
ATOM      4  C   UNL     1      45.211   3.783  12.216  0.00  0.00    +0.000 A 
ATOM      5  C   UNL     1      44.503   4.866  11.676  0.00  0.00    +0.000 A 
ATOM      6  C   UNL     1      44.784   6.153  12.154  0.00  0.00    +0.000 A 
ATOM      7  C   UNL     1      45.740   6.352  13.156  0.00  0.00    +0.000 A 
BRANCH   5   8
ATOM      8  C   UNL     1      43.484   4.655  10.583  0.00  0.00    +0.000 C 
BRANCH   8   9
ATOM      9  O   UNL     1      43.908   3.592   9.733  0.00  0.00    +0.000 OA
BRANCH   9  10
ATOM     10  C   UNL     1      44.560   4.078   8.560  0.00  0.00    +0.000 C 
BRANCH  10  11
ATOM     11  C   UNL     1      45.455   3.010   7.993  0.00  0.00    +0.000 A 
ATOM     12  C   UNL     1      45.573   1.772   8.620  0.00  0.00    +0.000 A 
ATOM     13  N   UNL     1      46.378   0.773   8.190  0.00  0.00    +0.000 NA
ATOM     14  C   UNL     1      47.111   1.021   7.078  0.00  0.00    +0.000 A 
ATOM     15  C   UNL     1      47.080   2.224   6.389  0.00  0.00    +0.000 A 
ATOM     16 CL   UNL     1      48.048   2.467   4.994  0.00  0.00    +0.000 Cl
ATOM     17  C   UNL     1      46.248   3.233   6.860  0.00  0.00    +0.000 A 
ENDBRANCH  10  11
ENDBRANCH   9  10
ENDBRANCH   8   9
ENDBRANCH   5   8
ENDBRANCH   1   2
BRANCH   1  20
ATOM     18  C   UNL     1      49.360   7.034  15.125  0.00  0.00    +0.000 C 
ATOM     19  O   UNL     1      49.197   7.028  16.341  0.00  0.00    +0.000 OA
ATOM     20  N   UNL     1      48.548   6.311  14.296  0.00  0.00    +0.000 N 
ATOM     21  H   UNL     1      48.652   6.389  13.294  0.00  0.00    +0.000 HD
BRANCH  18  29
ATOM     22  C   UNL     1      49.539   8.972  12.285  0.00  0.00    +0.000 A 
ATOM     23  N   UNL     1      49.889   9.744  11.238  0.00  0.00    +0.000 NA
ATOM     24  C   UNL     1      51.153  10.166  11.166  0.00  0.00    +0.000 A 
ATOM     25  N   UNL     1      52.135   9.911  12.027  0.00  0.00    +0.000 NA
ATOM     26  C   UNL     1      51.743   9.143  13.058  0.00  0.00    +0.000 A 
ATOM     27  S   UNL     1      52.864   8.719  14.259  0.00  0.00    +0.000 S 
ATOM     28  C   UNL     1      51.695   7.817  15.102  0.00  0.00    +0.000 A 
ATOM     29  C   UNL     1      50.442   7.815  14.497  0.00  0.00    +0.000 A 
ATOM     30  C   UNL     1      50.472   8.621  13.278  0.00  0.00    +0.000 A 
BRANCH  22  32
ATOM     31  C   UNL     1      47.351   9.644  12.771  0.00  0.00    +0.000 C 
ATOM     32  O   UNL     1      48.221   8.582  12.389  0.00  0.00    +0.000 OA
ENDBRANCH  22  32
ENDBRANCH  18  29
ENDBRANCH   1  20
TORSDOF 8
ENDMDL
MODEL 7
REMARK VINA RESULT:    -6.669      2.426      3.184
REMARK INTER + INTRA:         -11.188
REMARK INTER:                  -9.373
REMARK INTRA:                  -1.815
REMARK UNBOUND:                -1.400
REMARK  Name = 
REMARK  9 active torsions:
REMARK  status: ('A' for Active; 'I' for Inactive)
REMARK    1  A    between atoms: C_1  and  O_2
REMARK    2  A    between atoms: O_2  and  C_3
REMARK    3  A    between atoms: C_10  and  C_11
REMARK    4  A    between atoms: N_13  and  C_14
REMARK    5  A    between atoms: C_14  and  C_15
REMARK    6  A    between atoms: C_18  and  C_19
REMARK    7  A    between atoms: C_19  and  O_20
REMARK    8  A    between atoms: O_20  and  C_21
REMARK    9  A    between atoms: C_21  and  C_22
REMARK                            x       y       z     vdW  Elec       q    Type
REMARK                         _______ _______ _______ _____ _____    ______ ____
ROOT
ATOM      1  C   UNL     1      49.902   7.961  13.388  0.00  0.00    +0.000 C 
ENDROOT
BRANCH   1   2
ATOM      2  C   UNL     1      48.509   8.181  12.851  0.00  0.00    +0.000 A 
ATOM      3  C   UNL     1      47.869   9.420  12.995  0.00  0.00    +0.000 A 
ATOM      4  C   UNL     1      46.573   9.616  12.502  0.00  0.00    +0.000 A 
ATOM      5  C   UNL     1      45.883   8.576  11.866  0.00  0.00    +0.000 A 
ATOM      6  C   UNL     1      46.516   7.330  11.743  0.00  0.00    +0.000 A 
ATOM      7  C   UNL     1      47.811   7.135  12.234  0.00  0.00    +0.000 A 
BRANCH   5   8
ATOM      8  C   UNL     1      44.479   8.780  11.350  0.00  0.00    +0.000 C 
BRANCH   8   9
ATOM      9  O   UNL     1      44.030   7.592  10.705  0.00  0.00    +0.000 OA
BRANCH   9  10
ATOM     10  C   UNL     1      42.953   6.978  11.413  0.00  0.00    +0.000 C 
BRANCH  10  11
ATOM     11  C   UNL     1      43.239   5.515  11.614  0.00  0.00    +0.000 A 
ATOM     12  C   UNL     1      43.151   4.938  12.878  0.00  0.00    +0.000 A 
ATOM     13  N   UNL     1      43.421   3.639  13.143  0.00  0.00    +0.000 NA
ATOM     14  C   UNL     1      43.808   2.873  12.095  0.00  0.00    +0.000 A 
ATOM     15  C   UNL     1      43.945   3.353  10.802  0.00  0.00    +0.000 A 
ATOM     16 CL   UNL     1      44.452   2.323   9.527  0.00  0.00    +0.000 Cl
ATOM     17  C   UNL     1      43.666   4.693  10.562  0.00  0.00    +0.000 A 
ENDBRANCH  10  11
ENDBRANCH   9  10
ENDBRANCH   8   9
ENDBRANCH   5   8
ENDBRANCH   1   2
BRANCH   1  20
ATOM     18  C   UNL     1      49.674   7.338  15.763  0.00  0.00    +0.000 C 
ATOM     19  O   UNL     1      49.485   8.505  16.091  0.00  0.00    +0.000 OA
ATOM     20  N   UNL     1      49.894   6.994  14.457  0.00  0.00    +0.000 N 
ATOM     21  H   UNL     1      50.122   6.040  14.219  0.00  0.00    +0.000 HD
BRANCH  18  29
ATOM     22  C   UNL     1      47.748   4.514  16.165  0.00  0.00    +0.000 A 
ATOM     23  N   UNL     1      47.140   3.381  16.567  0.00  0.00    +0.000 NA
ATOM     24  C   UNL     1      47.582   2.795  17.683  0.00  0.00    +0.000 A 
ATOM     25  N   UNL     1      48.578   3.205  18.464  0.00  0.00    +0.000 NA
ATOM     26  C   UNL     1      49.160   4.334  18.024  0.00  0.00    +0.000 A 
ATOM     27  S   UNL     1      50.454   5.003  18.894  0.00  0.00    +0.000 S 
ATOM     28  C   UNL     1      50.592   6.293  17.795  0.00  0.00    +0.000 A 
ATOM     29  C   UNL     1      49.668   6.248  16.756  0.00  0.00    +0.000 A 
ATOM     30  C   UNL     1      48.819   5.065  16.890  0.00  0.00    +0.000 A 
BRANCH  22  32
ATOM     31  C   UNL     1      46.905   4.132  14.015  0.00  0.00    +0.000 C 
ATOM     32  O   UNL     1      47.328   5.087  14.984  0.00  0.00    +0.000 OA
ENDBRANCH  22  32
ENDBRANCH  18  29
ENDBRANCH   1  20
TORSDOF 8
ENDMDL
MODEL 8
REMARK VINA RESULT:    -6.179      3.661      8.394
REMARK INTER + INTRA:         -10.468
REMARK INTER:                  -8.673
REMARK INTRA:                  -1.795
REMARK UNBOUND:                -1.400
REMARK  Name = 
REMARK  9 active torsions:
REMARK  status: ('A' for Active; 'I' for Inactive)
REMARK    1  A    between atoms: C_1  and  O_2
REMARK    2  A    between atoms: O_2  and  C_3
REMARK    3  A    between atoms: C_10  and  C_11
REMARK    4  A    between atoms: N_13  and  C_14
REMARK    5  A    between atoms: C_14  and  C_15
REMARK    6  A    between atoms: C_18  and  C_19
REMARK    7  A    between atoms: C_19  and  O_20
REMARK    8  A    between atoms: O_20  and  C_21
REMARK    9  A    between atoms: C_21  and  C_22
REMARK                            x       y       z     vdW  Elec       q    Type
REMARK                         _______ _______ _______ _____ _____    ______ ____
ROOT
ATOM      1  C   UNL     1      48.247   8.748  14.123  0.00  0.00    +0.000 C 
ENDROOT
BRANCH   1   2
ATOM      2  C   UNL     1      48.689   8.575  15.556  0.00  0.00    +0.000 A 
ATOM      3  C   UNL     1      49.862   7.873  15.868  0.00  0.00    +0.000 A 
ATOM      4  C   UNL     1      50.261   7.709  17.200  0.00  0.00    +0.000 A 
ATOM      5  C   UNL     1      49.493   8.230  18.250  0.00  0.00    +0.000 A 
ATOM      6  C   UNL     1      48.309   8.913  17.936  0.00  0.00    +0.000 A 
ATOM      7  C   UNL     1      47.910   9.078  16.606  0.00  0.00    +0.000 A 
BRANCH   5   8
ATOM      8  C   UNL     1      49.914   8.038  19.686  0.00  0.00    +0.000 C 
BRANCH   8   9
ATOM      9  O   UNL     1      50.038   6.646  19.965  0.00  0.00    +0.000 OA
BRANCH   9  10
ATOM     10  C   UNL     1      48.769   6.034  20.191  0.00  0.00    +0.000 C 
BRANCH  10  11
ATOM     11  C   UNL     1      48.450   5.086  19.068  0.00  0.00    +0.000 A 
ATOM     12  C   UNL     1      47.192   5.087  18.470  0.00  0.00    +0.000 A 
ATOM     13  N   UNL     1      46.820   4.247  17.476  0.00  0.00    +0.000 NA
ATOM     14  C   UNL     1      47.747   3.353  17.058  0.00  0.00    +0.000 A 
ATOM     15  C   UNL     1      49.020   3.257  17.597  0.00  0.00    +0.000 A 
ATOM     16 CL   UNL     1      50.137   2.088  17.023  0.00  0.00    +0.000 Cl
ATOM     17  C   UNL     1      49.371   4.129  18.621  0.00  0.00    +0.000 A 
ENDBRANCH  10  11
ENDBRANCH   9  10
ENDBRANCH   8   9
ENDBRANCH   5   8
ENDBRANCH   1   2
BRANCH   1  20
ATOM     18  C   UNL     1      47.642   6.548  13.190  0.00  0.00    +0.000 C 
ATOM     19  O   UNL     1      48.816   6.282  12.951  0.00  0.00    +0.000 OA
ATOM     20  N   UNL     1      47.284   7.741  13.756  0.00  0.00    +0.000 N 
ATOM     21  H   UNL     1      46.308   7.970  13.874  0.00  0.00    +0.000 HD
BRANCH  18  29
ATOM     22  C   UNL     1      44.503   6.891  11.819  0.00  0.00    +0.000 A 
ATOM     23  N   UNL     1      43.248   6.747  11.348  0.00  0.00    +0.000 NA
ATOM     24  C   UNL     1      42.711   5.525  11.362  0.00  0.00    +0.000 A 
ATOM     25  N   UNL     1      43.281   4.403  11.793  0.00  0.00    +0.000 NA
ATOM     26  C   UNL     1      44.531   4.589  12.248  0.00  0.00    +0.000 A 
ATOM     27  S   UNL     1      45.415   3.265  12.835  0.00  0.00    +0.000 S 
ATOM     28  C   UNL     1      46.751   4.252  13.196  0.00  0.00    +0.000 A 
ATOM     29  C   UNL     1      46.559   5.594  12.885  0.00  0.00    +0.000 A 
ATOM     30  C   UNL     1      45.231   5.790  12.306  0.00  0.00    +0.000 A 
BRANCH  22  32
ATOM     31  C   UNL     1      44.266   9.098  11.076  0.00  0.00    +0.000 C 
ATOM     32  O   UNL     1      45.078   8.142  11.754  0.00  0.00    +0.000 OA
ENDBRANCH  22  32
ENDBRANCH  18  29
ENDBRANCH   1  20
TORSDOF 8
ENDMDL
MODEL 9
REMARK VINA RESULT:    -6.113      5.428      7.772
REMARK INTER + INTRA:         -10.372
REMARK INTER:                  -9.163
REMARK INTRA:                  -1.209
REMARK UNBOUND:                -1.400
REMARK  Name = 
REMARK  9 active torsions:
REMARK  status: ('A' for Active; 'I' for Inactive)
REMARK    1  A    between atoms: C_1  and  O_2
REMARK    2  A    between atoms: O_2  and  C_3
REMARK    3  A    between atoms: C_10  and  C_11
REMARK    4  A    between atoms: N_13  and  C_14
REMARK    5  A    between atoms: C_14  and  C_15
REMARK    6  A    between atoms: C_18  and  C_19
REMARK    7  A    between atoms: C_19  and  O_20
REMARK    8  A    between atoms: O_20  and  C_21
REMARK    9  A    between atoms: C_21  and  C_22
REMARK                            x       y       z     vdW  Elec       q    Type
REMARK                         _______ _______ _______ _____ _____    ______ ____
ROOT
ATOM      1  C   UNL     1      51.502   9.118  11.029  0.00  0.00    +0.000 C 
ENDROOT
BRANCH   1   2
ATOM      2  C   UNL     1      50.112   8.729  11.472  0.00  0.00    +0.000 A 
ATOM      3  C   UNL     1      49.783   7.388  11.712  0.00  0.00    +0.000 A 
ATOM      4  C   UNL     1      48.489   7.032  12.114  0.00  0.00    +0.000 A 
ATOM      5  C   UNL     1      47.493   8.006  12.272  0.00  0.00    +0.000 A 
ATOM      6  C   UNL     1      47.820   9.344  12.008  0.00  0.00    +0.000 A 
ATOM      7  C   UNL     1      49.112   9.700  11.608  0.00  0.00    +0.000 A 
BRANCH   5   8
ATOM      8  C   UNL     1      46.094   7.622  12.687  0.00  0.00    +0.000 C 
BRANCH   8   9
ATOM      9  O   UNL     1      45.832   6.277  12.293  0.00  0.00    +0.000 OA
BRANCH   9  10
ATOM     10  C   UNL     1      44.555   6.146  11.669  0.00  0.00    +0.000 C 
BRANCH  10  11
ATOM     11  C   UNL     1      44.543   4.934  10.778  0.00  0.00    +0.000 A 
ATOM     12  C   UNL     1      43.836   3.791  11.140  0.00  0.00    +0.000 A 
ATOM     13  N   UNL     1      43.800   2.653  10.408  0.00  0.00    +0.000 NA
ATOM     14  C   UNL     1      44.513   2.649   9.256  0.00  0.00    +0.000 A 
ATOM     15  C   UNL     1      45.264   3.727   8.815  0.00  0.00    +0.000 A 
ATOM     16 CL   UNL     1      46.152   3.643   7.349  0.00  0.00    +0.000 Cl
ATOM     17  C   UNL     1      45.286   4.880   9.591  0.00  0.00    +0.000 A 
ENDBRANCH  10  11
ENDBRANCH   9  10
ENDBRANCH   8   9
ENDBRANCH   5   8
ENDBRANCH   1   2
BRANCH   1  20
ATOM     18  C   UNL     1      53.552   8.004  10.232  0.00  0.00    +0.000 C 
ATOM     19  O   UNL     1      54.223   9.013  10.426  0.00  0.00    +0.000 OA
ATOM     20  N   UNL     1      52.210   7.982  10.496  0.00  0.00    +0.000 N 
ATOM     21  H   UNL     1      51.663   7.167  10.258  0.00  0.00    +0.000 HD
BRANCH  18  29
ATOM     22  C   UNL     1      52.979   6.087   7.430  0.00  0.00    +0.000 A 
ATOM     23  N   UNL     1      52.944   5.158   6.454  0.00  0.00    +0.000 NA
ATOM     24  C   UNL     1      53.783   4.124   6.544  0.00  0.00    +0.000 A 
ATOM     25  N   UNL     1      54.674   3.895   7.505  0.00  0.00    +0.000 NA
ATOM     26  C   UNL     1      54.680   4.847   8.454  0.00  0.00    +0.000 A 
ATOM     27  S   UNL     1      55.758   4.721   9.759  0.00  0.00    +0.000 S 
ATOM     28  C   UNL     1      55.174   6.163  10.445  0.00  0.00    +0.000 A 
ATOM     29  C   UNL     1      54.157   6.765   9.710  0.00  0.00    +0.000 A 
ATOM     30  C   UNL     1      53.873   5.978   8.511  0.00  0.00    +0.000 A 
BRANCH  22  32
ATOM     31  C   UNL     1      52.754   8.266   6.605  0.00  0.00    +0.000 C 
ATOM     32  O   UNL     1      52.151   7.183   7.309  0.00  0.00    +0.000 OA
ENDBRANCH  22  32
ENDBRANCH  18  29
ENDBRANCH   1  20
TORSDOF 8
ENDMDL
