MODEL 1
REMARK VINA RESULT:    -7.360      0.000      0.000
REMARK INTER + INTRA:         -10.490
REMARK INTER:                  -9.726
REMARK INTRA:                  -0.763
REMARK UNBOUND:                -0.763
REMARK  Name = 
REMARK  6 active torsions:
REMARK  status: ('A' for Active; 'I' for Inactive)
REMARK    1  A    between atoms: N_1  and  C_2
REMARK    2  A    between atoms: C_2  and  C_3
REMARK    3  A    between atoms: C_3  and  C_4
REMARK    4  A    between atoms: C_7  and  O_8
REMARK    5  A    between atoms: O_8  and  C_9
REMARK    6  A    between atoms: C_9  and  C_10
REMARK                            x       y       z     vdW  Elec       q    Type
REMARK                         _______ _______ _______ _____ _____    ______ ____
ROOT
ATOM      1  C   UNL     1      46.186   2.223   7.913  0.00  0.00    +0.000 A 
ATOM      2  C   UNL     1      46.195   3.615   7.755  0.00  0.00    +0.000 A 
ATOM      3  C   UNL     1      45.296   4.411   8.471  0.00  0.00    +0.000 A 
ATOM      4  C   UNL     1      44.377   3.826   9.342  0.00  0.00    +0.000 A 
ATOM      5  C   UNL     1      44.407   2.448   9.549  0.00  0.00    +0.000 A 
ATOM      6  C   UNL     1      45.300   1.650   8.833  0.00  0.00    +0.000 A 
ENDROOT
BRANCH   1   7
ATOM      7  C   UNL     1      47.113   1.345   7.112  0.00  0.00    +0.000 C 
BRANCH   7   8
ATOM      8  C   UNL     1      48.347   2.102   6.618  0.00  0.00    +0.000 C 
BRANCH   8   9
ATOM      9  N   UNL     1      48.353   2.183   5.157  0.00  0.00    +0.000 NA
ATOM     10  H   UNL     1      48.591   1.270   4.772  0.00  0.00    +0.000 HD
ATOM     11  H   UNL     1      49.089   2.821   4.854  0.00  0.00    +0.000 HD
ENDBRANCH   8   9
ENDBRANCH   7   8
ENDBRANCH   1   7
BRANCH   4  12
ATOM     12  O   UNL     1      43.493   4.685   9.939  0.00  0.00    +0.000 OA
BRANCH  12  13
ATOM     13  C   UNL     1      43.436   4.589  11.367  0.00  0.00    +0.000 C 
BRANCH  13  14
ATOM     14  C   UNL     1      44.654   5.211  11.998  0.00  0.00    +0.000 A 
ATOM     15  C   UNL     1      44.841   6.598  12.054  0.00  0.00    +0.000 A 
ATOM     16  C   UNL     1      45.941   7.137  12.726  0.00  0.00    +0.000 A 
ATOM     17  C   UNL     1      46.858   6.297  13.358  0.00  0.00    +0.000 A 
ATOM     18  C   UNL     1      46.676   4.917  13.319  0.00  0.00    +0.000 A 
ATOM     19  C   UNL     1      45.579   4.387  12.647  0.00  0.00    +0.000 A 
ATOM     20  F   UNL     1      45.404   3.057  12.646  0.00  0.00    +0.000 F 
ENDBRANCH  13  14
ENDBRANCH  12  13
ENDBRANCH   4  12
TORSDOF 6
ENDMDL
MODEL 2
REMARK VINA RESULT:    -7.315      1.271      2.042
REMARK INTER + INTRA:         -10.431
REMARK INTER:                  -9.901
REMARK INTRA:                  -0.530
REMARK UNBOUND:                -0.763
REMARK  Name = 
REMARK  6 active torsions:
REMARK  status: ('A' for Active; 'I' for Inactive)
REMARK    1  A    between atoms: N_1  and  C_2
REMARK    2  A    between atoms: C_2  and  C_3
REMARK    3  A    between atoms: C_3  and  C_4
REMARK    4  A    between atoms: C_7  and  O_8
REMARK    5  A    between atoms: O_8  and  C_9
REMARK    6  A    between atoms: C_9  and  C_10
REMARK                            x       y       z     vdW  Elec       q    Type
REMARK                         _______ _______ _______ _____ _____    ______ ____
ROOT
ATOM      1  C   UNL     1      46.002   3.192   7.963  0.00  0.00    +0.000 A 
ATOM      2  C   UNL     1      45.565   1.986   8.528  0.00  0.00    +0.000 A 
ATOM      3  C   UNL     1      44.586   1.989   9.524  0.00  0.00    +0.000 A 
ATOM      4  C   UNL     1      44.040   3.192   9.972  0.00  0.00    +0.000 A 
ATOM      5  C   UNL     1      44.426   4.388   9.369  0.00  0.00    +0.000 A 
ATOM      6  C   UNL     1      45.408   4.389   8.376  0.00  0.00    +0.000 A 
ENDROOT
BRANCH   1   7
ATOM      7  C   UNL     1      47.094   3.212   6.924  0.00  0.00    +0.000 C 
BRANCH   7   8
ATOM      8  C   UNL     1      47.865   1.891   6.867  0.00  0.00    +0.000 C 
BRANCH   8   9
ATOM      9  N   UNL     1      48.550   1.747   5.582  0.00  0.00    +0.000 NA
ATOM     10  H   UNL     1      48.924   0.803   5.505  0.00  0.00    +0.000 HD
ATOM     11  H   UNL     1      49.353   2.376   5.551  0.00  0.00    +0.000 HD
ENDBRANCH   8   9
ENDBRANCH   7   8
ENDBRANCH   1   7
BRANCH   4  12
ATOM     12  O   UNL     1      43.142   3.092  11.001  0.00  0.00    +0.000 OA
BRANCH  12  13
ATOM     13  C   UNL     1      43.730   2.913  12.295  0.00  0.00    +0.000 C 
BRANCH  13  14
ATOM     14  C   UNL     1      44.604   4.085  12.656  0.00  0.00    +0.000 A 
ATOM     15  C   UNL     1      45.992   3.964  12.806  0.00  0.00    +0.000 A 
ATOM     16  C   UNL     1      46.777   5.092  13.056  0.00  0.00    +0.000 A 
ATOM     17  C   UNL     1      46.186   6.353  13.147  0.00  0.00    +0.000 A 
ATOM     18  C   UNL     1      44.809   6.486  12.989  0.00  0.00    +0.000 A 
ATOM     19  C   UNL     1      44.033   5.359  12.741  0.00  0.00    +0.000 A 
ATOM     20  F   UNL     1      42.712   5.511  12.561  0.00  0.00    +0.000 F 
ENDBRANCH  13  14
ENDBRANCH  12  13
ENDBRANCH   4  12
TORSDOF 6
ENDMDL
MODEL 3
REMARK VINA RESULT:    -6.843      3.080      6.082
REMARK INTER + INTRA:          -9.806
REMARK INTER:                  -9.531
REMARK INTRA:                  -0.275
REMARK UNBOUND:                -0.763
REMARK  Name = 
REMARK  6 active torsions:
REMARK  status: ('A' for Active; 'I' for Inactive)
REMARK    1  A    between atoms: N_1  and  C_2
REMARK    2  A    between atoms: C_2  and  C_3
REMARK    3  A    between atoms: C_3  and  C_4
REMARK    4  A    between atoms: C_7  and  O_8
REMARK    5  A    between atoms: O_8  and  C_9
REMARK    6  A    between atoms: C_9  and  C_10
REMARK                            x       y       z     vdW  Elec       q    Type
REMARK                         _______ _______ _______ _____ _____    ______ ____
ROOT
ATOM      1  C   UNL     1      46.562   5.833  12.738  0.00  0.00    +0.000 A 
ATOM      2  C   UNL     1      46.181   6.342  11.489  0.00  0.00    +0.000 A 
ATOM      3  C   UNL     1      45.382   5.581  10.632  0.00  0.00    +0.000 A 
ATOM      4  C   UNL     1      44.963   4.305  11.007  0.00  0.00    +0.000 A 
ATOM      5  C   UNL     1      45.285   3.821  12.274  0.00  0.00    +0.000 A 
ATOM      6  C   UNL     1      46.087   4.577  13.131  0.00  0.00    +0.000 A 
ENDROOT
BRANCH   1   7
ATOM      7  C   UNL     1      47.465   6.618  13.654  0.00  0.00    +0.000 C 
BRANCH   7   8
ATOM      8  C   UNL     1      47.420   8.120  13.365  0.00  0.00    +0.000 C 
BRANCH   8   9
ATOM      9  N   UNL     1      47.149   8.874  14.590  0.00  0.00    +0.000 NA
ATOM     10  H   UNL     1      47.064   9.863  14.363  0.00  0.00    +0.000 HD
ATOM     11  H   UNL     1      47.944   8.794  15.223  0.00  0.00    +0.000 HD
ENDBRANCH   8   9
ENDBRANCH   7   8
ENDBRANCH   1   7
BRANCH   4  12
ATOM     12  O   UNL     1      44.245   3.614  10.068  0.00  0.00    +0.000 OA
BRANCH  12  13
ATOM     13  C   UNL     1      44.499   4.004   8.713  0.00  0.00    +0.000 C 
BRANCH  13  14
ATOM     14  C   UNL     1      45.543   3.120   8.084  0.00  0.00    +0.000 A 
ATOM     15  C   UNL     1      46.591   3.636   7.310  0.00  0.00    +0.000 A 
ATOM     16  C   UNL     1      47.588   2.791   6.817  0.00  0.00    +0.000 A 
ATOM     17  C   UNL     1      47.556   1.426   7.101  0.00  0.00    +0.000 A 
ATOM     18  C   UNL     1      46.525   0.904   7.879  0.00  0.00    +0.000 A 
ATOM     19  C   UNL     1      45.534   1.751   8.366  0.00  0.00    +0.000 A 
ATOM     20  F   UNL     1      44.566   1.235   9.138  0.00  0.00    +0.000 F 
ENDBRANCH  13  14
ENDBRANCH  12  13
ENDBRANCH   4  12
TORSDOF 6
ENDMDL
MODEL 4
REMARK VINA RESULT:    -6.623      2.983      5.969
REMARK INTER + INTRA:          -9.516
REMARK INTER:                  -8.959
REMARK INTRA:                  -0.556
REMARK UNBOUND:                -0.763
REMARK  Name = 
REMARK  6 active torsions:
REMARK  status: ('A' for Active; 'I' for Inactive)
REMARK    1  A    between atoms: N_1  and  C_2
REMARK    2  A    between atoms: C_2  and  C_3
REMARK    3  A    between atoms: C_3  and  C_4
REMARK    4  A    between atoms: C_7  and  O_8
REMARK    5  A    between atoms: O_8  and  C_9
REMARK    6  A    between atoms: C_9  and  C_10
REMARK                            x       y       z     vdW  Elec       q    Type
REMARK                         _______ _______ _______ _____ _____    ______ ____
ROOT
ATOM      1  C   UNL     1      46.460   4.931  13.150  0.00  0.00    +0.000 A 
ATOM      2  C   UNL     1      46.241   5.865  12.129  0.00  0.00    +0.000 A 
ATOM      3  C   UNL     1      45.467   5.524  11.017  0.00  0.00    +0.000 A 
ATOM      4  C   UNL     1      44.913   4.249  10.909  0.00  0.00    +0.000 A 
ATOM      5  C   UNL     1      45.075   3.338  11.952  0.00  0.00    +0.000 A 
ATOM      6  C   UNL     1      45.852   3.674  13.062  0.00  0.00    +0.000 A 
ENDROOT
BRANCH   1   7
ATOM      7  C   UNL     1      47.334   5.264  14.333  0.00  0.00    +0.000 C 
BRANCH   7   8
ATOM      8  C   UNL     1      47.069   4.345  15.527  0.00  0.00    +0.000 C 
BRANCH   8   9
ATOM      9  N   UNL     1      48.231   3.497  15.796  0.00  0.00    +0.000 NA
ATOM     10  H   UNL     1      47.989   2.815  16.512  0.00  0.00    +0.000 HD
ATOM     11  H   UNL     1      48.984   4.065  16.184  0.00  0.00    +0.000 HD
ENDBRANCH   8   9
ENDBRANCH   7   8
ENDBRANCH   1   7
BRANCH   4  12
ATOM     12  O   UNL     1      44.233   3.991   9.748  0.00  0.00    +0.000 OA
BRANCH  12  13
ATOM     13  C   UNL     1      44.444   2.681   9.209  0.00  0.00    +0.000 C 
BRANCH  13  14
ATOM     14  C   UNL     1      45.601   2.674   8.245  0.00  0.00    +0.000 A 
ATOM     15  C   UNL     1      46.125   3.852   7.697  0.00  0.00    +0.000 A 
ATOM     16  C   UNL     1      47.254   3.809   6.876  0.00  0.00    +0.000 A 
ATOM     17  C   UNL     1      47.877   2.591   6.602  0.00  0.00    +0.000 A 
ATOM     18  C   UNL     1      47.372   1.415   7.150  0.00  0.00    +0.000 A 
ATOM     19  C   UNL     1      46.247   1.465   7.967  0.00  0.00    +0.000 A 
ATOM     20  F   UNL     1      45.792   0.325   8.510  0.00  0.00    +0.000 F 
ENDBRANCH  13  14
ENDBRANCH  12  13
ENDBRANCH   4  12
TORSDOF 6
ENDMDL
MODEL 5
REMARK VINA RESULT:    -6.616      3.216      6.442
REMARK INTER + INTRA:          -9.507
REMARK INTER:                  -9.008
REMARK INTRA:                  -0.499
REMARK UNBOUND:                -0.763
REMARK  Name = 
REMARK  6 active torsions:
REMARK  status: ('A' for Active; 'I' for Inactive)
REMARK    1  A    between atoms: N_1  and  C_2
REMARK    2  A    between atoms: C_2  and  C_3
REMARK    3  A    between atoms: C_3  and  C_4
REMARK    4  A    between atoms: C_7  and  O_8
REMARK    5  A    between atoms: O_8  and  C_9
REMARK    6  A    between atoms: C_9  and  C_10
REMARK                            x       y       z     vdW  Elec       q    Type
REMARK                         _______ _______ _______ _____ _____    ______ ____
ROOT
ATOM      1  C   UNL     1      45.484   6.754  12.414  0.00  0.00    +0.000 A 
ATOM      2  C   UNL     1      45.603   6.593  11.027  0.00  0.00    +0.000 A 
ATOM      3  C   UNL     1      45.339   5.354  10.437  0.00  0.00    +0.000 A 
ATOM      4  C   UNL     1      44.963   4.266  11.223  0.00  0.00    +0.000 A 
ATOM      5  C   UNL     1      44.782   4.438  12.595  0.00  0.00    +0.000 A 
ATOM      6  C   UNL     1      45.049   5.673  13.188  0.00  0.00    +0.000 A 
ENDROOT
BRANCH   1   7
ATOM      7  C   UNL     1      45.814   8.069  13.073  0.00  0.00    +0.000 C 
BRANCH   7   8
ATOM      8  C   UNL     1      45.564   9.261  12.147  0.00  0.00    +0.000 C 
BRANCH   8   9
ATOM      9  N   UNL     1      44.376  10.004  12.568  0.00  0.00    +0.000 NA
ATOM     10  H   UNL     1      44.176  10.733  11.886  0.00  0.00    +0.000 HD
ATOM     11  H   UNL     1      44.567  10.482  13.449  0.00  0.00    +0.000 HD
ENDBRANCH   8   9
ENDBRANCH   7   8
ENDBRANCH   1   7
BRANCH   4  12
ATOM     12  O   UNL     1      44.799   3.079  10.559  0.00  0.00    +0.000 OA
BRANCH  12  13
ATOM     13  C   UNL     1      44.572   3.208   9.150  0.00  0.00    +0.000 C 
BRANCH  13  14
ATOM     14  C   UNL     1      45.676   2.551   8.364  0.00  0.00    +0.000 A 
ATOM     15  C   UNL     1      45.863   1.163   8.355  0.00  0.00    +0.000 A 
ATOM     16  C   UNL     1      46.844   0.586   7.544  0.00  0.00    +0.000 A 
ATOM     17  C   UNL     1      47.639   1.389   6.726  0.00  0.00    +0.000 A 
ATOM     18  C   UNL     1      47.454   2.770   6.718  0.00  0.00    +0.000 A 
ATOM     19  C   UNL     1      46.477   3.337   7.529  0.00  0.00    +0.000 A 
ATOM     20  F   UNL     1      46.293   4.665   7.486  0.00  0.00    +0.000 F 
ENDBRANCH  13  14
ENDBRANCH  12  13
ENDBRANCH   4  12
TORSDOF 6
ENDMDL
MODEL 6
REMARK VINA RESULT:    -5.545      3.872      6.859
REMARK INTER + INTRA:          -8.091
REMARK INTER:                  -7.485
REMARK INTRA:                  -0.606
REMARK UNBOUND:                -0.763
REMARK  Name = 
REMARK  6 active torsions:
REMARK  status: ('A' for Active; 'I' for Inactive)
REMARK    1  A    between atoms: N_1  and  C_2
REMARK    2  A    between atoms: C_2  and  C_3
REMARK    3  A    between atoms: C_3  and  C_4
REMARK    4  A    between atoms: C_7  and  O_8
REMARK    5  A    between atoms: O_8  and  C_9
REMARK    6  A    between atoms: C_9  and  C_10
REMARK                            x       y       z     vdW  Elec       q    Type
REMARK                         _______ _______ _______ _____ _____    ______ ____
ROOT
ATOM      1  C   UNL     1      47.847   5.177  15.536  0.00  0.00    +0.000 A 
ATOM      2  C   UNL     1      48.163   6.378  14.887  0.00  0.00    +0.000 A 
ATOM      3  C   UNL     1      47.684   6.630  13.599  0.00  0.00    +0.000 A 
ATOM      4  C   UNL     1      46.895   5.685  12.944  0.00  0.00    +0.000 A 
ATOM      5  C   UNL     1      46.525   4.518  13.610  0.00  0.00    +0.000 A 
ATOM      6  C   UNL     1      47.005   4.261  14.896  0.00  0.00    +0.000 A 
ENDROOT
BRANCH   1   7
ATOM      7  C   UNL     1      48.396   4.866  16.905  0.00  0.00    +0.000 C 
BRANCH   7   8
ATOM      8  C   UNL     1      47.288   4.643  17.937  0.00  0.00    +0.000 C 
BRANCH   8   9
ATOM      9  N   UNL     1      46.818   5.920  18.476  0.00  0.00    +0.000 NA
ATOM     10  H   UNL     1      45.823   6.020  18.281  0.00  0.00    +0.000 HD
ATOM     11  H   UNL     1      47.282   6.687  17.989  0.00  0.00    +0.000 HD
ENDBRANCH   8   9
ENDBRANCH   7   8
ENDBRANCH   1   7
BRANCH   4  12
ATOM     12  O   UNL     1      46.537   5.996  11.659  0.00  0.00    +0.000 OA
BRANCH  12  13
ATOM     13  C   UNL     1      45.176   5.698  11.327  0.00  0.00    +0.000 C 
BRANCH  13  14
ATOM     14  C   UNL     1      45.101   4.660  10.239  0.00  0.00    +0.000 A 
ATOM     15  C   UNL     1      45.644   4.870   8.966  0.00  0.00    +0.000 A 
ATOM     16  C   UNL     1      45.631   3.849   8.013  0.00  0.00    +0.000 A 
ATOM     17  C   UNL     1      45.085   2.604   8.326  0.00  0.00    +0.000 A 
ATOM     18  C   UNL     1      44.551   2.379   9.593  0.00  0.00    +0.000 A 
ATOM     19  C   UNL     1      44.568   3.401  10.537  0.00  0.00    +0.000 A 
ATOM     20  F   UNL     1      44.076   3.157  11.761  0.00  0.00    +0.000 F 
ENDBRANCH  13  14
ENDBRANCH  12  13
ENDBRANCH   4  12
TORSDOF 6
ENDMDL
MODEL 7
REMARK VINA RESULT:    -5.194      3.881      5.393
REMARK INTER + INTRA:          -7.627
REMARK INTER:                  -7.222
REMARK INTRA:                  -0.405
REMARK UNBOUND:                -0.763
REMARK  Name = 
REMARK  6 active torsions:
REMARK  status: ('A' for Active; 'I' for Inactive)
REMARK    1  A    between atoms: N_1  and  C_2
REMARK    2  A    between atoms: C_2  and  C_3
REMARK    3  A    between atoms: C_3  and  C_4
REMARK    4  A    between atoms: C_7  and  O_8
REMARK    5  A    between atoms: O_8  and  C_9
REMARK    6  A    between atoms: C_9  and  C_10
REMARK                            x       y       z     vdW  Elec       q    Type
REMARK                         _______ _______ _______ _____ _____    ______ ____
ROOT
ATOM      1  C   UNL     1      45.041   4.786  11.185  0.00  0.00    +0.000 A 
ATOM      2  C   UNL     1      45.773   5.940  11.497  0.00  0.00    +0.000 A 
ATOM      3  C   UNL     1      46.624   5.956  12.605  0.00  0.00    +0.000 A 
ATOM      4  C   UNL     1      46.745   4.829  13.417  0.00  0.00    +0.000 A 
ATOM      5  C   UNL     1      46.068   3.659  13.074  0.00  0.00    +0.000 A 
ATOM      6  C   UNL     1      45.214   3.640  11.970  0.00  0.00    +0.000 A 
ENDROOT
BRANCH   1   7
ATOM      7  C   UNL     1      44.081   4.765  10.023  0.00  0.00    +0.000 C 
BRANCH   7   8
ATOM      8  C   UNL     1      44.568   3.868   8.884  0.00  0.00    +0.000 C 
BRANCH   8   9
ATOM      9  N   UNL     1      45.502   4.590   8.020  0.00  0.00    +0.000 NA
ATOM     10  H   UNL     1      46.437   4.204   8.141  0.00  0.00    +0.000 HD
ATOM     11  H   UNL     1      45.555   5.565   8.315  0.00  0.00    +0.000 HD
ENDBRANCH   8   9
ENDBRANCH   7   8
ENDBRANCH   1   7
BRANCH   4  12
ATOM     12  O   UNL     1      47.547   4.971  14.518  0.00  0.00    +0.000 OA
BRANCH  12  13
ATOM     13  C   UNL     1      47.192   4.139  15.629  0.00  0.00    +0.000 C 
BRANCH  13  14
ATOM     14  C   UNL     1      48.063   4.431  16.822  0.00  0.00    +0.000 A 
ATOM     15  C   UNL     1      48.885   5.564  16.888  0.00  0.00    +0.000 A 
ATOM     16  C   UNL     1      49.611   5.844  18.048  0.00  0.00    +0.000 A 
ATOM     17  C   UNL     1      49.514   5.004  19.157  0.00  0.00    +0.000 A 
ATOM     18  C   UNL     1      48.691   3.881  19.107  0.00  0.00    +0.000 A 
ATOM     19  C   UNL     1      47.972   3.607  17.948  0.00  0.00    +0.000 A 
ATOM     20  F   UNL     1      47.162   2.538  17.929  0.00  0.00    +0.000 F 
ENDBRANCH  13  14
ENDBRANCH  12  13
ENDBRANCH   4  12
TORSDOF 6
ENDMDL
MODEL 8
REMARK VINA RESULT:    -5.120      4.776      6.793
REMARK INTER + INTRA:          -7.530
REMARK INTER:                  -6.990
REMARK INTRA:                  -0.540
REMARK UNBOUND:                -0.763
REMARK  Name = 
REMARK  6 active torsions:
REMARK  status: ('A' for Active; 'I' for Inactive)
REMARK    1  A    between atoms: N_1  and  C_2
REMARK    2  A    between atoms: C_2  and  C_3
REMARK    3  A    between atoms: C_3  and  C_4
REMARK    4  A    between atoms: C_7  and  O_8
REMARK    5  A    between atoms: O_8  and  C_9
REMARK    6  A    between atoms: C_9  and  C_10
REMARK                            x       y       z     vdW  Elec       q    Type
REMARK                         _______ _______ _______ _____ _____    ______ ____
ROOT
ATOM      1  C   UNL     1      45.487   5.772  12.321  0.00  0.00    +0.000 A 
ATOM      2  C   UNL     1      46.438   6.193  13.261  0.00  0.00    +0.000 A 
ATOM      3  C   UNL     1      47.128   5.255  14.034  0.00  0.00    +0.000 A 
ATOM      4  C   UNL     1      46.870   3.893  13.883  0.00  0.00    +0.000 A 
ATOM      5  C   UNL     1      45.972   3.466  12.906  0.00  0.00    +0.000 A 
ATOM      6  C   UNL     1      45.278   4.401  12.135  0.00  0.00    +0.000 A 
ENDROOT
BRANCH   1   7
ATOM      7  C   UNL     1      44.697   6.771  11.515  0.00  0.00    +0.000 C 
BRANCH   7   8
ATOM      8  C   UNL     1      45.310   8.172  11.566  0.00  0.00    +0.000 C 
BRANCH   8   9
ATOM      9  N   UNL     1      44.462   9.079  12.341  0.00  0.00    +0.000 NA
ATOM     10  H   UNL     1      43.679   9.381  11.764  0.00  0.00    +0.000 HD
ATOM     11  H   UNL     1      44.988   9.922  12.573  0.00  0.00    +0.000 HD
ENDBRANCH   8   9
ENDBRANCH   7   8
ENDBRANCH   1   7
BRANCH   4  12
ATOM     12  O   UNL     1      47.544   3.061  14.738  0.00  0.00    +0.000 OA
BRANCH  12  13
ATOM     13  C   UNL     1      47.510   3.460  16.113  0.00  0.00    +0.000 C 
BRANCH  13  14
ATOM     14  C   UNL     1      48.867   3.314  16.751  0.00  0.00    +0.000 A 
ATOM     15  C   UNL     1      49.560   2.096  16.763  0.00  0.00    +0.000 A 
ATOM     16  C   UNL     1      50.853   2.024  17.287  0.00  0.00    +0.000 A 
ATOM     17  C   UNL     1      51.470   3.167  17.793  0.00  0.00    +0.000 A 
ATOM     18  C   UNL     1      50.796   4.386  17.775  0.00  0.00    +0.000 A 
ATOM     19  C   UNL     1      49.508   4.451  17.253  0.00  0.00    +0.000 A 
ATOM     20  F   UNL     1      48.885   5.638  17.217  0.00  0.00    +0.000 F 
ENDBRANCH  13  14
ENDBRANCH  12  13
ENDBRANCH   4  12
TORSDOF 6
ENDMDL
MODEL 9
REMARK VINA RESULT:    -5.088      2.732      4.100
REMARK INTER + INTRA:          -7.487
REMARK INTER:                  -6.964
REMARK INTRA:                  -0.524
REMARK UNBOUND:                -0.763
REMARK  Name = 
REMARK  6 active torsions:
REMARK  status: ('A' for Active; 'I' for Inactive)
REMARK    1  A    between atoms: N_1  and  C_2
REMARK    2  A    between atoms: C_2  and  C_3
REMARK    3  A    between atoms: C_3  and  C_4
REMARK    4  A    between atoms: C_7  and  O_8
REMARK    5  A    between atoms: O_8  and  C_9
REMARK    6  A    between atoms: C_9  and  C_10
REMARK                            x       y       z     vdW  Elec       q    Type
REMARK                         _______ _______ _______ _____ _____    ______ ____
ROOT
ATOM      1  C   UNL     1      45.053   4.190   9.742  0.00  0.00    +0.000 A 
ATOM      2  C   UNL     1      44.771   3.110  10.591  0.00  0.00    +0.000 A 
ATOM      3  C   UNL     1      44.922   3.244  11.973  0.00  0.00    +0.000 A 
ATOM      4  C   UNL     1      45.362   4.448  12.521  0.00  0.00    +0.000 A 
ATOM      5  C   UNL     1      45.582   5.543  11.686  0.00  0.00    +0.000 A 
ATOM      6  C   UNL     1      45.436   5.412  10.304  0.00  0.00    +0.000 A 
ENDROOT
BRANCH   1   7
ATOM      7  C   UNL     1      44.945   4.049   8.245  0.00  0.00    +0.000 C 
BRANCH   7   8
ATOM      8  C   UNL     1      46.315   3.964   7.570  0.00  0.00    +0.000 C 
BRANCH   8   9
ATOM      9  N   UNL     1      46.308   2.953   6.512  0.00  0.00    +0.000 NA
ATOM     10  H   UNL     1      46.168   3.409   5.612  0.00  0.00    +0.000 HD
ATOM     11  H   UNL     1      45.512   2.328   6.642  0.00  0.00    +0.000 HD
ENDBRANCH   8   9
ENDBRANCH   7   8
ENDBRANCH   1   7
BRANCH   4  12
ATOM     12  O   UNL     1      45.547   4.454  13.878  0.00  0.00    +0.000 OA
BRANCH  12  13
ATOM     13  C   UNL     1      46.762   3.837  14.319  0.00  0.00    +0.000 C 
BRANCH  13  14
ATOM     14  C   UNL     1      47.385   4.618  15.446  0.00  0.00    +0.000 A 
ATOM     15  C   UNL     1      47.337   4.179  16.775  0.00  0.00    +0.000 A 
ATOM     16  C   UNL     1      48.003   4.888  17.779  0.00  0.00    +0.000 A 
ATOM     17  C   UNL     1      48.732   6.034  17.462  0.00  0.00    +0.000 A 
ATOM     18  C   UNL     1      48.797   6.473  16.142  0.00  0.00    +0.000 A 
ATOM     19  C   UNL     1      48.131   5.763  15.148  0.00  0.00    +0.000 A 
ATOM     20  F   UNL     1      48.229   6.184  13.878  0.00  0.00    +0.000 F 
ENDBRANCH  13  14
ENDBRANCH  12  13
ENDBRANCH   4  12
TORSDOF 6
ENDMDL
