MODEL 1
REMARK VINA RESULT:    -8.745      0.000      0.000
REMARK INTER + INTRA:         -13.367
REMARK INTER:                 -12.323
REMARK INTRA:                  -1.044
REMARK UNBOUND:                -1.044
REMARK  Name = 
REMARK  8 active torsions:
REMARK  status: ('A' for Active; 'I' for Inactive)
REMARK    1  A    between atoms: C_1  and  C_2
REMARK    2  A    between atoms: C_2  and  N_3
REMARK    3  A    between atoms: N_3  and  C_4
REMARK    4  A    between atoms: N_3  and  C_15
REMARK    5  A    between atoms: C_4  and  C_5
REMARK    6  A    between atoms: C_5  and  C_6
REMARK    7  A    between atoms: C_10  and  C_11
REMARK    8  A    between atoms: C_18  and  C_19
REMARK                            x       y       z     vdW  Elec       q    Type
REMARK                         _______ _______ _______ _____ _____    ______ ____
ROOT
ATOM      1  N   UNL     1      43.891   3.863  10.580  0.00  0.00    +0.000 N 
ENDROOT
BRANCH   1   2
ATOM      2  C   UNL     1      44.770   3.492   9.550  0.00  0.00    +0.000 A 
ATOM      3  C   UNL     1      45.437   4.440   8.750  0.00  0.00    +0.000 A 
ATOM      4  C   UNL     1      46.338   4.076   7.737  0.00  0.00    +0.000 A 
ATOM      5  C   UNL     1      46.608   2.731   7.483  0.00  0.00    +0.000 A 
ATOM      6  C   UNL     1      45.963   1.777   8.262  0.00  0.00    +0.000 A 
ATOM      7  F   UNL     1      46.186   0.466   8.076  0.00  0.00    +0.000 F 
ATOM      8  C   UNL     1      45.066   2.148   9.273  0.00  0.00    +0.000 A 
BRANCH   5   9
ATOM      9  C   UNL     1      47.564   2.396   6.399  0.00  0.00    +0.000 C 
ATOM     10  N   UNL     1      47.367   2.953   5.168  0.00  0.00    +0.000 N 
ATOM     11  O   UNL     1      48.511   1.640   6.590  0.00  0.00    +0.000 OA
ATOM     12  H   UNL     1      46.600   3.578   4.963  0.00  0.00    +0.000 HD
ATOM     13  H   UNL     1      48.026   2.727   4.434  0.00  0.00    +0.000 HD
ENDBRANCH   5   9
ENDBRANCH   1   2
BRANCH   1  15
ATOM     14  C   UNL     1      43.575   2.860  12.848  0.00  0.00    +0.000 C 
ATOM     15  C   UNL     1      43.211   2.818  11.369  0.00  0.00    +0.000 C 
ENDBRANCH   1  15
BRANCH   1  16
ATOM     16  C   UNL     1      43.353   5.242  10.564  0.00  0.00    +0.000 C 
BRANCH  16  17
ATOM     17  C   UNL     1      43.843   6.209  11.653  0.00  0.00    +0.000 C 
BRANCH  17  18
ATOM     18  C   UNL     1      45.296   6.166  12.078  0.00  0.00    +0.000 A 
ATOM     19  C   UNL     1      46.287   6.981  11.519  0.00  0.00    +0.000 A 
ATOM     20  C   UNL     1      47.596   6.954  12.011  0.00  0.00    +0.000 A 
ATOM     21  C   UNL     1      47.935   6.112  13.071  0.00  0.00    +0.000 A 
ATOM     22  C   UNL     1      46.962   5.286  13.640  0.00  0.00    +0.000 A 
ATOM     23  C   UNL     1      45.650   5.323  13.148  0.00  0.00    +0.000 A 
BRANCH  22  24
ATOM     24  C   UNL     1      47.255   4.395  14.795  0.00  0.00    +0.000 C 
ATOM     25  N   UNL     1      47.343   4.974  16.031  0.00  0.00    +0.000 N 
ATOM     26  O   UNL     1      47.432   3.195  14.653  0.00  0.00    +0.000 OA
ATOM     27  H   UNL     1      47.437   5.970  16.164  0.00  0.00    +0.000 HD
ATOM     28  H   UNL     1      47.623   4.367  16.791  0.00  0.00    +0.000 HD
ENDBRANCH  22  24
ENDBRANCH  17  18
ENDBRANCH  16  17
ENDBRANCH   1  16
TORSDOF 7
ENDMDL
MODEL 2
REMARK VINA RESULT:    -8.090      1.138      1.670
REMARK INTER + INTRA:         -12.444
REMARK INTER:                 -11.575
REMARK INTRA:                  -0.870
REMARK UNBOUND:                -1.044
REMARK  Name = 
REMARK  8 active torsions:
REMARK  status: ('A' for Active; 'I' for Inactive)
REMARK    1  A    between atoms: C_1  and  C_2
REMARK    2  A    between atoms: C_2  and  N_3
REMARK    3  A    between atoms: N_3  and  C_4
REMARK    4  A    between atoms: N_3  and  C_15
REMARK    5  A    between atoms: C_4  and  C_5
REMARK    6  A    between atoms: C_5  and  C_6
REMARK    7  A    between atoms: C_10  and  C_11
REMARK    8  A    between atoms: C_18  and  C_19
REMARK                            x       y       z     vdW  Elec       q    Type
REMARK                         _______ _______ _______ _____ _____    ______ ____
ROOT
ATOM      1  N   UNL     1      43.973   4.006  10.756  0.00  0.00    +0.000 N 
ENDROOT
BRANCH   1   2
ATOM      2  C   UNL     1      44.789   3.594   9.691  0.00  0.00    +0.000 A 
ATOM      3  C   UNL     1      45.461   4.508   8.856  0.00  0.00    +0.000 A 
ATOM      4  C   UNL     1      46.300   4.101   7.807  0.00  0.00    +0.000 A 
ATOM      5  C   UNL     1      46.499   2.745   7.548  0.00  0.00    +0.000 A 
ATOM      6  C   UNL     1      45.848   1.824   8.361  0.00  0.00    +0.000 A 
ATOM      7  F   UNL     1      46.004   0.503   8.171  0.00  0.00    +0.000 F 
ATOM      8  C   UNL     1      45.013   2.237   9.407  0.00  0.00    +0.000 A 
BRANCH   5   9
ATOM      9  C   UNL     1      47.390   2.364   6.425  0.00  0.00    +0.000 C 
ATOM     10  N   UNL     1      47.218   2.988   5.223  0.00  0.00    +0.000 N 
ATOM     11  O   UNL     1      48.263   1.513   6.559  0.00  0.00    +0.000 OA
ATOM     12  H   UNL     1      46.511   3.693   5.065  0.00  0.00    +0.000 HD
ATOM     13  H   UNL     1      47.833   2.731   4.462  0.00  0.00    +0.000 HD
ENDBRANCH   5   9
ENDBRANCH   1   2
BRANCH   1  15
ATOM     14  C   UNL     1      42.337   5.541  11.859  0.00  0.00    +0.000 C 
ATOM     15  C   UNL     1      43.252   5.290  10.667  0.00  0.00    +0.000 C 
ENDBRANCH   1  15
BRANCH   1  16
ATOM     16  C   UNL     1      44.192   3.373  12.076  0.00  0.00    +0.000 C 
BRANCH  16  17
ATOM     17  C   UNL     1      45.643   3.228  12.564  0.00  0.00    +0.000 C 
BRANCH  17  18
ATOM     18  C   UNL     1      46.397   4.462  13.013  0.00  0.00    +0.000 A 
ATOM     19  C   UNL     1      46.423   5.657  12.284  0.00  0.00    +0.000 A 
ATOM     20  C   UNL     1      47.069   6.789  12.791  0.00  0.00    +0.000 A 
ATOM     21  C   UNL     1      47.697   6.746  14.036  0.00  0.00    +0.000 A 
ATOM     22  C   UNL     1      47.688   5.561  14.777  0.00  0.00    +0.000 A 
ATOM     23  C   UNL     1      47.033   4.432  14.268  0.00  0.00    +0.000 A 
BRANCH  22  24
ATOM     24  C   UNL     1      48.310   5.465  16.125  0.00  0.00    +0.000 C 
ATOM     25  N   UNL     1      48.262   6.576  16.922  0.00  0.00    +0.000 N 
ATOM     26  O   UNL     1      48.861   4.444  16.509  0.00  0.00    +0.000 OA
ATOM     27  H   UNL     1      48.032   7.494  16.569  0.00  0.00    +0.000 HD
ATOM     28  H   UNL     1      48.760   6.519  17.802  0.00  0.00    +0.000 HD
ENDBRANCH  22  24
ENDBRANCH  17  18
ENDBRANCH  16  17
ENDBRANCH   1  16
TORSDOF 7
ENDMDL
MODEL 3
REMARK VINA RESULT:    -7.916      2.736      6.510
REMARK INTER + INTRA:         -12.198
REMARK INTER:                 -11.128
REMARK INTRA:                  -1.071
REMARK UNBOUND:                -1.044
REMARK  Name = 
REMARK  8 active torsions:
REMARK  status: ('A' for Active; 'I' for Inactive)
REMARK    1  A    between atoms: C_1  and  C_2
REMARK    2  A    between atoms: C_2  and  N_3
REMARK    3  A    between atoms: N_3  and  C_4
REMARK    4  A    between atoms: N_3  and  C_15
REMARK    5  A    between atoms: C_4  and  C_5
REMARK    6  A    between atoms: C_5  and  C_6
REMARK    7  A    between atoms: C_10  and  C_11
REMARK    8  A    between atoms: C_18  and  C_19
REMARK                            x       y       z     vdW  Elec       q    Type
REMARK                         _______ _______ _______ _____ _____    ______ ____
ROOT
ATOM      1  N   UNL     1      44.328   4.654  12.450  0.00  0.00    +0.000 N 
ENDROOT
BRANCH   1   2
ATOM      2  C   UNL     1      45.472   5.421  12.719  0.00  0.00    +0.000 A 
ATOM      3  C   UNL     1      45.804   6.568  11.972  0.00  0.00    +0.000 A 
ATOM      4  C   UNL     1      46.932   7.356  12.253  0.00  0.00    +0.000 A 
ATOM      5  C   UNL     1      47.781   7.019  13.307  0.00  0.00    +0.000 A 
ATOM      6  C   UNL     1      47.472   5.893  14.061  0.00  0.00    +0.000 A 
ATOM      7  F   UNL     1      48.244   5.520  15.095  0.00  0.00    +0.000 F 
ATOM      8  C   UNL     1      46.344   5.113  13.775  0.00  0.00    +0.000 A 
BRANCH   5   9
ATOM      9  C   UNL     1      48.963   7.879  13.563  0.00  0.00    +0.000 C 
ATOM     10  N   UNL     1      50.205   7.321  13.458  0.00  0.00    +0.000 N 
ATOM     11  O   UNL     1      48.843   9.064  13.860  0.00  0.00    +0.000 OA
ATOM     12  H   UNL     1      50.353   6.349  13.219  0.00  0.00    +0.000 HD
ATOM     13  H   UNL     1      51.007   7.913  13.626  0.00  0.00    +0.000 HD
ENDBRANCH   5   9
ENDBRANCH   1   2
BRANCH   1  15
ATOM     14  C   UNL     1      42.255   5.865  11.756  0.00  0.00    +0.000 C 
ATOM     15  C   UNL     1      43.003   5.148  12.872  0.00  0.00    +0.000 C 
ENDBRANCH   1  15
BRANCH   1  16
ATOM     16  C   UNL     1      44.518   3.217  12.149  0.00  0.00    +0.000 C 
BRANCH  16  17
ATOM     17  C   UNL     1      44.051   2.711  10.775  0.00  0.00    +0.000 C 
BRANCH  17  18
ATOM     18  C   UNL     1      44.887   3.024   9.551  0.00  0.00    +0.000 A 
ATOM     19  C   UNL     1      45.084   4.321   9.064  0.00  0.00    +0.000 A 
ATOM     20  C   UNL     1      45.934   4.556   7.979  0.00  0.00    +0.000 A 
ATOM     21  C   UNL     1      46.603   3.496   7.363  0.00  0.00    +0.000 A 
ATOM     22  C   UNL     1      46.415   2.192   7.830  0.00  0.00    +0.000 A 
ATOM     23  C   UNL     1      45.568   1.965   8.923  0.00  0.00    +0.000 A 
BRANCH  22  24
ATOM     24  C   UNL     1      47.128   1.029   7.237  0.00  0.00    +0.000 C 
ATOM     25  N   UNL     1      46.809  -0.214   7.710  0.00  0.00    +0.000 N 
ATOM     26  O   UNL     1      47.981   1.169   6.373  0.00  0.00    +0.000 OA
ATOM     27  H   UNL     1      46.294  -0.359   8.567  0.00  0.00    +0.000 HD
ATOM     28  H   UNL     1      47.360  -0.984   7.354  0.00  0.00    +0.000 HD
ENDBRANCH  22  24
ENDBRANCH  17  18
ENDBRANCH  16  17
ENDBRANCH   1  16
TORSDOF 7
ENDMDL
MODEL 4
REMARK VINA RESULT:    -7.849      1.880      2.600
REMARK INTER + INTRA:         -12.105
REMARK INTER:                 -11.188
REMARK INTRA:                  -0.917
REMARK UNBOUND:                -1.044
REMARK  Name = 
REMARK  8 active torsions:
REMARK  status: ('A' for Active; 'I' for Inactive)
REMARK    1  A    between atoms: C_1  and  C_2
REMARK    2  A    between atoms: C_2  and  N_3
REMARK    3  A    between atoms: N_3  and  C_4
REMARK    4  A    between atoms: N_3  and  C_15
REMARK    5  A    between atoms: C_4  and  C_5
REMARK    6  A    between atoms: C_5  and  C_6
REMARK    7  A    between atoms: C_10  and  C_11
REMARK    8  A    between atoms: C_18  and  C_19
REMARK                            x       y       z     vdW  Elec       q    Type
REMARK                         _______ _______ _______ _____ _____    ______ ____
ROOT
ATOM      1  N   UNL     1      43.996   3.999  10.763  0.00  0.00    +0.000 N 
ENDROOT
BRANCH   1   2
ATOM      2  C   UNL     1      44.800   3.577   9.693  0.00  0.00    +0.000 A 
ATOM      3  C   UNL     1      45.461   4.485   8.841  0.00  0.00    +0.000 A 
ATOM      4  C   UNL     1      46.288   4.069   7.786  0.00  0.00    +0.000 A 
ATOM      5  C   UNL     1      46.488   2.710   7.540  0.00  0.00    +0.000 A 
ATOM      6  C   UNL     1      45.849   1.796   8.369  0.00  0.00    +0.000 A 
ATOM      7  F   UNL     1      46.006   0.474   8.192  0.00  0.00    +0.000 F 
ATOM      8  C   UNL     1      45.025   2.218   9.421  0.00  0.00    +0.000 A 
BRANCH   5   9
ATOM      9  C   UNL     1      47.367   2.320   6.411  0.00  0.00    +0.000 C 
ATOM     10  N   UNL     1      47.179   2.929   5.203  0.00  0.00    +0.000 N 
ATOM     11  O   UNL     1      48.246   1.474   6.544  0.00  0.00    +0.000 OA
ATOM     12  H   UNL     1      46.466   3.629   5.045  0.00  0.00    +0.000 HD
ATOM     13  H   UNL     1      47.786   2.665   4.439  0.00  0.00    +0.000 HD
ENDBRANCH   5   9
ENDBRANCH   1   2
BRANCH   1  15
ATOM     14  C   UNL     1      42.354   5.536  11.853  0.00  0.00    +0.000 C 
ATOM     15  C   UNL     1      43.303   5.299  10.685  0.00  0.00    +0.000 C 
ENDBRANCH   1  15
BRANCH   1  16
ATOM     16  C   UNL     1      44.203   3.351  12.078  0.00  0.00    +0.000 C 
BRANCH  16  17
ATOM     17  C   UNL     1      45.651   3.183  12.567  0.00  0.00    +0.000 C 
BRANCH  17  18
ATOM     18  C   UNL     1      46.351   4.360  13.215  0.00  0.00    +0.000 A 
ATOM     19  C   UNL     1      47.020   4.279  14.441  0.00  0.00    +0.000 A 
ATOM     20  C   UNL     1      47.719   5.380  14.948  0.00  0.00    +0.000 A 
ATOM     21  C   UNL     1      47.760   6.579  14.236  0.00  0.00    +0.000 A 
ATOM     22  C   UNL     1      47.093   6.683  13.012  0.00  0.00    +0.000 A 
ATOM     23  C   UNL     1      46.401   5.575  12.505  0.00  0.00    +0.000 A 
BRANCH  22  24
ATOM     24  C   UNL     1      47.131   7.924  12.192  0.00  0.00    +0.000 C 
ATOM     25  N   UNL     1      48.361   8.401  11.827  0.00  0.00    +0.000 N 
ATOM     26  O   UNL     1      46.111   8.513  11.868  0.00  0.00    +0.000 OA
ATOM     27  H   UNL     1      49.219   8.090  12.258  0.00  0.00    +0.000 HD
ATOM     28  H   UNL     1      48.371   9.287  11.340  0.00  0.00    +0.000 HD
ENDBRANCH  22  24
ENDBRANCH  17  18
ENDBRANCH  16  17
ENDBRANCH   1  16
TORSDOF 7
ENDMDL
MODEL 5
REMARK VINA RESULT:    -7.788      2.242      2.817
REMARK INTER + INTRA:         -12.018
REMARK INTER:                 -10.870
REMARK INTRA:                  -1.148
REMARK UNBOUND:                -1.044
REMARK  Name = 
REMARK  8 active torsions:
REMARK  status: ('A' for Active; 'I' for Inactive)
REMARK    1  A    between atoms: C_1  and  C_2
REMARK    2  A    between atoms: C_2  and  N_3
REMARK    3  A    between atoms: N_3  and  C_4
REMARK    4  A    between atoms: N_3  and  C_15
REMARK    5  A    between atoms: C_4  and  C_5
REMARK    6  A    between atoms: C_5  and  C_6
REMARK    7  A    between atoms: C_10  and  C_11
REMARK    8  A    between atoms: C_18  and  C_19
REMARK                            x       y       z     vdW  Elec       q    Type
REMARK                         _______ _______ _______ _____ _____    ______ ____
ROOT
ATOM      1  N   UNL     1      44.175   4.174  10.837  0.00  0.00    +0.000 N 
ENDROOT
BRANCH   1   2
ATOM      2  C   UNL     1      44.930   3.759   9.729  0.00  0.00    +0.000 A 
ATOM      3  C   UNL     1      45.563   4.672   8.863  0.00  0.00    +0.000 A 
ATOM      4  C   UNL     1      46.343   4.262   7.770  0.00  0.00    +0.000 A 
ATOM      5  C   UNL     1      46.520   2.905   7.499  0.00  0.00    +0.000 A 
ATOM      6  C   UNL     1      45.908   1.986   8.342  0.00  0.00    +0.000 A 
ATOM      7  F   UNL     1      46.046   0.665   8.143  0.00  0.00    +0.000 F 
ATOM      8  C   UNL     1      45.132   2.402   9.432  0.00  0.00    +0.000 A 
BRANCH   5   9
ATOM      9  C   UNL     1      47.349   2.522   6.329  0.00  0.00    +0.000 C 
ATOM     10  N   UNL     1      48.585   1.989   6.559  0.00  0.00    +0.000 N 
ATOM     11  O   UNL     1      46.946   2.672   5.180  0.00  0.00    +0.000 OA
ATOM     12  H   UNL     1      48.960   1.849   7.488  0.00  0.00    +0.000 HD
ATOM     13  H   UNL     1      49.143   1.722   5.759  0.00  0.00    +0.000 HD
ENDBRANCH   5   9
ENDBRANCH   1   2
BRANCH   1  15
ATOM     14  C   UNL     1      42.352   5.480  11.942  0.00  0.00    +0.000 C 
ATOM     15  C   UNL     1      43.134   5.205  10.664  0.00  0.00    +0.000 C 
ENDBRANCH   1  15
BRANCH   1  16
ATOM     16  C   UNL     1      44.717   3.893  12.186  0.00  0.00    +0.000 C 
BRANCH  16  17
ATOM     17  C   UNL     1      46.092   4.483  12.537  0.00  0.00    +0.000 C 
BRANCH  17  18
ATOM     18  C   UNL     1      46.288   5.984  12.474  0.00  0.00    +0.000 A 
ATOM     19  C   UNL     1      45.308   6.905  12.861  0.00  0.00    +0.000 A 
ATOM     20  C   UNL     1      45.578   8.277  12.860  0.00  0.00    +0.000 A 
ATOM     21  C   UNL     1      46.832   8.751  12.472  0.00  0.00    +0.000 A 
ATOM     22  C   UNL     1      47.822   7.847  12.076  0.00  0.00    +0.000 A 
ATOM     23  C   UNL     1      47.549   6.473  12.088  0.00  0.00    +0.000 A 
BRANCH  22  24
ATOM     24  C   UNL     1      49.189   8.290  11.687  0.00  0.00    +0.000 C 
ATOM     25  N   UNL     1      50.202   7.378  11.796  0.00  0.00    +0.000 N 
ATOM     26  O   UNL     1      49.411   9.429  11.303  0.00  0.00    +0.000 OA
ATOM     27  H   UNL     1      50.112   6.519  12.319  0.00  0.00    +0.000 HD
ATOM     28  H   UNL     1      51.135   7.720  11.605  0.00  0.00    +0.000 HD
ENDBRANCH  22  24
ENDBRANCH  17  18
ENDBRANCH  16  17
ENDBRANCH   1  16
TORSDOF 7
ENDMDL
MODEL 6
REMARK VINA RESULT:    -6.959      1.791      2.600
REMARK INTER + INTRA:         -10.850
REMARK INTER:                 -10.366
REMARK INTRA:                  -0.483
REMARK UNBOUND:                -1.044
REMARK  Name = 
REMARK  8 active torsions:
REMARK  status: ('A' for Active; 'I' for Inactive)
REMARK    1  A    between atoms: C_1  and  C_2
REMARK    2  A    between atoms: C_2  and  N_3
REMARK    3  A    between atoms: N_3  and  C_4
REMARK    4  A    between atoms: N_3  and  C_15
REMARK    5  A    between atoms: C_4  and  C_5
REMARK    6  A    between atoms: C_5  and  C_6
REMARK    7  A    between atoms: C_10  and  C_11
REMARK    8  A    between atoms: C_18  and  C_19
REMARK                            x       y       z     vdW  Elec       q    Type
REMARK                         _______ _______ _______ _____ _____    ______ ____
ROOT
ATOM      1  N   UNL     1      44.359   3.941  10.853  0.00  0.00    +0.000 N 
ENDROOT
BRANCH   1   2
ATOM      2  C   UNL     1      45.073   3.542   9.711  0.00  0.00    +0.000 A 
ATOM      3  C   UNL     1      45.647   4.469   8.818  0.00  0.00    +0.000 A 
ATOM      4  C   UNL     1      46.385   4.077   7.691  0.00  0.00    +0.000 A 
ATOM      5  C   UNL     1      46.579   2.724   7.410  0.00  0.00    +0.000 A 
ATOM      6  C   UNL     1      46.024   1.791   8.279  0.00  0.00    +0.000 A 
ATOM      7  F   UNL     1      46.181   0.474   8.071  0.00  0.00    +0.000 F 
ATOM      8  C   UNL     1      45.290   2.190   9.403  0.00  0.00    +0.000 A 
BRANCH   5   9
ATOM      9  C   UNL     1      47.362   2.359   6.204  0.00  0.00    +0.000 C 
ATOM     10  N   UNL     1      47.133   3.051   5.050  0.00  0.00    +0.000 N 
ATOM     11  O   UNL     1      48.198   1.461   6.229  0.00  0.00    +0.000 OA
ATOM     12  H   UNL     1      46.453   3.796   4.980  0.00  0.00    +0.000 HD
ATOM     13  H   UNL     1      47.675   2.804   4.232  0.00  0.00    +0.000 HD
ENDBRANCH   5   9
ENDBRANCH   1   2
BRANCH   1  15
ATOM     14  C   UNL     1      43.047   5.989  11.427  0.00  0.00    +0.000 C 
ATOM     15  C   UNL     1      43.076   4.652  10.698  0.00  0.00    +0.000 C 
ENDBRANCH   1  15
BRANCH   1  16
ATOM     16  C   UNL     1      45.097   4.020  12.134  0.00  0.00    +0.000 C 
BRANCH  16  17
ATOM     17  C   UNL     1      46.165   5.116  12.273  0.00  0.00    +0.000 C 
BRANCH  17  18
ATOM     18  C   UNL     1      46.889   5.276  13.593  0.00  0.00    +0.000 A 
ATOM     19  C   UNL     1      46.720   4.406  14.676  0.00  0.00    +0.000 A 
ATOM     20  C   UNL     1      47.479   4.558  15.840  0.00  0.00    +0.000 A 
ATOM     21  C   UNL     1      48.421   5.583  15.941  0.00  0.00    +0.000 A 
ATOM     22  C   UNL     1      48.601   6.467  14.874  0.00  0.00    +0.000 A 
ATOM     23  C   UNL     1      47.844   6.305  13.706  0.00  0.00    +0.000 A 
BRANCH  22  24
ATOM     24  C   UNL     1      49.615   7.555  14.910  0.00  0.00    +0.000 C 
ATOM     25  N   UNL     1      50.913   7.200  15.157  0.00  0.00    +0.000 N 
ATOM     26  O   UNL     1      49.308   8.727  14.745  0.00  0.00    +0.000 OA
ATOM     27  H   UNL     1      51.173   6.297  15.524  0.00  0.00    +0.000 HD
ATOM     28  H   UNL     1      51.574   7.960  15.257  0.00  0.00    +0.000 HD
ENDBRANCH  22  24
ENDBRANCH  17  18
ENDBRANCH  16  17
ENDBRANCH   1  16
TORSDOF 7
ENDMDL
MODEL 7
REMARK VINA RESULT:    -6.620      3.542      7.033
REMARK INTER + INTRA:         -10.373
REMARK INTER:                  -9.404
REMARK INTRA:                  -0.968
REMARK UNBOUND:                -1.044
REMARK  Name = 
REMARK  8 active torsions:
REMARK  status: ('A' for Active; 'I' for Inactive)
REMARK    1  A    between atoms: C_1  and  C_2
REMARK    2  A    between atoms: C_2  and  N_3
REMARK    3  A    between atoms: N_3  and  C_4
REMARK    4  A    between atoms: N_3  and  C_15
REMARK    5  A    between atoms: C_4  and  C_5
REMARK    6  A    between atoms: C_5  and  C_6
REMARK    7  A    between atoms: C_10  and  C_11
REMARK    8  A    between atoms: C_18  and  C_19
REMARK                            x       y       z     vdW  Elec       q    Type
REMARK                         _______ _______ _______ _____ _____    ______ ____
ROOT
ATOM      1  N   UNL     1      45.214   5.952  12.304  0.00  0.00    +0.000 N 
ENDROOT
BRANCH   1   2
ATOM      2  C   UNL     1      46.115   7.023  12.189  0.00  0.00    +0.000 A 
ATOM      3  C   UNL     1      47.487   6.831  11.934  0.00  0.00    +0.000 A 
ATOM      4  C   UNL     1      48.387   7.899  11.791  0.00  0.00    +0.000 A 
ATOM      5  C   UNL     1      47.942   9.216  11.900  0.00  0.00    +0.000 A 
ATOM      6  C   UNL     1      46.591   9.430  12.148  0.00  0.00    +0.000 A 
ATOM      7  F   UNL     1      46.096  10.674  12.254  0.00  0.00    +0.000 F 
ATOM      8  C   UNL     1      45.698   8.360  12.288  0.00  0.00    +0.000 A 
BRANCH   5   9
ATOM      9  C   UNL     1      48.932  10.311  11.745  0.00  0.00    +0.000 C 
ATOM     10  N   UNL     1      48.850  11.106  10.638  0.00  0.00    +0.000 N 
ATOM     11  O   UNL     1      49.806  10.508  12.583  0.00  0.00    +0.000 OA
ATOM     12  H   UNL     1      48.149  10.980   9.921  0.00  0.00    +0.000 HD
ATOM     13  H   UNL     1      49.522  11.855  10.542  0.00  0.00    +0.000 HD
ENDBRANCH   5   9
ENDBRANCH   1   2
BRANCH   1  15
ATOM     14  C   UNL     1      46.005   3.659  12.906  0.00  0.00    +0.000 C 
ATOM     15  C   UNL     1      45.390   4.967  13.388  0.00  0.00    +0.000 C 
ENDBRANCH   1  15
BRANCH   1  16
ATOM     16  C   UNL     1      44.399   5.608  11.118  0.00  0.00    +0.000 C 
BRANCH  16  17
ATOM     17  C   UNL     1      45.133   5.419   9.781  0.00  0.00    +0.000 C 
BRANCH  17  18
ATOM     18  C   UNL     1      45.345   4.017   9.248  0.00  0.00    +0.000 A 
ATOM     19  C   UNL     1      44.605   2.909   9.676  0.00  0.00    +0.000 A 
ATOM     20  C   UNL     1      44.790   1.655   9.087  0.00  0.00    +0.000 A 
ATOM     21  C   UNL     1      45.719   1.487   8.058  0.00  0.00    +0.000 A 
ATOM     22  C   UNL     1      46.473   2.579   7.620  0.00  0.00    +0.000 A 
ATOM     23  C   UNL     1      46.277   3.836   8.209  0.00  0.00    +0.000 A 
BRANCH  22  24
ATOM     24  C   UNL     1      47.451   2.469   6.505  0.00  0.00    +0.000 C 
ATOM     25  N   UNL     1      47.279   3.299   5.431  0.00  0.00    +0.000 N 
ATOM     26  O   UNL     1      48.365   1.659   6.528  0.00  0.00    +0.000 OA
ATOM     27  H   UNL     1      46.424   3.808   5.264  0.00  0.00    +0.000 HD
ATOM     28  H   UNL     1      47.904   3.155   4.648  0.00  0.00    +0.000 HD
ENDBRANCH  22  24
ENDBRANCH  17  18
ENDBRANCH  16  17
ENDBRANCH   1  16
TORSDOF 7
ENDMDL
MODEL 8
REMARK VINA RESULT:    -6.516      3.109      7.114
REMARK INTER + INTRA:         -10.225
REMARK INTER:                  -8.946
REMARK INTRA:                  -1.279
REMARK UNBOUND:                -1.044
REMARK  Name = 
REMARK  8 active torsions:
REMARK  status: ('A' for Active; 'I' for Inactive)
REMARK    1  A    between atoms: C_1  and  C_2
REMARK    2  A    between atoms: C_2  and  N_3
REMARK    3  A    between atoms: N_3  and  C_4
REMARK    4  A    between atoms: N_3  and  C_15
REMARK    5  A    between atoms: C_4  and  C_5
REMARK    6  A    between atoms: C_5  and  C_6
REMARK    7  A    between atoms: C_10  and  C_11
REMARK    8  A    between atoms: C_18  and  C_19
REMARK                            x       y       z     vdW  Elec       q    Type
REMARK                         _______ _______ _______ _____ _____    ______ ____
ROOT
ATOM      1  N   UNL     1      47.376   7.454  13.096  0.00  0.00    +0.000 N 
ENDROOT
BRANCH   1   2
ATOM      2  C   UNL     1      47.511   6.372  13.980  0.00  0.00    +0.000 A 
ATOM      3  C   UNL     1      47.014   5.088  13.683  0.00  0.00    +0.000 A 
ATOM      4  C   UNL     1      47.171   3.996  14.552  0.00  0.00    +0.000 A 
ATOM      5  C   UNL     1      47.839   4.151  15.766  0.00  0.00    +0.000 A 
ATOM      6  C   UNL     1      48.341   5.408  16.080  0.00  0.00    +0.000 A 
ATOM      7  F   UNL     1      49.002   5.622  17.229  0.00  0.00    +0.000 F 
ATOM      8  C   UNL     1      48.182   6.494  15.208  0.00  0.00    +0.000 A 
BRANCH   5   9
ATOM      9  C   UNL     1      47.974   2.968  16.652  0.00  0.00    +0.000 C 
ATOM     10  N   UNL     1      47.071   2.810  17.663  0.00  0.00    +0.000 N 
ATOM     11  O   UNL     1      48.870   2.145  16.491  0.00  0.00    +0.000 OA
ATOM     12  H   UNL     1      46.318   3.463  17.836  0.00  0.00    +0.000 HD
ATOM     13  H   UNL     1      47.163   1.999  18.260  0.00  0.00    +0.000 HD
ENDBRANCH   5   9
ENDBRANCH   1   2
BRANCH   1  15
ATOM     14  C   UNL     1      49.264   7.856  11.508  0.00  0.00    +0.000 C 
ATOM     15  C   UNL     1      48.551   8.290  12.782  0.00  0.00    +0.000 C 
ENDBRANCH   1  15
BRANCH   1  16
ATOM     16  C   UNL     1      46.013   7.975  12.848  0.00  0.00    +0.000 C 
BRANCH  16  17
ATOM     17  C   UNL     1      45.295   7.510  11.571  0.00  0.00    +0.000 C 
BRANCH  17  18
ATOM     18  C   UNL     1      44.661   6.135  11.541  0.00  0.00    +0.000 A 
ATOM     19  C   UNL     1      43.644   5.737  12.415  0.00  0.00    +0.000 A 
ATOM     20  C   UNL     1      43.039   4.482  12.285  0.00  0.00    +0.000 A 
ATOM     21  C   UNL     1      43.442   3.606  11.276  0.00  0.00    +0.000 A 
ATOM     22  C   UNL     1      44.460   3.982  10.396  0.00  0.00    +0.000 A 
ATOM     23  C   UNL     1      45.056   5.243  10.527  0.00  0.00    +0.000 A 
BRANCH  22  24
ATOM     24  C   UNL     1      44.906   3.104   9.280  0.00  0.00    +0.000 C 
ATOM     25  N   UNL     1      44.657   1.764   9.393  0.00  0.00    +0.000 N 
ATOM     26  O   UNL     1      45.491   3.551   8.304  0.00  0.00    +0.000 OA
ATOM     27  H   UNL     1      44.395   1.327  10.265  0.00  0.00    +0.000 HD
ATOM     28  H   UNL     1      45.038   1.175   8.664  0.00  0.00    +0.000 HD
ENDBRANCH  22  24
ENDBRANCH  17  18
ENDBRANCH  16  17
ENDBRANCH   1  16
TORSDOF 7
ENDMDL
MODEL 9
REMARK VINA RESULT:    -6.311      3.157      5.474
REMARK INTER + INTRA:          -9.937
REMARK INTER:                  -8.869
REMARK INTRA:                  -1.067
REMARK UNBOUND:                -1.044
REMARK  Name = 
REMARK  8 active torsions:
REMARK  status: ('A' for Active; 'I' for Inactive)
REMARK    1  A    between atoms: C_1  and  C_2
REMARK    2  A    between atoms: C_2  and  N_3
REMARK    3  A    between atoms: N_3  and  C_4
REMARK    4  A    between atoms: N_3  and  C_15
REMARK    5  A    between atoms: C_4  and  C_5
REMARK    6  A    between atoms: C_5  and  C_6
REMARK    7  A    between atoms: C_10  and  C_11
REMARK    8  A    between atoms: C_18  and  C_19
REMARK                            x       y       z     vdW  Elec       q    Type
REMARK                         _______ _______ _______ _____ _____    ______ ____
ROOT
ATOM      1  N   UNL     1      47.225   7.540  13.332  0.00  0.00    +0.000 N 
ENDROOT
BRANCH   1   2
ATOM      2  C   UNL     1      46.506   6.475  12.766  0.00  0.00    +0.000 A 
ATOM      3  C   UNL     1      45.608   6.654  11.696  0.00  0.00    +0.000 A 
ATOM      4  C   UNL     1      44.908   5.589  11.109  0.00  0.00    +0.000 A 
ATOM      5  C   UNL     1      45.081   4.287  11.578  0.00  0.00    +0.000 A 
ATOM      6  C   UNL     1      45.965   4.085  12.631  0.00  0.00    +0.000 A 
ATOM      7  F   UNL     1      46.185   2.855  13.124  0.00  0.00    +0.000 F 
ATOM      8  C   UNL     1      46.662   5.153  13.212  0.00  0.00    +0.000 A 
BRANCH   5   9
ATOM      9  C   UNL     1      44.315   3.194  10.928  0.00  0.00    +0.000 C 
ATOM     10  N   UNL     1      44.962   2.398  10.027  0.00  0.00    +0.000 N 
ATOM     11  O   UNL     1      43.132   3.000  11.184  0.00  0.00    +0.000 OA
ATOM     12  H   UNL     1      45.936   2.522   9.782  0.00  0.00    +0.000 HD
ATOM     13  H   UNL     1      44.438   1.650   9.592  0.00  0.00    +0.000 HD
ENDBRANCH   5   9
ENDBRANCH   1   2
BRANCH   1  15
ATOM     14  C   UNL     1      47.944   9.542  12.020  0.00  0.00    +0.000 C 
ATOM     15  C   UNL     1      46.900   8.926  12.942  0.00  0.00    +0.000 C 
ENDBRANCH   1  15
BRANCH   1  16
ATOM     16  C   UNL     1      48.533   7.236  13.953  0.00  0.00    +0.000 C 
BRANCH  16  17
ATOM     17  C   UNL     1      48.791   7.776  15.369  0.00  0.00    +0.000 C 
BRANCH  17  18
ATOM     18  C   UNL     1      48.812   6.809  16.535  0.00  0.00    +0.000 A 
ATOM     19  C   UNL     1      49.091   7.193  17.851  0.00  0.00    +0.000 A 
ATOM     20  C   UNL     1      49.014   6.269  18.897  0.00  0.00    +0.000 A 
ATOM     21  C   UNL     1      48.654   4.945  18.645  0.00  0.00    +0.000 A 
ATOM     22  C   UNL     1      48.377   4.538  17.337  0.00  0.00    +0.000 A 
ATOM     23  C   UNL     1      48.448   5.470  16.293  0.00  0.00    +0.000 A 
BRANCH  22  24
ATOM     24  C   UNL     1      47.953   3.149  17.013  0.00  0.00    +0.000 C 
ATOM     25  N   UNL     1      46.872   2.646  17.684  0.00  0.00    +0.000 N 
ATOM     26  O   UNL     1      48.552   2.469  16.194  0.00  0.00    +0.000 OA
ATOM     27  H   UNL     1      46.498   3.074  18.519  0.00  0.00    +0.000 HD
ATOM     28  H   UNL     1      46.649   1.675  17.510  0.00  0.00    +0.000 HD
ENDBRANCH  22  24
ENDBRANCH  17  18
ENDBRANCH  16  17
ENDBRANCH   1  16
TORSDOF 7
ENDMDL
