MODEL 1
REMARK VINA RESULT:    -8.152      0.000      0.000
REMARK INTER + INTRA:         -10.106
REMARK INTER:                  -9.820
REMARK INTRA:                  -0.286
REMARK UNBOUND:                -0.286
REMARK  Name = 
REMARK  4 active torsions:
REMARK  status: ('A' for Active; 'I' for Inactive)
REMARK    1  A    between atoms: N_1  and  C_2
REMARK    2  A    between atoms: C_2  and  C_3
REMARK    3  A    between atoms: C_6  and  C_7
REMARK    4  A    between atoms: C_7  and  N_8
REMARK                            x       y       z     vdW  Elec       q    Type
REMARK                         _______ _______ _______ _____ _____    ______ ____
ROOT
ATOM      1  C   UNL     1      44.041   2.766  10.290  0.00  0.00    +0.000 C 
ENDROOT
BRANCH   1   2
ATOM      2  N   UNL     1      44.121   4.005  11.076  0.00  0.00    +0.000 N 
ATOM      3  C   UNL     1      43.511   5.179  10.709  0.00  0.00    +0.000 A 
ATOM      4  C   UNL     1      43.983   6.177  11.528  0.00  0.00    +0.000 A 
ATOM      5  C   UNL     1      45.025   5.623  12.313  0.00  0.00    +0.000 A 
ATOM      6  C   UNL     1      46.000   6.184  13.162  0.00  0.00    +0.000 A 
ATOM      7  C   UNL     1      46.895   5.343  13.827  0.00  0.00    +0.000 A 
ATOM      8  C   UNL     1      46.762   3.966  13.716  0.00  0.00    +0.000 A 
ATOM      9  F   UNL     1      47.589   3.177  14.417  0.00  0.00    +0.000 F 
ATOM     10  C   UNL     1      45.816   3.378  12.875  0.00  0.00    +0.000 A 
ATOM     11  C   UNL     1      44.999   4.236  12.119  0.00  0.00    +0.000 A 
ENDBRANCH   1   2
BRANCH   1  15
ATOM     12  C   UNL     1      46.667   2.756   6.848  0.00  0.00    +0.000 A 
ATOM     13  C   UNL     1      46.016   3.932   7.248  0.00  0.00    +0.000 A 
ATOM     14  C   UNL     1      45.176   3.940   8.359  0.00  0.00    +0.000 A 
ATOM     15  C   UNL     1      44.958   2.765   9.092  0.00  0.00    +0.000 A 
ATOM     16  C   UNL     1      45.604   1.589   8.699  0.00  0.00    +0.000 A 
ATOM     17  C   UNL     1      46.455   1.584   7.587  0.00  0.00    +0.000 A 
BRANCH  12  18
ATOM     18  C   UNL     1      47.543   2.737   5.621  0.00  0.00    +0.000 C 
BRANCH  18  19
ATOM     19  N   UNL     1      48.569   1.702   5.700  0.00  0.00    +0.000 NA
ATOM     20  H   UNL     1      48.122   0.789   5.643  0.00  0.00    +0.000 HD
ATOM     21  H   UNL     1      49.011   1.750   6.616  0.00  0.00    +0.000 HD
ENDBRANCH  18  19
ENDBRANCH  12  18
ENDBRANCH   1  15
TORSDOF 4
ENDMDL
MODEL 2
REMARK VINA RESULT:    -7.191      2.557      3.391
REMARK INTER + INTRA:          -8.948
REMARK INTER:                  -8.411
REMARK INTRA:                  -0.537
REMARK UNBOUND:                -0.286
REMARK  Name = 
REMARK  4 active torsions:
REMARK  status: ('A' for Active; 'I' for Inactive)
REMARK    1  A    between atoms: N_1  and  C_2
REMARK    2  A    between atoms: C_2  and  C_3
REMARK    3  A    between atoms: C_6  and  C_7
REMARK    4  A    between atoms: C_7  and  N_8
REMARK                            x       y       z     vdW  Elec       q    Type
REMARK                         _______ _______ _______ _____ _____    ______ ____
ROOT
ATOM      1  C   UNL     1      44.348   4.660  10.812  0.00  0.00    +0.000 C 
ENDROOT
BRANCH   1   2
ATOM      2  N   UNL     1      45.254   5.524  11.579  0.00  0.00    +0.000 N 
ATOM      3  C   UNL     1      46.114   5.059  12.543  0.00  0.00    +0.000 A 
ATOM      4  C   UNL     1      46.627   6.142  13.214  0.00  0.00    +0.000 A 
ATOM      5  C   UNL     1      45.942   7.292  12.747  0.00  0.00    +0.000 A 
ATOM      6  C   UNL     1      45.882   8.629  13.190  0.00  0.00    +0.000 A 
ATOM      7  C   UNL     1      45.111   9.552  12.479  0.00  0.00    +0.000 A 
ATOM      8  C   UNL     1      44.484   9.168  11.302  0.00  0.00    +0.000 A 
ATOM      9  F   UNL     1      43.805  10.086  10.600  0.00  0.00    +0.000 F 
ATOM     10  C   UNL     1      44.513   7.850  10.843  0.00  0.00    +0.000 A 
ATOM     11  C   UNL     1      45.193   6.905  11.629  0.00  0.00    +0.000 A 
ENDBRANCH   1   2
BRANCH   1  15
ATOM     12  C   UNL     1      46.331   2.509   7.620  0.00  0.00    +0.000 A 
ATOM     13  C   UNL     1      46.353   3.911   7.660  0.00  0.00    +0.000 A 
ATOM     14  C   UNL     1      45.722   4.606   8.689  0.00  0.00    +0.000 A 
ATOM     15  C   UNL     1      45.042   3.912   9.700  0.00  0.00    +0.000 A 
ATOM     16  C   UNL     1      45.015   2.515   9.667  0.00  0.00    +0.000 A 
ATOM     17  C   UNL     1      45.658   1.817   8.636  0.00  0.00    +0.000 A 
BRANCH  12  18
ATOM     18  C   UNL     1      46.978   1.758   6.484  0.00  0.00    +0.000 C 
BRANCH  18  19
ATOM     19  N   UNL     1      48.433   1.864   6.518  0.00  0.00    +0.000 NA
ATOM     20  H   UNL     1      48.711   2.295   7.398  0.00  0.00    +0.000 HD
ATOM     21  H   UNL     1      48.731   2.498   5.779  0.00  0.00    +0.000 HD
ENDBRANCH  18  19
ENDBRANCH  12  18
ENDBRANCH   1  15
TORSDOF 4
ENDMDL
MODEL 3
REMARK VINA RESULT:    -6.816      2.835      6.090
REMARK INTER + INTRA:          -8.497
REMARK INTER:                  -8.053
REMARK INTRA:                  -0.444
REMARK UNBOUND:                -0.286
REMARK  Name = 
REMARK  4 active torsions:
REMARK  status: ('A' for Active; 'I' for Inactive)
REMARK    1  A    between atoms: N_1  and  C_2
REMARK    2  A    between atoms: C_2  and  C_3
REMARK    3  A    between atoms: C_6  and  C_7
REMARK    4  A    between atoms: C_7  and  N_8
REMARK                            x       y       z     vdW  Elec       q    Type
REMARK                         _______ _______ _______ _____ _____    ______ ____
ROOT
ATOM      1  C   UNL     1      44.209   6.374  11.372  0.00  0.00    +0.000 C 
ENDROOT
BRANCH   1   2
ATOM      2  N   UNL     1      43.908   4.975  11.044  0.00  0.00    +0.000 N 
ATOM      3  C   UNL     1      43.258   4.117  11.896  0.00  0.00    +0.000 A 
ATOM      4  C   UNL     1      43.355   2.848  11.379  0.00  0.00    +0.000 A 
ATOM      5  C   UNL     1      44.223   2.913  10.260  0.00  0.00    +0.000 A 
ATOM      6  C   UNL     1      44.854   1.934   9.466  0.00  0.00    +0.000 A 
ATOM      7  C   UNL     1      45.652   2.334   8.391  0.00  0.00    +0.000 A 
ATOM      8  C   UNL     1      45.746   3.679   8.063  0.00  0.00    +0.000 A 
ATOM      9  F   UNL     1      46.463   4.034   6.987  0.00  0.00    +0.000 F 
ATOM     10  C   UNL     1      45.144   4.674   8.835  0.00  0.00    +0.000 A 
ATOM     11  C   UNL     1      44.442   4.268   9.982  0.00  0.00    +0.000 A 
ENDBRANCH   1   2
BRANCH   1  15
ATOM     12  C   UNL     1      48.022   6.878  13.361  0.00  0.00    +0.000 A 
ATOM     13  C   UNL     1      47.238   5.738  13.594  0.00  0.00    +0.000 A 
ATOM     14  C   UNL     1      46.014   5.570  12.951  0.00  0.00    +0.000 A 
ATOM     15  C   UNL     1      45.539   6.547  12.064  0.00  0.00    +0.000 A 
ATOM     16  C   UNL     1      46.314   7.685  11.828  0.00  0.00    +0.000 A 
ATOM     17  C   UNL     1      47.548   7.850  12.469  0.00  0.00    +0.000 A 
BRANCH  12  18
ATOM     18  C   UNL     1      49.326   7.081  14.090  0.00  0.00    +0.000 C 
BRANCH  18  19
ATOM     19  N   UNL     1      49.333   6.418  15.390  0.00  0.00    +0.000 NA
ATOM     20  H   UNL     1      48.375   6.340  15.726  0.00  0.00    +0.000 HD
ATOM     21  H   UNL     1      49.825   7.011  16.055  0.00  0.00    +0.000 HD
ENDBRANCH  18  19
ENDBRANCH  12  18
ENDBRANCH   1  15
TORSDOF 4
ENDMDL
MODEL 4
REMARK VINA RESULT:    -5.901      4.386      7.686
REMARK INTER + INTRA:          -7.395
REMARK INTER:                  -6.932
REMARK INTRA:                  -0.463
REMARK UNBOUND:                -0.286
REMARK  Name = 
REMARK  4 active torsions:
REMARK  status: ('A' for Active; 'I' for Inactive)
REMARK    1  A    between atoms: N_1  and  C_2
REMARK    2  A    between atoms: C_2  and  C_3
REMARK    3  A    between atoms: C_6  and  C_7
REMARK    4  A    between atoms: C_7  and  N_8
REMARK                            x       y       z     vdW  Elec       q    Type
REMARK                         _______ _______ _______ _____ _____    ______ ____
ROOT
ATOM      1  C   UNL     1      47.368   4.662  16.168  0.00  0.00    +0.000 C 
ENDROOT
BRANCH   1   2
ATOM      2  N   UNL     1      47.515   5.302  14.854  0.00  0.00    +0.000 N 
ATOM      3  C   UNL     1      48.178   6.488  14.656  0.00  0.00    +0.000 A 
ATOM      4  C   UNL     1      47.920   6.910  13.374  0.00  0.00    +0.000 A 
ATOM      5  C   UNL     1      46.946   6.035  12.828  0.00  0.00    +0.000 A 
ATOM      6  C   UNL     1      46.155   6.075  11.663  0.00  0.00    +0.000 A 
ATOM      7  C   UNL     1      45.283   5.018  11.391  0.00  0.00    +0.000 A 
ATOM      8  C   UNL     1      45.267   3.904  12.220  0.00  0.00    +0.000 A 
ATOM      9  F   UNL     1      44.472   2.872  11.903  0.00  0.00    +0.000 F 
ATOM     10  C   UNL     1      46.029   3.839  13.387  0.00  0.00    +0.000 A 
ATOM     11  C   UNL     1      46.813   4.958  13.713  0.00  0.00    +0.000 A 
ENDBRANCH   1   2
BRANCH   1  15
ATOM     12  C   UNL     1      50.867   2.411  17.369  0.00  0.00    +0.000 A 
ATOM     13  C   UNL     1      49.819   1.789  16.675  0.00  0.00    +0.000 A 
ATOM     14  C   UNL     1      48.695   2.512  16.281  0.00  0.00    +0.000 A 
ATOM     15  C   UNL     1      48.589   3.877  16.583  0.00  0.00    +0.000 A 
ATOM     16  C   UNL     1      49.629   4.503  17.275  0.00  0.00    +0.000 A 
ATOM     17  C   UNL     1      50.762   3.778  17.663  0.00  0.00    +0.000 A 
BRANCH  12  18
ATOM     18  C   UNL     1      52.063   1.620  17.833  0.00  0.00    +0.000 C 
BRANCH  18  19
ATOM     19  N   UNL     1      51.717   0.235  18.136  0.00  0.00    +0.000 NA
ATOM     20  H   UNL     1      51.450   0.169  19.116  0.00  0.00    +0.000 HD
ATOM     21  H   UNL     1      52.550  -0.340  18.024  0.00  0.00    +0.000 HD
ENDBRANCH  18  19
ENDBRANCH  12  18
ENDBRANCH   1  15
TORSDOF 4
ENDMDL
MODEL 5
REMARK VINA RESULT:    -5.859      2.261      3.182
REMARK INTER + INTRA:          -7.344
REMARK INTER:                  -7.020
REMARK INTRA:                  -0.325
REMARK UNBOUND:                -0.286
REMARK  Name = 
REMARK  4 active torsions:
REMARK  status: ('A' for Active; 'I' for Inactive)
REMARK    1  A    between atoms: N_1  and  C_2
REMARK    2  A    between atoms: C_2  and  C_3
REMARK    3  A    between atoms: C_6  and  C_7
REMARK    4  A    between atoms: C_7  and  N_8
REMARK                            x       y       z     vdW  Elec       q    Type
REMARK                         _______ _______ _______ _____ _____    ______ ____
ROOT
ATOM      1  C   UNL     1      44.476   5.424  12.093  0.00  0.00    +0.000 C 
ENDROOT
BRANCH   1   2
ATOM      2  N   UNL     1      44.879   6.833  12.190  0.00  0.00    +0.000 N 
ATOM      3  C   UNL     1      44.188   7.863  11.602  0.00  0.00    +0.000 A 
ATOM      4  C   UNL     1      44.960   8.997  11.688  0.00  0.00    +0.000 A 
ATOM      5  C   UNL     1      46.222   8.611  12.205  0.00  0.00    +0.000 A 
ATOM      6  C   UNL     1      47.462   9.270  12.323  0.00  0.00    +0.000 A 
ATOM      7  C   UNL     1      48.538   8.605  12.916  0.00  0.00    +0.000 A 
ATOM      8  C   UNL     1      48.355   7.340  13.458  0.00  0.00    +0.000 A 
ATOM      9  F   UNL     1      49.383   6.747  14.081  0.00  0.00    +0.000 F 
ATOM     10  C   UNL     1      47.144   6.655  13.347  0.00  0.00    +0.000 A 
ATOM     11  C   UNL     1      46.104   7.287  12.644  0.00  0.00    +0.000 A 
ENDBRANCH   1   2
BRANCH   1  15
ATOM     12  C   UNL     1      45.558   3.608   8.315  0.00  0.00    +0.000 A 
ATOM     13  C   UNL     1      44.756   2.919   9.236  0.00  0.00    +0.000 A 
ATOM     14  C   UNL     1      44.400   3.503  10.450  0.00  0.00    +0.000 A 
ATOM     15  C   UNL     1      44.850   4.790  10.775  0.00  0.00    +0.000 A 
ATOM     16  C   UNL     1      45.650   5.483   9.862  0.00  0.00    +0.000 A 
ATOM     17  C   UNL     1      46.000   4.898   8.639  0.00  0.00    +0.000 A 
BRANCH  12  18
ATOM     18  C   UNL     1      45.979   2.960   7.020  0.00  0.00    +0.000 C 
BRANCH  18  19
ATOM     19  N   UNL     1      46.783   3.857   6.197  0.00  0.00    +0.000 NA
ATOM     20  H   UNL     1      47.768   3.689   6.392  0.00  0.00    +0.000 HD
ATOM     21  H   UNL     1      46.592   4.817   6.479  0.00  0.00    +0.000 HD
ENDBRANCH  18  19
ENDBRANCH  12  18
ENDBRANCH   1  15
TORSDOF 4
ENDMDL
MODEL 6
REMARK VINA RESULT:    -5.790      3.620      5.206
REMARK INTER + INTRA:          -7.261
REMARK INTER:                  -6.803
REMARK INTRA:                  -0.458
REMARK UNBOUND:                -0.286
REMARK  Name = 
REMARK  4 active torsions:
REMARK  status: ('A' for Active; 'I' for Inactive)
REMARK    1  A    between atoms: N_1  and  C_2
REMARK    2  A    between atoms: C_2  and  C_3
REMARK    3  A    between atoms: C_6  and  C_7
REMARK    4  A    between atoms: C_7  and  N_8
REMARK                            x       y       z     vdW  Elec       q    Type
REMARK                         _______ _______ _______ _____ _____    ______ ____
ROOT
ATOM      1  C   UNL     1      46.039   6.215  13.075  0.00  0.00    +0.000 C 
ENDROOT
BRANCH   1   2
ATOM      2  N   UNL     1      46.852   7.284  12.482  0.00  0.00    +0.000 N 
ATOM      3  C   UNL     1      48.224   7.266  12.449  0.00  0.00    +0.000 A 
ATOM      4  C   UNL     1      48.656   8.508  12.048  0.00  0.00    +0.000 A 
ATOM      5  C   UNL     1      47.518   9.352  11.986  0.00  0.00    +0.000 A 
ATOM      6  C   UNL     1      47.353  10.744  11.842  0.00  0.00    +0.000 A 
ATOM      7  C   UNL     1      46.063  11.279  11.792  0.00  0.00    +0.000 A 
ATOM      8  C   UNL     1      44.963  10.433  11.798  0.00  0.00    +0.000 A 
ATOM      9  F   UNL     1      43.737  10.963  11.682  0.00  0.00    +0.000 F 
ATOM     10  C   UNL     1      45.092   9.051  11.952  0.00  0.00    +0.000 A 
ATOM     11  C   UNL     1      46.388   8.536  12.121  0.00  0.00    +0.000 A 
ENDBRANCH   1   2
BRANCH   1  15
ATOM     12  C   UNL     1      44.812   3.227  10.191  0.00  0.00    +0.000 A 
ATOM     13  C   UNL     1      44.928   2.904  11.551  0.00  0.00    +0.000 A 
ATOM     14  C   UNL     1      45.316   3.864  12.482  0.00  0.00    +0.000 A 
ATOM     15  C   UNL     1      45.608   5.173  12.072  0.00  0.00    +0.000 A 
ATOM     16  C   UNL     1      45.494   5.502  10.718  0.00  0.00    +0.000 A 
ATOM     17  C   UNL     1      45.096   4.538   9.784  0.00  0.00    +0.000 A 
BRANCH  12  18
ATOM     18  C   UNL     1      44.433   2.178   9.177  0.00  0.00    +0.000 C 
BRANCH  18  19
ATOM     19  N   UNL     1      45.579   1.366   8.780  0.00  0.00    +0.000 NA
ATOM     20  H   UNL     1      45.385   0.944   7.873  0.00  0.00    +0.000 HD
ATOM     21  H   UNL     1      45.679   0.597   9.441  0.00  0.00    +0.000 HD
ENDBRANCH  18  19
ENDBRANCH  12  18
ENDBRANCH   1  15
TORSDOF 4
ENDMDL
MODEL 7
REMARK VINA RESULT:    -5.719      3.696      6.912
REMARK INTER + INTRA:          -7.175
REMARK INTER:                  -6.711
REMARK INTRA:                  -0.464
REMARK UNBOUND:                -0.286
REMARK  Name = 
REMARK  4 active torsions:
REMARK  status: ('A' for Active; 'I' for Inactive)
REMARK    1  A    between atoms: N_1  and  C_2
REMARK    2  A    between atoms: C_2  and  C_3
REMARK    3  A    between atoms: C_6  and  C_7
REMARK    4  A    between atoms: C_7  and  N_8
REMARK                            x       y       z     vdW  Elec       q    Type
REMARK                         _______ _______ _______ _____ _____    ______ ____
ROOT
ATOM      1  C   UNL     1      47.860   6.600  12.303  0.00  0.00    +0.000 C 
ENDROOT
BRANCH   1   2
ATOM      2  N   UNL     1      46.548   7.095  11.870  0.00  0.00    +0.000 N 
ATOM      3  C   UNL     1      46.091   8.364  12.125  0.00  0.00    +0.000 A 
ATOM      4  C   UNL     1      44.758   8.412  11.796  0.00  0.00    +0.000 A 
ATOM      5  C   UNL     1      44.354   7.091  11.478  0.00  0.00    +0.000 A 
ATOM      6  C   UNL     1      43.098   6.487  11.270  0.00  0.00    +0.000 A 
ATOM      7  C   UNL     1      43.036   5.131  10.939  0.00  0.00    +0.000 A 
ATOM      8  C   UNL     1      44.207   4.416  10.733  0.00  0.00    +0.000 A 
ATOM      9  F   UNL     1      44.124   3.133  10.351  0.00  0.00    +0.000 F 
ATOM     10  C   UNL     1      45.466   4.980  10.942  0.00  0.00    +0.000 A 
ATOM     11  C   UNL     1      45.514   6.311  11.390  0.00  0.00    +0.000 A 
ENDBRANCH   1   2
BRANCH   1  15
ATOM     12  C   UNL     1      47.835   5.050  16.346  0.00  0.00    +0.000 A 
ATOM     13  C   UNL     1      47.112   4.409  15.329  0.00  0.00    +0.000 A 
ATOM     14  C   UNL     1      47.124   4.901  14.026  0.00  0.00    +0.000 A 
ATOM     15  C   UNL     1      47.853   6.056  13.711  0.00  0.00    +0.000 A 
ATOM     16  C   UNL     1      48.575   6.701  14.719  0.00  0.00    +0.000 A 
ATOM     17  C   UNL     1      48.570   6.201  16.027  0.00  0.00    +0.000 A 
BRANCH  12  18
ATOM     18  C   UNL     1      47.789   4.543  17.764  0.00  0.00    +0.000 C 
BRANCH  18  19
ATOM     19  N   UNL     1      46.685   5.129  18.518  0.00  0.00    +0.000 NA
ATOM     20  H   UNL     1      45.843   4.584  18.346  0.00  0.00    +0.000 HD
ATOM     21  H   UNL     1      46.503   6.063  18.155  0.00  0.00    +0.000 HD
ENDBRANCH  18  19
ENDBRANCH  12  18
ENDBRANCH   1  15
TORSDOF 4
ENDMDL
MODEL 8
REMARK VINA RESULT:    -5.686      4.335      6.094
REMARK INTER + INTRA:          -7.136
REMARK INTER:                  -6.658
REMARK INTRA:                  -0.477
REMARK UNBOUND:                -0.286
REMARK  Name = 
REMARK  4 active torsions:
REMARK  status: ('A' for Active; 'I' for Inactive)
REMARK    1  A    between atoms: N_1  and  C_2
REMARK    2  A    between atoms: C_2  and  C_3
REMARK    3  A    between atoms: C_6  and  C_7
REMARK    4  A    between atoms: C_7  and  N_8
REMARK                            x       y       z     vdW  Elec       q    Type
REMARK                         _______ _______ _______ _____ _____    ______ ____
ROOT
ATOM      1  C   UNL     1      48.153   5.770  13.516  0.00  0.00    +0.000 C 
ENDROOT
BRANCH   1   2
ATOM      2  N   UNL     1      48.258   6.249  14.901  0.00  0.00    +0.000 N 
ATOM      3  C   UNL     1      48.836   7.444  15.251  0.00  0.00    +0.000 A 
ATOM      4  C   UNL     1      48.977   7.464  16.617  0.00  0.00    +0.000 A 
ATOM      5  C   UNL     1      48.618   6.180  17.099  0.00  0.00    +0.000 A 
ATOM      6  C   UNL     1      48.750   5.543  18.349  0.00  0.00    +0.000 A 
ATOM      7  C   UNL     1      48.261   4.245  18.512  0.00  0.00    +0.000 A 
ATOM      8  C   UNL     1      47.575   3.629  17.474  0.00  0.00    +0.000 A 
ATOM      9  F   UNL     1      47.055   2.410  17.674  0.00  0.00    +0.000 F 
ATOM     10  C   UNL     1      47.437   4.227  16.220  0.00  0.00    +0.000 A 
ATOM     11  C   UNL     1      48.037   5.483  16.032  0.00  0.00    +0.000 A 
ENDBRANCH   1   2
BRANCH   1  15
ATOM     12  C   UNL     1      44.058   5.350  12.175  0.00  0.00    +0.000 A 
ATOM     13  C   UNL     1      44.665   6.613  12.236  0.00  0.00    +0.000 A 
ATOM     14  C   UNL     1      45.985   6.751  12.661  0.00  0.00    +0.000 A 
ATOM     15  C   UNL     1      46.727   5.625  13.046  0.00  0.00    +0.000 A 
ATOM     16  C   UNL     1      46.128   4.363  12.988  0.00  0.00    +0.000 A 
ATOM     17  C   UNL     1      44.804   4.225  12.553  0.00  0.00    +0.000 A 
BRANCH  12  18
ATOM     18  C   UNL     1      42.617   5.205  11.756  0.00  0.00    +0.000 C 
BRANCH  18  19
ATOM     19  N   UNL     1      41.910   6.482  11.784  0.00  0.00    +0.000 NA
ATOM     20  H   UNL     1      40.954   6.323  12.097  0.00  0.00    +0.000 HD
ATOM     21  H   UNL     1      41.847   6.840  10.833  0.00  0.00    +0.000 HD
ENDBRANCH  18  19
ENDBRANCH  12  18
ENDBRANCH   1  15
TORSDOF 4
ENDMDL
MODEL 9
REMARK VINA RESULT:    -5.622      2.991      6.624
REMARK INTER + INTRA:          -7.058
REMARK INTER:                  -7.418
REMARK INTRA:                   0.360
REMARK UNBOUND:                -0.286
REMARK  Name = 
REMARK  4 active torsions:
REMARK  status: ('A' for Active; 'I' for Inactive)
REMARK    1  A    between atoms: N_1  and  C_2
REMARK    2  A    between atoms: C_2  and  C_3
REMARK    3  A    between atoms: C_6  and  C_7
REMARK    4  A    between atoms: C_7  and  N_8
REMARK                            x       y       z     vdW  Elec       q    Type
REMARK                         _______ _______ _______ _____ _____    ______ ____
ROOT
ATOM      1  C   UNL     1      46.276   6.354  12.077  0.00  0.00    +0.000 C 
ENDROOT
BRANCH   1   2
ATOM      2  N   UNL     1      45.237   5.413  11.637  0.00  0.00    +0.000 N 
ATOM      3  C   UNL     1      44.309   4.855  12.481  0.00  0.00    +0.000 A 
ATOM      4  C   UNL     1      43.658   3.857  11.797  0.00  0.00    +0.000 A 
ATOM      5  C   UNL     1      44.315   3.699  10.551  0.00  0.00    +0.000 A 
ATOM      6  C   UNL     1      44.241   2.726   9.534  0.00  0.00    +0.000 A 
ATOM      7  C   UNL     1      45.025   2.873   8.387  0.00  0.00    +0.000 A 
ATOM      8  C   UNL     1      45.799   4.013   8.220  0.00  0.00    +0.000 A 
ATOM      9  F   UNL     1      46.491   4.165   7.082  0.00  0.00    +0.000 F 
ATOM     10  C   UNL     1      45.904   4.989   9.213  0.00  0.00    +0.000 A 
ATOM     11  C   UNL     1      45.204   4.772  10.411  0.00  0.00    +0.000 A 
ENDBRANCH   1   2
BRANCH   1  15
ATOM     12  C   UNL     1      48.106   5.222  15.834  0.00  0.00    +0.000 A 
ATOM     13  C   UNL     1      48.430   6.440  15.218  0.00  0.00    +0.000 A 
ATOM     14  C   UNL     1      47.838   6.810  14.013  0.00  0.00    +0.000 A 
ATOM     15  C   UNL     1      46.913   5.962  13.388  0.00  0.00    +0.000 A 
ATOM     16  C   UNL     1      46.585   4.747  13.995  0.00  0.00    +0.000 A 
ATOM     17  C   UNL     1      47.175   4.379  15.211  0.00  0.00    +0.000 A 
BRANCH  12  18
ATOM     18  C   UNL     1      48.778   4.801  17.116  0.00  0.00    +0.000 C 
BRANCH  18  19
ATOM     19  N   UNL     1      49.755   3.739  16.897  0.00  0.00    +0.000 NA
ATOM     20  H   UNL     1      49.908   3.246  17.774  0.00  0.00    +0.000 HD
ATOM     21  H   UNL     1      50.646   4.163  16.644  0.00  0.00    +0.000 HD
ENDBRANCH  18  19
ENDBRANCH  12  18
ENDBRANCH   1  15
TORSDOF 4
ENDMDL
