MODEL 1
REMARK VINA RESULT:    -6.962      0.000      0.000
REMARK INTER + INTRA:          -8.426
REMARK INTER:                  -8.183
REMARK INTRA:                  -0.243
REMARK UNBOUND:                -0.243
REMARK  Name = 
REMARK  3 active torsions:
REMARK  status: ('A' for Active; 'I' for Inactive)
REMARK    1  A    between atoms: C_2  and  C_4
REMARK    2  A    between atoms: N_8  and  C_9
REMARK    3  A    between atoms: C_9  and  C_10
REMARK                            x       y       z     vdW  Elec       q    Type
REMARK                         _______ _______ _______ _____ _____    ______ ____
ROOT
ATOM      1  C   UNL     1      46.290   3.043   7.751  0.00  0.00    +0.000 A 
ATOM      2  C   UNL     1      45.756   1.985   8.480  0.00  0.00    +0.000 A 
ATOM      3  C   UNL     1      45.023   2.263   9.635  0.00  0.00    +0.000 A 
ATOM      4  C   UNL     1      44.847   3.583  10.054  0.00  0.00    +0.000 A 
ATOM      5  N   UNL     1      44.032   3.821  11.172  0.00  0.00    +0.000 N 
ATOM      6  N   UNL     1      45.388   4.610   9.363  0.00  0.00    +0.000 NA
ATOM      7  C   UNL     1      46.099   4.324   8.242  0.00  0.00    +0.000 A 
ATOM      8  H   UNL     1      43.866   3.008  11.748  0.00  0.00    +0.000 HD
ENDROOT
BRANCH   1  10
ATOM      9  N   UNL     1      48.403   2.692   6.597  0.00  0.00    +0.000 N 
ATOM     10  C   UNL     1      47.048   2.857   6.494  0.00  0.00    +0.000 C 
ATOM     11  O   UNL     1      46.487   2.822   5.409  0.00  0.00    +0.000 OA
ATOM     12  H   UNL     1      48.891   2.464   5.740  0.00  0.00    +0.000 HD
ATOM     13  H   UNL     1      48.863   2.467   7.467  0.00  0.00    +0.000 HD
ENDBRANCH   1  10
BRANCH   5  14
ATOM     14  C   UNL     1      43.790   5.159  11.737  0.00  0.00    +0.000 C 
ATOM     15  C   UNL     1      42.324   5.574  11.717  0.00  0.00    +0.000 C 
ATOM     16  C   UNL     1      43.301   6.271  10.827  0.00  0.00    +0.000 C 
BRANCH  14  17
ATOM     17  C   UNL     1      44.593   5.584  12.987  0.00  0.00    +0.000 C 
ATOM     18  C   UNL     1      45.598   6.717  12.745  0.00  0.00    +0.000 C 
ATOM     19  C   UNL     1      46.966   6.250  12.246  0.00  0.00    +0.000 C 
ATOM     20  N   UNL     1      47.528   5.149  13.036  0.00  0.00    +0.000 NA
ATOM     21  C   UNL     1      46.606   4.018  13.092  0.00  0.00    +0.000 C 
ATOM     22  C   UNL     1      45.268   4.411  13.711  0.00  0.00    +0.000 C 
ATOM     23  H   UNL     1      47.709   5.481  13.983  0.00  0.00    +0.000 HD
ENDBRANCH  14  17
ENDBRANCH   5  14
TORSDOF 3
ENDMDL
MODEL 2
REMARK VINA RESULT:    -5.500      2.223      3.370
REMARK INTER + INTRA:          -6.708
REMARK INTER:                  -6.462
REMARK INTRA:                  -0.246
REMARK UNBOUND:                -0.243
REMARK  Name = 
REMARK  3 active torsions:
REMARK  status: ('A' for Active; 'I' for Inactive)
REMARK    1  A    between atoms: C_2  and  C_4
REMARK    2  A    between atoms: N_8  and  C_9
REMARK    3  A    between atoms: C_9  and  C_10
REMARK                            x       y       z     vdW  Elec       q    Type
REMARK                         _______ _______ _______ _____ _____    ______ ____
ROOT
ATOM      1  C   UNL     1      44.876   3.998   9.935  0.00  0.00    +0.000 A 
ATOM      2  C   UNL     1      44.258   3.840  11.171  0.00  0.00    +0.000 A 
ATOM      3  C   UNL     1      44.326   4.881  12.099  0.00  0.00    +0.000 A 
ATOM      4  C   UNL     1      45.019   6.053  11.790  0.00  0.00    +0.000 A 
ATOM      5  N   UNL     1      44.989   7.105  12.718  0.00  0.00    +0.000 N 
ATOM      6  N   UNL     1      45.643   6.197  10.601  0.00  0.00    +0.000 NA
ATOM      7  C   UNL     1      45.569   5.177   9.708  0.00  0.00    +0.000 A 
ATOM      8  H   UNL     1      44.707   6.833  13.649  0.00  0.00    +0.000 HD
ENDROOT
BRANCH   1  10
ATOM      9  N   UNL     1      44.636   1.674   9.257  0.00  0.00    +0.000 N 
ATOM     10  C   UNL     1      44.829   2.973   8.869  0.00  0.00    +0.000 C 
ATOM     11  O   UNL     1      44.927   3.274   7.689  0.00  0.00    +0.000 OA
ATOM     12  H   UNL     1      44.503   1.002   8.512  0.00  0.00    +0.000 HD
ATOM     13  H   UNL     1      44.306   1.420  10.177  0.00  0.00    +0.000 HD
ENDBRANCH   1  10
BRANCH   5  14
ATOM     14  C   UNL     1      45.703   8.379  12.532  0.00  0.00    +0.000 C 
ATOM     15  C   UNL     1      44.790   9.599  12.555  0.00  0.00    +0.000 C 
ATOM     16  C   UNL     1      45.450   9.195  11.277  0.00  0.00    +0.000 C 
BRANCH  14  17
ATOM     17  C   UNL     1      47.079   8.556  13.211  0.00  0.00    +0.000 C 
ATOM     18  C   UNL     1      48.226   8.899  12.251  0.00  0.00    +0.000 C 
ATOM     19  C   UNL     1      48.897   7.683  11.611  0.00  0.00    +0.000 C 
ATOM     20  N   UNL     1      49.258   6.642  12.579  0.00  0.00    +0.000 NA
ATOM     21  C   UNL     1      48.095   6.218  13.354  0.00  0.00    +0.000 C 
ATOM     22  C   UNL     1      47.471   7.382  14.118  0.00  0.00    +0.000 C 
ATOM     23  H   UNL     1      49.966   7.013  13.213  0.00  0.00    +0.000 HD
ENDBRANCH  14  17
ENDBRANCH   5  14
TORSDOF 3
ENDMDL
MODEL 3
REMARK VINA RESULT:    -5.205      3.459      6.011
REMARK INTER + INTRA:          -6.361
REMARK INTER:                  -6.591
REMARK INTRA:                   0.230
REMARK UNBOUND:                -0.243
REMARK  Name = 
REMARK  3 active torsions:
REMARK  status: ('A' for Active; 'I' for Inactive)
REMARK    1  A    between atoms: C_2  and  C_4
REMARK    2  A    between atoms: N_8  and  C_9
REMARK    3  A    between atoms: C_9  and  C_10
REMARK                            x       y       z     vdW  Elec       q    Type
REMARK                         _______ _______ _______ _____ _____    ______ ____
ROOT
ATOM      1  C   UNL     1      48.342   9.229  11.832  0.00  0.00    +0.000 A 
ATOM      2  C   UNL     1      47.189   9.699  12.454  0.00  0.00    +0.000 A 
ATOM      3  C   UNL     1      46.275   8.778  12.968  0.00  0.00    +0.000 A 
ATOM      4  C   UNL     1      46.513   7.408  12.842  0.00  0.00    +0.000 A 
ATOM      5  N   UNL     1      45.610   6.520  13.448  0.00  0.00    +0.000 N 
ATOM      6  N   UNL     1      47.617   6.949  12.214  0.00  0.00    +0.000 NA
ATOM      7  C   UNL     1      48.497   7.857  11.719  0.00  0.00    +0.000 A 
ATOM      8  H   UNL     1      44.717   6.930  13.686  0.00  0.00    +0.000 HD
ENDROOT
BRANCH   1  10
ATOM      9  N   UNL     1      48.979  11.183  10.530  0.00  0.00    +0.000 N 
ATOM     10  C   UNL     1      49.390  10.121  11.290  0.00  0.00    +0.000 C 
ATOM     11  O   UNL     1      50.573   9.939  11.535  0.00  0.00    +0.000 OA
ATOM     12  H   UNL     1      49.698  11.839  10.254  0.00  0.00    +0.000 HD
ATOM     13  H   UNL     1      48.023  11.507  10.514  0.00  0.00    +0.000 HD
ENDBRANCH   1  10
BRANCH   5  14
ATOM     14  C   UNL     1      45.725   5.055  13.364  0.00  0.00    +0.000 C 
ATOM     15  C   UNL     1      46.364   4.421  14.593  0.00  0.00    +0.000 C 
ATOM     16  C   UNL     1      47.102   4.421  13.294  0.00  0.00    +0.000 C 
BRANCH  14  17
ATOM     17  C   UNL     1      44.561   4.263  12.727  0.00  0.00    +0.000 C 
ATOM     18  C   UNL     1      44.886   3.637  11.364  0.00  0.00    +0.000 C 
ATOM     19  C   UNL     1      44.666   4.571  10.173  0.00  0.00    +0.000 C 
ATOM     20  N   UNL     1      43.362   5.244  10.195  0.00  0.00    +0.000 NA
ATOM     21  C   UNL     1      43.169   5.975  11.443  0.00  0.00    +0.000 C 
ATOM     22  C   UNL     1      43.247   5.053  12.656  0.00  0.00    +0.000 C 
ATOM     23  H   UNL     1      42.628   4.543  10.100  0.00  0.00    +0.000 HD
ENDBRANCH  14  17
ENDBRANCH   5  14
TORSDOF 3
ENDMDL
MODEL 4
REMARK VINA RESULT:    -5.165      3.089      6.113
REMARK INTER + INTRA:          -6.314
REMARK INTER:                  -7.134
REMARK INTRA:                   0.820
REMARK UNBOUND:                -0.243
REMARK  Name = 
REMARK  3 active torsions:
REMARK  status: ('A' for Active; 'I' for Inactive)
REMARK    1  A    between atoms: C_2  and  C_4
REMARK    2  A    between atoms: N_8  and  C_9
REMARK    3  A    between atoms: C_9  and  C_10
REMARK                            x       y       z     vdW  Elec       q    Type
REMARK                         _______ _______ _______ _____ _____    ______ ____
ROOT
ATOM      1  C   UNL     1      47.505   5.647  14.240  0.00  0.00    +0.000 A 
ATOM      2  C   UNL     1      47.535   6.546  13.179  0.00  0.00    +0.000 A 
ATOM      3  C   UNL     1      46.746   6.292  12.056  0.00  0.00    +0.000 A 
ATOM      4  C   UNL     1      45.953   5.144  12.000  0.00  0.00    +0.000 A 
ATOM      5  N   UNL     1      45.111   4.974  10.890  0.00  0.00    +0.000 N 
ATOM      6  N   UNL     1      45.944   4.256  13.017  0.00  0.00    +0.000 NA
ATOM      7  C   UNL     1      46.717   4.515  14.103  0.00  0.00    +0.000 A 
ATOM      8  H   UNL     1      45.349   5.548  10.093  0.00  0.00    +0.000 HD
ENDROOT
BRANCH   1  10
ATOM      9  N   UNL     1      48.389   7.124  15.959  0.00  0.00    +0.000 N 
ATOM     10  C   UNL     1      48.273   5.843  15.489  0.00  0.00    +0.000 C 
ATOM     11  O   UNL     1      48.759   4.900  16.095  0.00  0.00    +0.000 OA
ATOM     12  H   UNL     1      48.827   7.228  16.865  0.00  0.00    +0.000 HD
ATOM     13  H   UNL     1      47.804   7.881  15.636  0.00  0.00    +0.000 HD
ENDBRANCH   1  10
BRANCH   5  14
ATOM     14  C   UNL     1      44.251   3.795  10.690  0.00  0.00    +0.000 C 
ATOM     15  C   UNL     1      43.007   3.793  11.570  0.00  0.00    +0.000 C 
ATOM     16  C   UNL     1      44.090   2.795  11.820  0.00  0.00    +0.000 C 
BRANCH  14  17
ATOM     17  C   UNL     1      44.061   3.260   9.254  0.00  0.00    +0.000 C 
ATOM     18  C   UNL     1      44.548   1.821   9.039  0.00  0.00    +0.000 C 
ATOM     19  C   UNL     1      46.033   1.704   8.694  0.00  0.00    +0.000 C 
ATOM     20  N   UNL     1      46.456   2.613   7.624  0.00  0.00    +0.000 NA
ATOM     21  C   UNL     1      46.129   3.998   7.951  0.00  0.00    +0.000 C 
ATOM     22  C   UNL     1      44.631   4.188   8.172  0.00  0.00    +0.000 C 
ATOM     23  H   UNL     1      45.979   2.351   6.762  0.00  0.00    +0.000 HD
ENDBRANCH  14  17
ENDBRANCH   5  14
TORSDOF 3
ENDMDL
MODEL 5
REMARK VINA RESULT:    -5.122      4.036      6.209
REMARK INTER + INTRA:          -6.263
REMARK INTER:                  -6.013
REMARK INTRA:                  -0.250
REMARK UNBOUND:                -0.243
REMARK  Name = 
REMARK  3 active torsions:
REMARK  status: ('A' for Active; 'I' for Inactive)
REMARK    1  A    between atoms: C_2  and  C_4
REMARK    2  A    between atoms: N_8  and  C_9
REMARK    3  A    between atoms: C_9  and  C_10
REMARK                            x       y       z     vdW  Elec       q    Type
REMARK                         _______ _______ _______ _____ _____    ______ ____
ROOT
ATOM      1  C   UNL     1      45.387   5.194  12.878  0.00  0.00    +0.000 A 
ATOM      2  C   UNL     1      44.810   6.450  12.715  0.00  0.00    +0.000 A 
ATOM      3  C   UNL     1      45.641   7.568  12.623  0.00  0.00    +0.000 A 
ATOM      4  C   UNL     1      47.027   7.422  12.708  0.00  0.00    +0.000 A 
ATOM      5  N   UNL     1      47.826   8.561  12.525  0.00  0.00    +0.000 N 
ATOM      6  N   UNL     1      47.587   6.207  12.894  0.00  0.00    +0.000 NA
ATOM      7  C   UNL     1      46.767   5.128  12.983  0.00  0.00    +0.000 A 
ATOM      8  H   UNL     1      47.334   9.437  12.624  0.00  0.00    +0.000 HD
ENDROOT
BRANCH   1  10
ATOM      9  N   UNL     1      45.202   2.796  12.508  0.00  0.00    +0.000 N 
ATOM     10  C   UNL     1      44.597   3.945  12.947  0.00  0.00    +0.000 C 
ATOM     11  O   UNL     1      43.465   3.929  13.404  0.00  0.00    +0.000 OA
ATOM     12  H   UNL     1      44.688   1.938  12.658  0.00  0.00    +0.000 HD
ATOM     13  H   UNL     1      46.198   2.723  12.363  0.00  0.00    +0.000 HD
ENDBRANCH   1  10
BRANCH   5  14
ATOM     14  C   UNL     1      49.296   8.552  12.623  0.00  0.00    +0.000 C 
ATOM     15  C   UNL     1      49.991   9.172  11.417  0.00  0.00    +0.000 C 
ATOM     16  C   UNL     1      50.098   7.701  11.655  0.00  0.00    +0.000 C 
BRANCH  14  17
ATOM     17  C   UNL     1      49.942   8.843  13.995  0.00  0.00    +0.000 C 
ATOM     18  C   UNL     1      50.375   7.594  14.775  0.00  0.00    +0.000 C 
ATOM     19  C   UNL     1      49.270   6.970  15.628  0.00  0.00    +0.000 C 
ATOM     20  N   UNL     1      48.559   7.944  16.463  0.00  0.00    +0.000 NA
ATOM     21  C   UNL     1      48.010   9.028  15.654  0.00  0.00    +0.000 C 
ATOM     22  C   UNL     1      49.101   9.768  14.886  0.00  0.00    +0.000 C 
ATOM     23  H   UNL     1      49.211   8.331  17.145  0.00  0.00    +0.000 HD
ENDBRANCH  14  17
ENDBRANCH   5  14
TORSDOF 3
ENDMDL
MODEL 6
REMARK VINA RESULT:    -4.963      5.127      7.639
REMARK INTER + INTRA:          -6.076
REMARK INTER:                  -5.810
REMARK INTRA:                  -0.266
REMARK UNBOUND:                -0.243
REMARK  Name = 
REMARK  3 active torsions:
REMARK  status: ('A' for Active; 'I' for Inactive)
REMARK    1  A    between atoms: C_2  and  C_4
REMARK    2  A    between atoms: N_8  and  C_9
REMARK    3  A    between atoms: C_9  and  C_10
REMARK                            x       y       z     vdW  Elec       q    Type
REMARK                         _______ _______ _______ _____ _____    ______ ____
ROOT
ATOM      1  C   UNL     1      46.636   4.964  13.887  0.00  0.00    +0.000 A 
ATOM      2  C   UNL     1      47.233   6.165  13.515  0.00  0.00    +0.000 A 
ATOM      3  C   UNL     1      48.266   6.678  14.301  0.00  0.00    +0.000 A 
ATOM      4  C   UNL     1      48.678   5.999  15.449  0.00  0.00    +0.000 A 
ATOM      5  N   UNL     1      49.776   6.506  16.161  0.00  0.00    +0.000 N 
ATOM      6  N   UNL     1      48.081   4.848  15.828  0.00  0.00    +0.000 NA
ATOM      7  C   UNL     1      47.077   4.361  15.054  0.00  0.00    +0.000 A 
ATOM      8  H   UNL     1      50.004   7.467  15.948  0.00  0.00    +0.000 HD
ENDROOT
BRANCH   1  10
ATOM      9  N   UNL     1      45.697   2.981  12.834  0.00  0.00    +0.000 N 
ATOM     10  C   UNL     1      45.561   4.317  13.102  0.00  0.00    +0.000 C 
ATOM     11  O   UNL     1      44.577   4.940  12.733  0.00  0.00    +0.000 OA
ATOM     12  H   UNL     1      44.908   2.534  12.388  0.00  0.00    +0.000 HD
ATOM     13  H   UNL     1      46.352   2.389  13.324  0.00  0.00    +0.000 HD
ENDBRANCH   1  10
BRANCH   5  14
ATOM     14  C   UNL     1      50.291   5.908  17.404  0.00  0.00    +0.000 C 
ATOM     15  C   UNL     1      51.754   5.492  17.320  0.00  0.00    +0.000 C 
ATOM     16  C   UNL     1      50.693   4.444  17.411  0.00  0.00    +0.000 C 
BRANCH  14  17
ATOM     17  C   UNL     1      49.839   6.513  18.751  0.00  0.00    +0.000 C 
ATOM     18  C   UNL     1      48.658   5.789  19.412  0.00  0.00    +0.000 C 
ATOM     19  C   UNL     1      47.283   6.267  18.941  0.00  0.00    +0.000 C 
ATOM     20  N   UNL     1      47.139   7.726  18.957  0.00  0.00    +0.000 NA
ATOM     21  C   UNL     1      48.186   8.368  18.168  0.00  0.00    +0.000 C 
ATOM     22  C   UNL     1      49.577   8.023  18.689  0.00  0.00    +0.000 C 
ATOM     23  H   UNL     1      47.198   8.053  19.922  0.00  0.00    +0.000 HD
ENDBRANCH  14  17
ENDBRANCH   5  14
TORSDOF 3
ENDMDL
MODEL 7
REMARK VINA RESULT:    -4.891      3.281      5.177
REMARK INTER + INTRA:          -5.992
REMARK INTER:                  -6.563
REMARK INTRA:                   0.571
REMARK UNBOUND:                -0.243
REMARK  Name = 
REMARK  3 active torsions:
REMARK  status: ('A' for Active; 'I' for Inactive)
REMARK    1  A    between atoms: C_2  and  C_4
REMARK    2  A    between atoms: N_8  and  C_9
REMARK    3  A    between atoms: C_9  and  C_10
REMARK                            x       y       z     vdW  Elec       q    Type
REMARK                         _______ _______ _______ _____ _____    ______ ____
ROOT
ATOM      1  C   UNL     1      45.004   3.765  11.625  0.00  0.00    +0.000 A 
ATOM      2  C   UNL     1      45.778   3.390  12.719  0.00  0.00    +0.000 A 
ATOM      3  C   UNL     1      46.610   4.339  13.315  0.00  0.00    +0.000 A 
ATOM      4  C   UNL     1      46.670   5.638  12.807  0.00  0.00    +0.000 A 
ATOM      5  N   UNL     1      47.454   6.581  13.489  0.00  0.00    +0.000 N 
ATOM      6  N   UNL     1      45.941   5.997  11.728  0.00  0.00    +0.000 NA
ATOM      7  C   UNL     1      45.137   5.063  11.158  0.00  0.00    +0.000 A 
ATOM      8  H   UNL     1      48.129   6.181  14.126  0.00  0.00    +0.000 HD
ENDROOT
BRANCH   1  10
ATOM      9  N   UNL     1      44.525   2.175   9.847  0.00  0.00    +0.000 N 
ATOM     10  C   UNL     1      44.063   2.847  10.947  0.00  0.00    +0.000 C 
ATOM     11  O   UNL     1      42.929   2.670  11.367  0.00  0.00    +0.000 OA
ATOM     12  H   UNL     1      43.904   1.477   9.459  0.00  0.00    +0.000 HD
ATOM     13  H   UNL     1      45.507   2.102   9.622  0.00  0.00    +0.000 HD
ENDBRANCH   1  10
BRANCH   5  14
ATOM     14  C   UNL     1      47.631   7.973  13.043  0.00  0.00    +0.000 C 
ATOM     15  C   UNL     1      47.718   8.975  14.188  0.00  0.00    +0.000 C 
ATOM     16  C   UNL     1      46.522   8.979  13.292  0.00  0.00    +0.000 C 
BRANCH  14  17
ATOM     17  C   UNL     1      48.560   8.246  11.839  0.00  0.00    +0.000 C 
ATOM     18  C   UNL     1      49.932   7.564  11.924  0.00  0.00    +0.000 C 
ATOM     19  C   UNL     1      50.987   8.364  12.690  0.00  0.00    +0.000 C 
ATOM     20  N   UNL     1      51.073   9.766  12.268  0.00  0.00    +0.000 NA
ATOM     21  C   UNL     1      49.775  10.427  12.370  0.00  0.00    +0.000 C 
ATOM     22  C   UNL     1      48.720   9.736  11.512  0.00  0.00    +0.000 C 
ATOM     23  H   UNL     1      51.390   9.799  11.299  0.00  0.00    +0.000 HD
ENDBRANCH  14  17
ENDBRANCH   5  14
TORSDOF 3
ENDMDL
MODEL 8
REMARK VINA RESULT:    -4.815      3.540      6.085
REMARK INTER + INTRA:          -5.902
REMARK INTER:                  -7.014
REMARK INTRA:                   1.112
REMARK UNBOUND:                -0.243
REMARK  Name = 
REMARK  3 active torsions:
REMARK  status: ('A' for Active; 'I' for Inactive)
REMARK    1  A    between atoms: C_2  and  C_4
REMARK    2  A    between atoms: N_8  and  C_9
REMARK    3  A    between atoms: C_9  and  C_10
REMARK                            x       y       z     vdW  Elec       q    Type
REMARK                         _______ _______ _______ _____ _____    ______ ____
ROOT
ATOM      1  C   UNL     1      48.312   8.318  13.507  0.00  0.00    +0.000 A 
ATOM      2  C   UNL     1      47.344   9.277  13.228  0.00  0.00    +0.000 A 
ATOM      3  C   UNL     1      46.082   8.861  12.802  0.00  0.00    +0.000 A 
ATOM      4  C   UNL     1      45.808   7.501  12.645  0.00  0.00    +0.000 A 
ATOM      5  N   UNL     1      44.501   7.124  12.297  0.00  0.00    +0.000 N 
ATOM      6  N   UNL     1      46.754   6.568  12.888  0.00  0.00    +0.000 NA
ATOM      7  C   UNL     1      47.978   6.988  13.301  0.00  0.00    +0.000 A 
ATOM      8  H   UNL     1      43.938   7.871  11.918  0.00  0.00    +0.000 HD
ENDROOT
BRANCH   1  10
ATOM      9  N   UNL     1      50.664   7.747  13.758  0.00  0.00    +0.000 N 
ATOM     10  C   UNL     1      49.666   8.653  14.001  0.00  0.00    +0.000 C 
ATOM     11  O   UNL     1      49.893   9.707  14.575  0.00  0.00    +0.000 OA
ATOM     12  H   UNL     1      51.599   8.038  14.010  0.00  0.00    +0.000 HD
ATOM     13  H   UNL     1      50.574   7.002  13.083  0.00  0.00    +0.000 HD
ENDBRANCH   1  10
BRANCH   5  14
ATOM     14  C   UNL     1      44.087   5.729  12.069  0.00  0.00    +0.000 C 
ATOM     15  C   UNL     1      42.638   5.590  11.617  0.00  0.00    +0.000 C 
ATOM     16  C   UNL     1      43.038   5.109  12.974  0.00  0.00    +0.000 C 
BRANCH  14  17
ATOM     17  C   UNL     1      45.094   4.764  11.406  0.00  0.00    +0.000 C 
ATOM     18  C   UNL     1      45.276   4.969   9.896  0.00  0.00    +0.000 C 
ATOM     19  C   UNL     1      44.262   4.219   9.032  0.00  0.00    +0.000 C 
ATOM     20  N   UNL     1      44.114   2.807   9.401  0.00  0.00    +0.000 NA
ATOM     21  C   UNL     1      43.766   2.666  10.811  0.00  0.00    +0.000 C 
ATOM     22  C   UNL     1      44.824   3.286  11.719  0.00  0.00    +0.000 C 
ATOM     23  H   UNL     1      44.996   2.326   9.223  0.00  0.00    +0.000 HD
ENDBRANCH  14  17
ENDBRANCH   5  14
TORSDOF 3
ENDMDL
MODEL 9
REMARK VINA RESULT:    -4.741      5.423      7.220
REMARK INTER + INTRA:          -5.816
REMARK INTER:                  -5.561
REMARK INTRA:                  -0.255
REMARK UNBOUND:                -0.243
REMARK  Name = 
REMARK  3 active torsions:
REMARK  status: ('A' for Active; 'I' for Inactive)
REMARK    1  A    between atoms: C_2  and  C_4
REMARK    2  A    between atoms: N_8  and  C_9
REMARK    3  A    between atoms: C_9  and  C_10
REMARK                            x       y       z     vdW  Elec       q    Type
REMARK                         _______ _______ _______ _____ _____    ______ ____
ROOT
ATOM      1  C   UNL     1      48.911   6.783  13.316  0.00  0.00    +0.000 A 
ATOM      2  C   UNL     1      47.826   5.917  13.232  0.00  0.00    +0.000 A 
ATOM      3  C   UNL     1      47.328   5.340  14.402  0.00  0.00    +0.000 A 
ATOM      4  C   UNL     1      47.925   5.623  15.632  0.00  0.00    +0.000 A 
ATOM      5  N   UNL     1      47.340   5.090  16.791  0.00  0.00    +0.000 N 
ATOM      6  N   UNL     1      48.997   6.441  15.713  0.00  0.00    +0.000 NA
ATOM      7  C   UNL     1      49.470   6.994  14.567  0.00  0.00    +0.000 A 
ATOM      8  H   UNL     1      46.704   4.323  16.623  0.00  0.00    +0.000 HD
ENDROOT
BRANCH   1  10
ATOM      9  N   UNL     1      50.847   7.640  12.117  0.00  0.00    +0.000 N 
ATOM     10  C   UNL     1      49.488   7.475  12.142  0.00  0.00    +0.000 C 
ATOM     11  O   UNL     1      48.787   7.855  11.218  0.00  0.00    +0.000 OA
ATOM     12  H   UNL     1      51.233   8.021  11.264  0.00  0.00    +0.000 HD
ATOM     13  H   UNL     1      51.472   7.130  12.724  0.00  0.00    +0.000 HD
ENDBRANCH   1  10
BRANCH   5  14
ATOM     14  C   UNL     1      47.886   5.281  18.145  0.00  0.00    +0.000 C 
ATOM     15  C   UNL     1      46.929   5.992  19.094  0.00  0.00    +0.000 C 
ATOM     16  C   UNL     1      48.170   6.689  18.638  0.00  0.00    +0.000 C 
BRANCH  14  17
ATOM     17  C   UNL     1      48.727   4.144  18.765  0.00  0.00    +0.000 C 
ATOM     18  C   UNL     1      50.241   4.396  18.766  0.00  0.00    +0.000 C 
ATOM     19  C   UNL     1      50.950   3.977  17.478  0.00  0.00    +0.000 C 
ATOM     20  N   UNL     1      50.599   2.623  17.035  0.00  0.00    +0.000 NA
ATOM     21  C   UNL     1      49.155   2.480  16.877  0.00  0.00    +0.000 C 
ATOM     22  C   UNL     1      48.413   2.760  18.181  0.00  0.00    +0.000 C 
ATOM     23  H   UNL     1      50.929   1.953  17.730  0.00  0.00    +0.000 HD
ENDBRANCH  14  17
ENDBRANCH   5  14
TORSDOF 3
ENDMDL
