MODEL 1
REMARK VINA RESULT:    -8.217      0.000      0.000
REMARK INTER + INTRA:         -12.213
REMARK INTER:                 -11.099
REMARK INTRA:                  -1.114
REMARK UNBOUND:                -1.114
REMARK  Name = 
REMARK  6 active torsions:
REMARK  status: ('A' for Active; 'I' for Inactive)
REMARK    1  A    between atoms: C_2  and  C_25
REMARK    2  A    between atoms: N_3  and  C_4
REMARK    3  A    between atoms: C_4  and  C_5
REMARK    4  A    between atoms: C_8  and  C_9
REMARK    5  A    between atoms: C_9  and  N_10
REMARK    6  A    between atoms: C_11  and  C_13
REMARK                            x       y       z     vdW  Elec       q    Type
REMARK                         _______ _______ _______ _____ _____    ______ ____
ROOT
ATOM      1  C   UNL     1      44.785   5.823  10.834  0.00  0.00    +0.000 A 
ATOM      2  C   UNL     1      44.173   6.567  11.853  0.00  0.00    +0.000 A 
ATOM      3  C   UNL     1      44.937   7.356  12.723  0.00  0.00    +0.000 A 
ATOM      4  C   UNL     1      46.329   7.432  12.583  0.00  0.00    +0.000 A 
ATOM      5  C   UNL     1      46.941   6.679  11.572  0.00  0.00    +0.000 A 
ATOM      6  C   UNL     1      46.178   5.894  10.699  0.00  0.00    +0.000 A 
ENDROOT
BRANCH   1   7
ATOM      7  C   UNL     1      43.961   4.955   9.919  0.00  0.00    +0.000 C 
BRANCH   7  10
ATOM      8  O   UNL     1      44.448   2.161   9.994  0.00  0.00    +0.000 OA
ATOM      9  C   UNL     1      44.944   2.859   9.122  0.00  0.00    +0.000 C 
ATOM     10  N   UNL     1      44.757   4.215   8.976  0.00  0.00    +0.000 N 
ATOM     11  H   UNL     1      45.242   4.682   8.214  0.00  0.00    +0.000 HD
BRANCH   9  12
ATOM     12  C   UNL     1      45.856   2.242   8.096  0.00  0.00    +0.000 C 
ATOM     13  C   UNL     1      46.320   2.968   6.902  0.00  0.00    +0.000 C 
ATOM     14  C   UNL     1      47.147   2.009   6.239  0.00  0.00    +0.000 C 
ATOM     15  C   UNL     1      47.116   0.913   7.012  0.00  0.00    +0.000 C 
ATOM     16  N   UNL     1      46.333   1.019   8.153  0.00  0.00    +0.000 NA
ENDBRANCH   9  12
ENDBRANCH   7  10
ENDBRANCH   1   7
BRANCH   4  17
ATOM     17  C   UNL     1      47.163   8.291  13.502  0.00  0.00    +0.000 C 
BRANCH  17  18
ATOM     18  N   UNL     1      47.576   7.572  14.682  0.00  0.00    +0.000 N 
ATOM     19  C   UNL     1      48.794   6.936  14.739  0.00  0.00    +0.000 C 
ATOM     20  O   UNL     1      49.601   6.989  13.818  0.00  0.00    +0.000 OA
ATOM     21  H   UNL     1      46.847   7.312  15.339  0.00  0.00    +0.000 HD
BRANCH  19  22
ATOM     22  C   UNL     1      49.102   6.233  15.994  0.00  0.00    +0.000 A 
ATOM     23  C   UNL     1      50.159   6.662  16.785  0.00  0.00    +0.000 A 
ATOM     24  S   UNL     1      50.344   5.767  18.227  0.00  0.00    +0.000 S 
ATOM     25  C   UNL     1      49.056   4.735  17.814  0.00  0.00    +0.000 A 
ATOM     26  N   UNL     1      48.701   3.701  18.624  0.00  0.00    +0.000 NA
ATOM     27  C   UNL     1      47.731   2.979  18.172  0.00  0.00    +0.000 A 
ATOM     28  N   UNL     1      47.078   3.201  16.988  0.00  0.00    +0.000 N 
ATOM     29  C   UNL     1      47.378   4.254  16.157  0.00  0.00    +0.000 A 
ATOM     30  O   UNL     1      46.735   4.456  15.131  0.00  0.00    +0.000 OA
ATOM     31  C   UNL     1      48.477   5.086  16.607  0.00  0.00    +0.000 A 
ATOM     32  H   UNL     1      46.315   2.608  16.696  0.00  0.00    +0.000 HD
ENDBRANCH  19  22
ENDBRANCH  17  18
ENDBRANCH   4  17
TORSDOF 6
ENDMDL
MODEL 2
REMARK VINA RESULT:    -7.571      1.953      2.336
REMARK INTER + INTRA:         -11.341
REMARK INTER:                 -10.412
REMARK INTRA:                  -0.929
REMARK UNBOUND:                -1.114
REMARK  Name = 
REMARK  6 active torsions:
REMARK  status: ('A' for Active; 'I' for Inactive)
REMARK    1  A    between atoms: C_2  and  C_25
REMARK    2  A    between atoms: N_3  and  C_4
REMARK    3  A    between atoms: C_4  and  C_5
REMARK    4  A    between atoms: C_8  and  C_9
REMARK    5  A    between atoms: C_9  and  N_10
REMARK    6  A    between atoms: C_11  and  C_13
REMARK                            x       y       z     vdW  Elec       q    Type
REMARK                         _______ _______ _______ _____ _____    ______ ____
ROOT
ATOM      1  C   UNL     1      44.726   4.881  11.764  0.00  0.00    +0.000 A 
ATOM      2  C   UNL     1      44.423   6.067  11.082  0.00  0.00    +0.000 A 
ATOM      3  C   UNL     1      44.936   7.297  11.517  0.00  0.00    +0.000 A 
ATOM      4  C   UNL     1      45.779   7.365  12.634  0.00  0.00    +0.000 A 
ATOM      5  C   UNL     1      46.072   6.179  13.323  0.00  0.00    +0.000 A 
ATOM      6  C   UNL     1      45.563   4.951  12.886  0.00  0.00    +0.000 A 
ENDROOT
BRANCH   1   7
ATOM      7  C   UNL     1      44.149   3.566  11.308  0.00  0.00    +0.000 C 
BRANCH   7  10
ATOM      8  O   UNL     1      44.272   3.882   8.492  0.00  0.00    +0.000 OA
ATOM      9  C   UNL     1      44.981   3.065   9.061  0.00  0.00    +0.000 C 
ATOM     10  N   UNL     1      45.021   2.845  10.420  0.00  0.00    +0.000 N 
ATOM     11  H   UNL     1      45.646   2.121  10.765  0.00  0.00    +0.000 HD
BRANCH   9  12
ATOM     12  C   UNL     1      45.904   2.187   8.260  0.00  0.00    +0.000 C 
ATOM     13  C   UNL     1      46.818   2.716   7.234  0.00  0.00    +0.000 C 
ATOM     14  C   UNL     1      47.482   1.545   6.755  0.00  0.00    +0.000 C 
ATOM     15  C   UNL     1      46.970   0.527   7.463  0.00  0.00    +0.000 C 
ATOM     16  N   UNL     1      46.000   0.883   8.389  0.00  0.00    +0.000 NA
ENDBRANCH   9  12
ENDBRANCH   7  10
ENDBRANCH   1   7
BRANCH   4  17
ATOM     17  C   UNL     1      46.353   8.679  13.103  0.00  0.00    +0.000 C 
BRANCH  17  18
ATOM     18  N   UNL     1      46.902   8.581  14.433  0.00  0.00    +0.000 N 
ATOM     19  C   UNL     1      48.119   9.141  14.745  0.00  0.00    +0.000 C 
ATOM     20  O   UNL     1      48.768   9.786  13.930  0.00  0.00    +0.000 OA
ATOM     21  H   UNL     1      46.514   7.863  15.037  0.00  0.00    +0.000 HD
BRANCH  19  22
ATOM     22  C   UNL     1      48.575   8.972  16.134  0.00  0.00    +0.000 A 
ATOM     23  C   UNL     1      48.638  10.072  16.979  0.00  0.00    +0.000 A 
ATOM     24  S   UNL     1      49.139   9.689  18.565  0.00  0.00    +0.000 S 
ATOM     25  C   UNL     1      49.350   8.050  18.161  0.00  0.00    +0.000 A 
ATOM     26  N   UNL     1      49.804   7.155  19.080  0.00  0.00    +0.000 NA
ATOM     27  C   UNL     1      49.950   5.954  18.627  0.00  0.00    +0.000 A 
ATOM     28  N   UNL     1      49.674   5.565  17.343  0.00  0.00    +0.000 N 
ATOM     29  C   UNL     1      49.178   6.425  16.393  0.00  0.00    +0.000 A 
ATOM     30  O   UNL     1      48.888   6.030  15.268  0.00  0.00    +0.000 OA
ATOM     31  C   UNL     1      49.016   7.795  16.842  0.00  0.00    +0.000 A 
ATOM     32  H   UNL     1      49.794   4.605  17.054  0.00  0.00    +0.000 HD
ENDBRANCH  19  22
ENDBRANCH  17  18
ENDBRANCH   4  17
TORSDOF 6
ENDMDL
MODEL 3
REMARK VINA RESULT:    -6.666      1.785      2.421
REMARK INTER + INTRA:         -10.118
REMARK INTER:                  -9.071
REMARK INTRA:                  -1.048
REMARK UNBOUND:                -1.114
REMARK  Name = 
REMARK  6 active torsions:
REMARK  status: ('A' for Active; 'I' for Inactive)
REMARK    1  A    between atoms: C_2  and  C_25
REMARK    2  A    between atoms: N_3  and  C_4
REMARK    3  A    between atoms: C_4  and  C_5
REMARK    4  A    between atoms: C_8  and  C_9
REMARK    5  A    between atoms: C_9  and  N_10
REMARK    6  A    between atoms: C_11  and  C_13
REMARK                            x       y       z     vdW  Elec       q    Type
REMARK                         _______ _______ _______ _____ _____    ______ ____
ROOT
ATOM      1  C   UNL     1      45.934   7.033  12.106  0.00  0.00    +0.000 A 
ATOM      2  C   UNL     1      47.072   6.280  12.426  0.00  0.00    +0.000 A 
ATOM      3  C   UNL     1      48.083   6.815  13.235  0.00  0.00    +0.000 A 
ATOM      4  C   UNL     1      47.970   8.110  13.756  0.00  0.00    +0.000 A 
ATOM      5  C   UNL     1      46.838   8.868  13.426  0.00  0.00    +0.000 A 
ATOM      6  C   UNL     1      45.825   8.331  12.622  0.00  0.00    +0.000 A 
ENDROOT
BRANCH   1   7
ATOM      7  C   UNL     1      44.863   6.461  11.213  0.00  0.00    +0.000 C 
BRANCH   7  10
ATOM      8  O   UNL     1      43.853   3.982  10.272  0.00  0.00    +0.000 OA
ATOM      9  C   UNL     1      44.833   4.496   9.754  0.00  0.00    +0.000 C 
ATOM     10  N   UNL     1      45.393   5.702  10.112  0.00  0.00    +0.000 N 
ATOM     11  H   UNL     1      46.221   6.010   9.609  0.00  0.00    +0.000 HD
BRANCH   9  12
ATOM     12  C   UNL     1      45.542   3.791   8.628  0.00  0.00    +0.000 C 
ATOM     13  C   UNL     1      45.703   2.328   8.578  0.00  0.00    +0.000 C 
ATOM     14  C   UNL     1      46.415   2.121   7.357  0.00  0.00    +0.000 C 
ATOM     15  C   UNL     1      46.594   3.343   6.833  0.00  0.00    +0.000 C 
ATOM     16  N   UNL     1      46.076   4.387   7.586  0.00  0.00    +0.000 NA
ENDBRANCH   9  12
ENDBRANCH   7  10
ENDBRANCH   1   7
BRANCH   4  17
ATOM     17  C   UNL     1      49.044   8.694  14.642  0.00  0.00    +0.000 C 
BRANCH  17  18
ATOM     18  N   UNL     1      49.199   7.943  15.863  0.00  0.00    +0.000 N 
ATOM     19  C   UNL     1      48.568   8.329  17.023  0.00  0.00    +0.000 C 
ATOM     20  O   UNL     1      47.813   9.293  17.065  0.00  0.00    +0.000 OA
ATOM     21  H   UNL     1      49.988   7.308  15.914  0.00  0.00    +0.000 HD
BRANCH  19  22
ATOM     22  C   UNL     1      48.804   7.484  18.204  0.00  0.00    +0.000 A 
ATOM     23  C   UNL     1      49.268   8.057  19.381  0.00  0.00    +0.000 A 
ATOM     24  S   UNL     1      49.438   6.943  20.663  0.00  0.00    +0.000 S 
ATOM     25  C   UNL     1      48.958   5.646  19.672  0.00  0.00    +0.000 A 
ATOM     26  N   UNL     1      48.918   4.374  20.155  0.00  0.00    +0.000 NA
ATOM     27  C   UNL     1      48.570   3.485  19.285  0.00  0.00    +0.000 A 
ATOM     28  N   UNL     1      48.250   3.753  17.980  0.00  0.00    +0.000 N 
ATOM     29  C   UNL     1      48.241   5.025  17.460  0.00  0.00    +0.000 A 
ATOM     30  O   UNL     1      47.895   5.236  16.302  0.00  0.00    +0.000 OA
ATOM     31  C   UNL     1      48.646   6.062  18.390  0.00  0.00    +0.000 A 
ATOM     32  H   UNL     1      47.970   3.014  17.351  0.00  0.00    +0.000 HD
ENDBRANCH  19  22
ENDBRANCH  17  18
ENDBRANCH   4  17
TORSDOF 6
ENDMDL
MODEL 4
REMARK VINA RESULT:    -6.542      3.892      4.825
REMARK INTER + INTRA:          -9.950
REMARK INTER:                  -9.053
REMARK INTRA:                  -0.897
REMARK UNBOUND:                -1.114
REMARK  Name = 
REMARK  6 active torsions:
REMARK  status: ('A' for Active; 'I' for Inactive)
REMARK    1  A    between atoms: C_2  and  C_25
REMARK    2  A    between atoms: N_3  and  C_4
REMARK    3  A    between atoms: C_4  and  C_5
REMARK    4  A    between atoms: C_8  and  C_9
REMARK    5  A    between atoms: C_9  and  N_10
REMARK    6  A    between atoms: C_11  and  C_13
REMARK                            x       y       z     vdW  Elec       q    Type
REMARK                         _______ _______ _______ _____ _____    ______ ____
ROOT
ATOM      1  C   UNL     1      44.573   4.647  11.588  0.00  0.00    +0.000 A 
ATOM      2  C   UNL     1      44.845   5.664  10.662  0.00  0.00    +0.000 A 
ATOM      3  C   UNL     1      45.132   6.967  11.090  0.00  0.00    +0.000 A 
ATOM      4  C   UNL     1      45.170   7.278  12.456  0.00  0.00    +0.000 A 
ATOM      5  C   UNL     1      44.886   6.264  13.381  0.00  0.00    +0.000 A 
ATOM      6  C   UNL     1      44.605   4.961  12.953  0.00  0.00    +0.000 A 
ENDROOT
BRANCH   1   7
ATOM      7  C   UNL     1      44.238   3.255  11.120  0.00  0.00    +0.000 C 
BRANCH   7  10
ATOM      8  O   UNL     1      44.115   3.448   8.292  0.00  0.00    +0.000 OA
ATOM      9  C   UNL     1      45.034   2.856   8.839  0.00  0.00    +0.000 C 
ATOM     10  N   UNL     1      45.206   2.721  10.199  0.00  0.00    +0.000 N 
ATOM     11  H   UNL     1      46.008   2.188  10.525  0.00  0.00    +0.000 HD
BRANCH   9  12
ATOM     12  C   UNL     1      46.095   2.186   8.008  0.00  0.00    +0.000 C 
ATOM     13  C   UNL     1      46.956   2.924   7.068  0.00  0.00    +0.000 C 
ATOM     14  C   UNL     1      47.792   1.902   6.522  0.00  0.00    +0.000 C 
ATOM     15  C   UNL     1      47.406   0.765   7.120  0.00  0.00    +0.000 C 
ATOM     16  N   UNL     1      46.369   0.902   8.031  0.00  0.00    +0.000 NA
ENDBRANCH   9  12
ENDBRANCH   7  10
ENDBRANCH   1   7
BRANCH   4  17
ATOM     17  C   UNL     1      45.495   8.673  12.932  0.00  0.00    +0.000 C 
BRANCH  17  18
ATOM     18  N   UNL     1      46.902   8.965  12.819  0.00  0.00    +0.000 N 
ATOM     19  C   UNL     1      47.353  10.032  12.077  0.00  0.00    +0.000 C 
ATOM     20  O   UNL     1      46.585  10.808  11.519  0.00  0.00    +0.000 OA
ATOM     21  H   UNL     1      47.546   8.217  13.057  0.00  0.00    +0.000 HD
BRANCH  19  22
ATOM     22  C   UNL     1      48.810  10.226  12.035  0.00  0.00    +0.000 A 
ATOM     23  C   UNL     1      49.348  11.478  12.301  0.00  0.00    +0.000 A 
ATOM     24  S   UNL     1      51.054  11.513  12.259  0.00  0.00    +0.000 S 
ATOM     25  C   UNL     1      51.131   9.871  11.822  0.00  0.00    +0.000 A 
ATOM     26  N   UNL     1      52.327   9.263  11.593  0.00  0.00    +0.000 NA
ATOM     27  C   UNL     1      52.235   8.025  11.235  0.00  0.00    +0.000 A 
ATOM     28  N   UNL     1      51.058   7.338  11.096  0.00  0.00    +0.000 N 
ATOM     29  C   UNL     1      49.831   7.900  11.353  0.00  0.00    +0.000 A 
ATOM     30  O   UNL     1      48.800   7.240  11.273  0.00  0.00    +0.000 OA
ATOM     31  C   UNL     1      49.874   9.298  11.737  0.00  0.00    +0.000 A 
ATOM     32  H   UNL     1      51.054   6.365  10.827  0.00  0.00    +0.000 HD
ENDBRANCH  19  22
ENDBRANCH  17  18
ENDBRANCH   4  17
TORSDOF 6
ENDMDL
MODEL 5
REMARK VINA RESULT:    -6.303      2.368      3.271
REMARK INTER + INTRA:          -9.628
REMARK INTER:                  -8.861
REMARK INTRA:                  -0.767
REMARK UNBOUND:                -1.114
REMARK  Name = 
REMARK  6 active torsions:
REMARK  status: ('A' for Active; 'I' for Inactive)
REMARK    1  A    between atoms: C_2  and  C_25
REMARK    2  A    between atoms: N_3  and  C_4
REMARK    3  A    between atoms: C_4  and  C_5
REMARK    4  A    between atoms: C_8  and  C_9
REMARK    5  A    between atoms: C_9  and  N_10
REMARK    6  A    between atoms: C_11  and  C_13
REMARK                            x       y       z     vdW  Elec       q    Type
REMARK                         _______ _______ _______ _____ _____    ______ ____
ROOT
ATOM      1  C   UNL     1      45.152   4.935  11.868  0.00  0.00    +0.000 A 
ATOM      2  C   UNL     1      45.131   6.260  11.411  0.00  0.00    +0.000 A 
ATOM      3  C   UNL     1      45.892   7.250  12.046  0.00  0.00    +0.000 A 
ATOM      4  C   UNL     1      46.706   6.934  13.141  0.00  0.00    +0.000 A 
ATOM      5  C   UNL     1      46.718   5.611  13.605  0.00  0.00    +0.000 A 
ATOM      6  C   UNL     1      45.961   4.621  12.968  0.00  0.00    +0.000 A 
ENDROOT
BRANCH   1   7
ATOM      7  C   UNL     1      44.310   3.880  11.198  0.00  0.00    +0.000 C 
BRANCH   7  10
ATOM      8  O   UNL     1      44.851   4.307   8.446  0.00  0.00    +0.000 OA
ATOM      9  C   UNL     1      45.255   3.303   9.015  0.00  0.00    +0.000 C 
ATOM     10  N   UNL     1      45.072   3.006  10.347  0.00  0.00    +0.000 N 
ATOM     11  H   UNL     1      45.446   2.127  10.692  0.00  0.00    +0.000 HD
BRANCH   9  12
ATOM     12  C   UNL     1      46.015   2.259   8.242  0.00  0.00    +0.000 C 
ATOM     13  C   UNL     1      46.984   2.596   7.186  0.00  0.00    +0.000 C 
ATOM     14  C   UNL     1      47.448   1.317   6.750  0.00  0.00    +0.000 C 
ATOM     15  C   UNL     1      46.794   0.421   7.504  0.00  0.00    +0.000 C 
ATOM     16  N   UNL     1      45.907   0.962   8.424  0.00  0.00    +0.000 NA
ENDBRANCH   9  12
ENDBRANCH   7  10
ENDBRANCH   1   7
BRANCH   4  17
ATOM     17  C   UNL     1      47.546   7.987  13.823  0.00  0.00    +0.000 C 
BRANCH  17  18
ATOM     18  N   UNL     1      48.269   7.450  14.949  0.00  0.00    +0.000 N 
ATOM     19  C   UNL     1      48.465   8.191  16.091  0.00  0.00    +0.000 C 
ATOM     20  O   UNL     1      47.998   9.317  16.225  0.00  0.00    +0.000 OA
ATOM     21  H   UNL     1      48.858   6.642  14.773  0.00  0.00    +0.000 HD
BRANCH  19  22
ATOM     22  C   UNL     1      49.220   7.536  17.170  0.00  0.00    +0.000 A 
ATOM     23  C   UNL     1      48.669   6.451  17.838  0.00  0.00    +0.000 A 
ATOM     24  S   UNL     1      49.699   5.782  19.024  0.00  0.00    +0.000 S 
ATOM     25  C   UNL     1      50.892   6.958  18.729  0.00  0.00    +0.000 A 
ATOM     26  N   UNL     1      52.048   6.978  19.446  0.00  0.00    +0.000 NA
ATOM     27  C   UNL     1      52.848   7.945  19.141  0.00  0.00    +0.000 A 
ATOM     28  N   UNL     1      52.601   8.888  18.178  0.00  0.00    +0.000 N 
ATOM     29  C   UNL     1      51.465   8.885  17.404  0.00  0.00    +0.000 A 
ATOM     30  O   UNL     1      51.303   9.711  16.512  0.00  0.00    +0.000 OA
ATOM     31  C   UNL     1      50.520   7.831  17.721  0.00  0.00    +0.000 A 
ATOM     32  H   UNL     1      53.275   9.611  17.976  0.00  0.00    +0.000 HD
ENDBRANCH  19  22
ENDBRANCH  17  18
ENDBRANCH   4  17
TORSDOF 6
ENDMDL
MODEL 6
REMARK VINA RESULT:    -6.093      3.404      4.696
REMARK INTER + INTRA:          -9.344
REMARK INTER:                  -8.758
REMARK INTRA:                  -0.586
REMARK UNBOUND:                -1.114
REMARK  Name = 
REMARK  6 active torsions:
REMARK  status: ('A' for Active; 'I' for Inactive)
REMARK    1  A    between atoms: C_2  and  C_25
REMARK    2  A    between atoms: N_3  and  C_4
REMARK    3  A    between atoms: C_4  and  C_5
REMARK    4  A    between atoms: C_8  and  C_9
REMARK    5  A    between atoms: C_9  and  N_10
REMARK    6  A    between atoms: C_11  and  C_13
REMARK                            x       y       z     vdW  Elec       q    Type
REMARK                         _______ _______ _______ _____ _____    ______ ____
ROOT
ATOM      1  C   UNL     1      45.121   5.142  11.747  0.00  0.00    +0.000 A 
ATOM      2  C   UNL     1      45.303   6.380  11.116  0.00  0.00    +0.000 A 
ATOM      3  C   UNL     1      45.965   7.429  11.768  0.00  0.00    +0.000 A 
ATOM      4  C   UNL     1      46.476   7.256  13.061  0.00  0.00    +0.000 A 
ATOM      5  C   UNL     1      46.284   6.022  13.697  0.00  0.00    +0.000 A 
ATOM      6  C   UNL     1      45.627   4.973  13.043  0.00  0.00    +0.000 A 
ENDROOT
BRANCH   1   7
ATOM      7  C   UNL     1      44.384   4.028  11.051  0.00  0.00    +0.000 C 
BRANCH   7  10
ATOM      8  O   UNL     1      44.421   4.163   8.217  0.00  0.00    +0.000 OA
ATOM      9  C   UNL     1      45.146   3.382   8.815  0.00  0.00    +0.000 C 
ATOM     10  N   UNL     1      45.228   3.249  10.184  0.00  0.00    +0.000 N 
ATOM     11  H   UNL     1      45.862   2.547  10.555  0.00  0.00    +0.000 HD
BRANCH   9  12
ATOM     12  C   UNL     1      46.043   2.451   8.045  0.00  0.00    +0.000 C 
ATOM     13  C   UNL     1      46.926   2.911   6.959  0.00  0.00    +0.000 C 
ATOM     14  C   UNL     1      47.573   1.710   6.536  0.00  0.00    +0.000 C 
ATOM     15  C   UNL     1      47.082   0.740   7.322  0.00  0.00    +0.000 C 
ATOM     16  N   UNL     1      46.142   1.158   8.253  0.00  0.00    +0.000 NA
ENDBRANCH   9  12
ENDBRANCH   7  10
ENDBRANCH   1   7
BRANCH   4  17
ATOM     17  C   UNL     1      47.207   8.371  13.769  0.00  0.00    +0.000 C 
BRANCH  17  18
ATOM     18  N   UNL     1      48.471   8.668  13.141  0.00  0.00    +0.000 N 
ATOM     19  C   UNL     1      49.569   7.862  13.331  0.00  0.00    +0.000 C 
ATOM     20  O   UNL     1      49.516   6.835  13.998  0.00  0.00    +0.000 OA
ATOM     21  H   UNL     1      48.602   9.615  12.799  0.00  0.00    +0.000 HD
BRANCH  19  22
ATOM     22  C   UNL     1      50.802   8.269  12.640  0.00  0.00    +0.000 A 
ATOM     23  C   UNL     1      50.765   8.583  11.289  0.00  0.00    +0.000 A 
ATOM     24  S   UNL     1      52.271   9.084  10.660  0.00  0.00    +0.000 S 
ATOM     25  C   UNL     1      53.039   8.838  12.158  0.00  0.00    +0.000 A 
ATOM     26  N   UNL     1      54.374   9.055  12.304  0.00  0.00    +0.000 NA
ATOM     27  C   UNL     1      54.830   8.795  13.485  0.00  0.00    +0.000 A 
ATOM     28  N   UNL     1      54.071   8.348  14.534  0.00  0.00    +0.000 N 
ATOM     29  C   UNL     1      52.714   8.151  14.442  0.00  0.00    +0.000 A 
ATOM     30  O   UNL     1      52.055   7.805  15.418  0.00  0.00    +0.000 OA
ATOM     31  C   UNL     1      52.152   8.407  13.130  0.00  0.00    +0.000 A 
ATOM     32  H   UNL     1      54.485   8.178  15.439  0.00  0.00    +0.000 HD
ENDBRANCH  19  22
ENDBRANCH  17  18
ENDBRANCH   4  17
TORSDOF 6
ENDMDL
MODEL 7
REMARK VINA RESULT:    -6.079      3.104      8.638
REMARK INTER + INTRA:          -9.326
REMARK INTER:                  -8.380
REMARK INTRA:                  -0.946
REMARK UNBOUND:                -1.114
REMARK  Name = 
REMARK  6 active torsions:
REMARK  status: ('A' for Active; 'I' for Inactive)
REMARK    1  A    between atoms: C_2  and  C_25
REMARK    2  A    between atoms: N_3  and  C_4
REMARK    3  A    between atoms: C_4  and  C_5
REMARK    4  A    between atoms: C_8  and  C_9
REMARK    5  A    between atoms: C_9  and  N_10
REMARK    6  A    between atoms: C_11  and  C_13
REMARK                            x       y       z     vdW  Elec       q    Type
REMARK                         _______ _______ _______ _____ _____    ______ ____
ROOT
ATOM      1  C   UNL     1      49.418   8.142  15.516  0.00  0.00    +0.000 A 
ATOM      2  C   UNL     1      49.901   7.353  14.463  0.00  0.00    +0.000 A 
ATOM      3  C   UNL     1      49.211   7.278  13.247  0.00  0.00    +0.000 A 
ATOM      4  C   UNL     1      48.030   8.005  13.049  0.00  0.00    +0.000 A 
ATOM      5  C   UNL     1      47.540   8.785  14.107  0.00  0.00    +0.000 A 
ATOM      6  C   UNL     1      48.232   8.863  15.321  0.00  0.00    +0.000 A 
ENDROOT
BRANCH   1   7
ATOM      7  C   UNL     1      50.150   8.197  16.832  0.00  0.00    +0.000 C 
BRANCH   7  10
ATOM      8  O   UNL     1      49.159   5.901  18.172  0.00  0.00    +0.000 OA
ATOM      9  C   UNL     1      50.319   5.950  17.790  0.00  0.00    +0.000 C 
ATOM     10  N   UNL     1      50.897   6.999  17.111  0.00  0.00    +0.000 N 
ATOM     11  H   UNL     1      51.880   6.920  16.865  0.00  0.00    +0.000 HD
BRANCH   9  12
ATOM     12  C   UNL     1      51.248   4.798  18.065  0.00  0.00    +0.000 C 
ATOM     13  C   UNL     1      52.199   4.792  19.189  0.00  0.00    +0.000 C 
ATOM     14  C   UNL     1      52.848   3.525  19.058  0.00  0.00    +0.000 C 
ATOM     15  C   UNL     1      52.287   2.943  17.989  0.00  0.00    +0.000 C 
ATOM     16  N   UNL     1      51.307   3.694  17.355  0.00  0.00    +0.000 NA
ENDBRANCH   9  12
ENDBRANCH   7  10
ENDBRANCH   1   7
BRANCH   4  17
ATOM     17  C   UNL     1      47.285   7.948  11.738  0.00  0.00    +0.000 C 
BRANCH  17  18
ATOM     18  N   UNL     1      46.648   6.670  11.538  0.00  0.00    +0.000 N 
ATOM     19  C   UNL     1      45.280   6.538  11.592  0.00  0.00    +0.000 C 
ATOM     20  O   UNL     1      44.538   7.499  11.763  0.00  0.00    +0.000 OA
ATOM     21  H   UNL     1      47.232   5.846  11.640  0.00  0.00    +0.000 HD
BRANCH  19  22
ATOM     22  C   UNL     1      44.748   5.184  11.374  0.00  0.00    +0.000 A 
ATOM     23  C   UNL     1      44.026   4.556  12.380  0.00  0.00    +0.000 A 
ATOM     24  S   UNL     1      43.440   3.013  11.942  0.00  0.00    +0.000 S 
ATOM     25  C   UNL     1      44.185   3.104  10.416  0.00  0.00    +0.000 A 
ATOM     26  N   UNL     1      44.101   2.072   9.533  0.00  0.00    +0.000 NA
ATOM     27  C   UNL     1      44.742   2.263   8.428  0.00  0.00    +0.000 A 
ATOM     28  N   UNL     1      45.451   3.394   8.121  0.00  0.00    +0.000 N 
ATOM     29  C   UNL     1      45.531   4.476   8.966  0.00  0.00    +0.000 A 
ATOM     30  O   UNL     1      46.127   5.496   8.636  0.00  0.00    +0.000 OA
ATOM     31  C   UNL     1      44.847   4.306  10.233  0.00  0.00    +0.000 A 
ATOM     32  H   UNL     1      45.918   3.489   7.232  0.00  0.00    +0.000 HD
ENDBRANCH  19  22
ENDBRANCH  17  18
ENDBRANCH   4  17
TORSDOF 6
ENDMDL
MODEL 8
REMARK VINA RESULT:    -5.909      4.705      7.531
REMARK INTER + INTRA:          -9.095
REMARK INTER:                  -8.170
REMARK INTRA:                  -0.926
REMARK UNBOUND:                -1.114
REMARK  Name = 
REMARK  6 active torsions:
REMARK  status: ('A' for Active; 'I' for Inactive)
REMARK    1  A    between atoms: C_2  and  C_25
REMARK    2  A    between atoms: N_3  and  C_4
REMARK    3  A    between atoms: C_4  and  C_5
REMARK    4  A    between atoms: C_8  and  C_9
REMARK    5  A    between atoms: C_9  and  N_10
REMARK    6  A    between atoms: C_11  and  C_13
REMARK                            x       y       z     vdW  Elec       q    Type
REMARK                         _______ _______ _______ _____ _____    ______ ____
ROOT
ATOM      1  C   UNL     1      49.994   9.331  11.792  0.00  0.00    +0.000 A 
ATOM      2  C   UNL     1      48.871  10.054  11.366  0.00  0.00    +0.000 A 
ATOM      3  C   UNL     1      47.583   9.690  11.780  0.00  0.00    +0.000 A 
ATOM      4  C   UNL     1      47.391   8.604  12.644  0.00  0.00    +0.000 A 
ATOM      5  C   UNL     1      48.513   7.874  13.060  0.00  0.00    +0.000 A 
ATOM      6  C   UNL     1      49.800   8.241  12.650  0.00  0.00    +0.000 A 
ENDROOT
BRANCH   1   7
ATOM      7  C   UNL     1      51.374   9.711  11.321  0.00  0.00    +0.000 C 
BRANCH   7  10
ATOM      8  O   UNL     1      53.325   7.659  11.503  0.00  0.00    +0.000 OA
ATOM      9  C   UNL     1      52.812   7.941  10.431  0.00  0.00    +0.000 C 
ATOM     10  N   UNL     1      51.842   8.897  10.230  0.00  0.00    +0.000 N 
ATOM     11  H   UNL     1      51.509   9.045   9.281  0.00  0.00    +0.000 HD
BRANCH   9  12
ATOM     12  C   UNL     1      53.243   7.221   9.181  0.00  0.00    +0.000 C 
ATOM     13  C   UNL     1      54.649   6.879   8.902  0.00  0.00    +0.000 C 
ATOM     14  C   UNL     1      54.577   6.215   7.639  0.00  0.00    +0.000 C 
ATOM     15  C   UNL     1      53.277   6.211   7.308  0.00  0.00    +0.000 C 
ATOM     16  N   UNL     1      52.434   6.820   8.227  0.00  0.00    +0.000 NA
ENDBRANCH   9  12
ENDBRANCH   7  10
ENDBRANCH   1   7
BRANCH   4  17
ATOM     17  C   UNL     1      46.011   8.210  13.112  0.00  0.00    +0.000 C 
BRANCH  17  18
ATOM     18  N   UNL     1      45.667   6.871  12.703  0.00  0.00    +0.000 N 
ATOM     19  C   UNL     1      44.689   6.640  11.765  0.00  0.00    +0.000 C 
ATOM     20  O   UNL     1      44.098   7.554  11.200  0.00  0.00    +0.000 OA
ATOM     21  H   UNL     1      45.957   6.116  13.316  0.00  0.00    +0.000 HD
BRANCH  19  22
ATOM     22  C   UNL     1      44.426   5.232  11.431  0.00  0.00    +0.000 A 
ATOM     23  C   UNL     1      43.672   4.447  12.294  0.00  0.00    +0.000 A 
ATOM     24  S   UNL     1      43.422   2.856  11.729  0.00  0.00    +0.000 S 
ATOM     25  C   UNL     1      44.366   3.141  10.343  0.00  0.00    +0.000 A 
ATOM     26  N   UNL     1      44.588   2.155   9.433  0.00  0.00    +0.000 NA
ATOM     27  C   UNL     1      45.350   2.500   8.449  0.00  0.00    +0.000 A 
ATOM     28  N   UNL     1      45.902   3.744   8.287  0.00  0.00    +0.000 N 
ATOM     29  C   UNL     1      45.674   4.780   9.161  0.00  0.00    +0.000 A 
ATOM     30  O   UNL     1      46.137   5.898   8.956  0.00  0.00    +0.000 OA
ATOM     31  C   UNL     1      44.841   4.440  10.299  0.00  0.00    +0.000 A 
ATOM     32  H   UNL     1      46.478   3.957   7.486  0.00  0.00    +0.000 HD
ENDBRANCH  19  22
ENDBRANCH  17  18
ENDBRANCH   4  17
TORSDOF 6
ENDMDL
MODEL 9
REMARK VINA RESULT:    -5.784      3.222      4.750
REMARK INTER + INTRA:          -8.927
REMARK INTER:                  -7.993
REMARK INTRA:                  -0.935
REMARK UNBOUND:                -1.114
REMARK  Name = 
REMARK  6 active torsions:
REMARK  status: ('A' for Active; 'I' for Inactive)
REMARK    1  A    between atoms: C_2  and  C_25
REMARK    2  A    between atoms: N_3  and  C_4
REMARK    3  A    between atoms: C_4  and  C_5
REMARK    4  A    between atoms: C_8  and  C_9
REMARK    5  A    between atoms: C_9  and  N_10
REMARK    6  A    between atoms: C_11  and  C_13
REMARK                            x       y       z     vdW  Elec       q    Type
REMARK                         _______ _______ _______ _____ _____    ______ ____
ROOT
ATOM      1  C   UNL     1      48.063   7.891  13.395  0.00  0.00    +0.000 A 
ATOM      2  C   UNL     1      49.019   6.954  13.809  0.00  0.00    +0.000 A 
ATOM      3  C   UNL     1      49.586   7.023  15.088  0.00  0.00    +0.000 A 
ATOM      4  C   UNL     1      49.196   8.023  15.989  0.00  0.00    +0.000 A 
ATOM      5  C   UNL     1      48.248   8.968  15.571  0.00  0.00    +0.000 A 
ATOM      6  C   UNL     1      47.679   8.895  14.294  0.00  0.00    +0.000 A 
ENDROOT
BRANCH   1   7
ATOM      7  C   UNL     1      47.477   7.827  12.008  0.00  0.00    +0.000 C 
BRANCH   7  10
ATOM      8  O   UNL     1      44.829   7.246  12.841  0.00  0.00    +0.000 OA
ATOM      9  C   UNL     1      45.486   6.421  12.224  0.00  0.00    +0.000 C 
ATOM     10  N   UNL     1      46.766   6.603  11.752  0.00  0.00    +0.000 N 
ATOM     11  H   UNL     1      47.208   5.827  11.267  0.00  0.00    +0.000 HD
BRANCH   9  12
ATOM     12  C   UNL     1      44.903   5.063  11.934  0.00  0.00    +0.000 C 
ATOM     13  C   UNL     1      44.043   4.344  12.889  0.00  0.00    +0.000 C 
ATOM     14  C   UNL     1      43.732   3.133  12.198  0.00  0.00    +0.000 C 
ATOM     15  C   UNL     1      44.357   3.224  11.014  0.00  0.00    +0.000 C 
ATOM     16  N   UNL     1      45.085   4.389  10.822  0.00  0.00    +0.000 NA
ENDBRANCH   9  12
ENDBRANCH   7  10
ENDBRANCH   1   7
BRANCH   4  17
ATOM     17  C   UNL     1      49.785   8.100  17.377  0.00  0.00    +0.000 C 
BRANCH  17  18
ATOM     18  N   UNL     1      50.704   7.018  17.630  0.00  0.00    +0.000 N 
ATOM     19  C   UNL     1      50.358   5.963  18.443  0.00  0.00    +0.000 C 
ATOM     20  O   UNL     1      49.246   5.867  18.949  0.00  0.00    +0.000 OA
ATOM     21  H   UNL     1      51.684   7.192  17.432  0.00  0.00    +0.000 HD
BRANCH  19  22
ATOM     22  C   UNL     1      51.381   4.922  18.627  0.00  0.00    +0.000 A 
ATOM     23  C   UNL     1      52.524   5.200  19.364  0.00  0.00    +0.000 A 
ATOM     24  S   UNL     1      53.578   3.866  19.521  0.00  0.00    +0.000 S 
ATOM     25  C   UNL     1      52.573   2.889  18.557  0.00  0.00    +0.000 A 
ATOM     26  N   UNL     1      52.917   1.606  18.263  0.00  0.00    +0.000 NA
ATOM     27  C   UNL     1      52.080   0.992  17.495  0.00  0.00    +0.000 A 
ATOM     28  N   UNL     1      50.926   1.541  17.001  0.00  0.00    +0.000 N 
ATOM     29  C   UNL     1      50.520   2.820  17.302  0.00  0.00    +0.000 A 
ATOM     30  O   UNL     1      49.453   3.261  16.888  0.00  0.00    +0.000 OA
ATOM     31  C   UNL     1      51.436   3.563  18.145  0.00  0.00    +0.000 A 
ATOM     32  H   UNL     1      50.304   1.003  16.416  0.00  0.00    +0.000 HD
ENDBRANCH  19  22
ENDBRANCH  17  18
ENDBRANCH   4  17
TORSDOF 6
ENDMDL
