MODEL 1
REMARK VINA RESULT:    -8.090      0.000      0.000
REMARK INTER + INTRA:         -12.900
REMARK INTER:                 -11.637
REMARK INTRA:                  -1.263
REMARK UNBOUND:                -1.263
REMARK  Name = 
REMARK  8 active torsions:
REMARK  status: ('A' for Active; 'I' for Inactive)
REMARK    1  A    between atoms: N_1  and  C_2
REMARK    2  A    between atoms: C_2  and  C_3
REMARK    3  A    between atoms: C_3  and  N_4
REMARK    4  A    between atoms: C_3  and  C_17
REMARK    5  A    between atoms: C_5  and  C_7
REMARK    6  A    between atoms: C_20  and  O_21
REMARK    7  A    between atoms: O_21  and  C_22
REMARK    8  A    between atoms: C_22  and  C_23
REMARK                            x       y       z     vdW  Elec       q    Type
REMARK                         _______ _______ _______ _____ _____    ______ ____
ROOT
ATOM      1  C   UNL     1      47.932   6.900  13.645  0.00  0.00    +0.000 C 
ENDROOT
BRANCH   1   2
ATOM      2  C   UNL     1      46.901   6.071  12.882  0.00  0.00    +0.000 A 
ATOM      3  C   UNL     1      46.349   6.516  11.673  0.00  0.00    +0.000 A 
ATOM      4  C   UNL     1      45.434   5.715  10.979  0.00  0.00    +0.000 A 
ATOM      5  C   UNL     1      45.074   4.458  11.477  0.00  0.00    +0.000 A 
ATOM      6  C   UNL     1      45.578   4.037  12.705  0.00  0.00    +0.000 A 
ATOM      7  C   UNL     1      46.496   4.826  13.390  0.00  0.00    +0.000 A 
BRANCH   5   8
ATOM      8  O   UNL     1      44.238   3.712  10.689  0.00  0.00    +0.000 OA
BRANCH   8   9
ATOM      9  C   UNL     1      44.245   4.092   9.305  0.00  0.00    +0.000 C 
BRANCH   9  10
ATOM     10  C   UNL     1      45.257   3.303   8.509  0.00  0.00    +0.000 A 
ATOM     11  C   UNL     1      45.472   1.950   8.756  0.00  0.00    +0.000 A 
ATOM     12  C   UNL     1      46.431   1.278   8.005  0.00  0.00    +0.000 A 
ATOM     13  C   UNL     1      47.158   1.971   7.044  0.00  0.00    +0.000 A 
ATOM     14  C   UNL     1      46.899   3.320   6.877  0.00  0.00    +0.000 A 
ATOM     15  N   UNL     1      45.974   3.998   7.588  0.00  0.00    +0.000 NA
ENDBRANCH   9  10
ENDBRANCH   8   9
ENDBRANCH   5   8
ENDBRANCH   1   2
BRANCH   1  16
ATOM     16  N   UNL     1      47.923   6.440  15.029  0.00  0.00    +0.000 N 
ATOM     17  C   UNL     1      49.041   6.317  15.810  0.00  0.00    +0.000 C 
ATOM     18  O   UNL     1      50.155   6.676  15.443  0.00  0.00    +0.000 OA
ATOM     19  H   UNL     1      47.109   5.892  15.289  0.00  0.00    +0.000 HD
BRANCH  17  20
ATOM     20  C   UNL     1      48.818   5.786  17.159  0.00  0.00    +0.000 A 
ATOM     21  C   UNL     1      49.026   4.439  17.420  0.00  0.00    +0.000 A 
ATOM     22  S   UNL     1      48.722   4.006  19.042  0.00  0.00    +0.000 S 
ATOM     23  C   UNL     1      48.258   5.595  19.439  0.00  0.00    +0.000 A 
ATOM     24  N   UNL     1      47.829   5.910  20.691  0.00  0.00    +0.000 NA
ATOM     25  C   UNL     1      47.479   7.146  20.838  0.00  0.00    +0.000 A 
ATOM     26  N   UNL     1      47.534   8.100  19.854  0.00  0.00    +0.000 N 
ATOM     27  C   UNL     1      48.005   7.835  18.590  0.00  0.00    +0.000 A 
ATOM     28  O   UNL     1      48.120   8.724  17.757  0.00  0.00    +0.000 OA
ATOM     29  C   UNL     1      48.372   6.451  18.360  0.00  0.00    +0.000 A 
ATOM     30  H   UNL     1      47.274   9.055  20.040  0.00  0.00    +0.000 HD
ENDBRANCH  17  20
ENDBRANCH   1  16
BRANCH   1  31
ATOM     31  C   UNL     1      47.609   8.419  13.512  0.00  0.00    +0.000 C 
BRANCH  31  32
ATOM     32  N   UNL     1      47.145   9.052  14.756  0.00  0.00    +0.000 NA
ATOM     33  H   UNL     1      46.953   8.322  15.440  0.00  0.00    +0.000 HD
ATOM     34  H   UNL     1      46.255   9.522  14.588  0.00  0.00    +0.000 HD
ENDBRANCH  31  32
ENDBRANCH   1  31
TORSDOF 8
ENDMDL
MODEL 2
REMARK VINA RESULT:    -7.940      1.903      2.487
REMARK INTER + INTRA:         -12.684
REMARK INTER:                 -11.795
REMARK INTRA:                  -0.889
REMARK UNBOUND:                -1.263
REMARK  Name = 
REMARK  8 active torsions:
REMARK  status: ('A' for Active; 'I' for Inactive)
REMARK    1  A    between atoms: N_1  and  C_2
REMARK    2  A    between atoms: C_2  and  C_3
REMARK    3  A    between atoms: C_3  and  N_4
REMARK    4  A    between atoms: C_3  and  C_17
REMARK    5  A    between atoms: C_5  and  C_7
REMARK    6  A    between atoms: C_20  and  O_21
REMARK    7  A    between atoms: O_21  and  C_22
REMARK    8  A    between atoms: C_22  and  C_23
REMARK                            x       y       z     vdW  Elec       q    Type
REMARK                         _______ _______ _______ _____ _____    ______ ____
ROOT
ATOM      1  C   UNL     1      46.766   7.911  12.871  0.00  0.00    +0.000 C 
ENDROOT
BRANCH   1   2
ATOM      2  C   UNL     1      46.085   6.745  12.158  0.00  0.00    +0.000 A 
ATOM      3  C   UNL     1      46.312   6.480  10.801  0.00  0.00    +0.000 A 
ATOM      4  C   UNL     1      45.702   5.379  10.185  0.00  0.00    +0.000 A 
ATOM      5  C   UNL     1      44.874   4.526  10.923  0.00  0.00    +0.000 A 
ATOM      6  C   UNL     1      44.604   4.818  12.258  0.00  0.00    +0.000 A 
ATOM      7  C   UNL     1      45.218   5.903  12.873  0.00  0.00    +0.000 A 
BRANCH   5   8
ATOM      8  O   UNL     1      44.389   3.430  10.260  0.00  0.00    +0.000 OA
BRANCH   8   9
ATOM      9  C   UNL     1      44.297   3.602   8.837  0.00  0.00    +0.000 C 
BRANCH   9  10
ATOM     10  C   UNL     1      45.433   2.920   8.113  0.00  0.00    +0.000 A 
ATOM     11  C   UNL     1      45.795   1.610   8.411  0.00  0.00    +0.000 A 
ATOM     12  C   UNL     1      46.863   1.038   7.726  0.00  0.00    +0.000 A 
ATOM     13  C   UNL     1      47.548   1.789   6.778  0.00  0.00    +0.000 A 
ATOM     14  C   UNL     1      47.139   3.093   6.556  0.00  0.00    +0.000 A 
ATOM     15  N   UNL     1      46.107   3.673   7.203  0.00  0.00    +0.000 NA
ENDBRANCH   9  10
ENDBRANCH   8   9
ENDBRANCH   5   8
ENDBRANCH   1   2
BRANCH   1  16
ATOM     16  N   UNL     1      47.199   7.431  14.178  0.00  0.00    +0.000 N 
ATOM     17  C   UNL     1      48.382   6.782  14.410  0.00  0.00    +0.000 C 
ATOM     18  O   UNL     1      49.238   6.626  13.546  0.00  0.00    +0.000 OA
ATOM     19  H   UNL     1      46.449   7.290  14.848  0.00  0.00    +0.000 HD
BRANCH  17  20
ATOM     20  C   UNL     1      48.600   6.335  15.789  0.00  0.00    +0.000 A 
ATOM     21  C   UNL     1      49.297   7.139  16.680  0.00  0.00    +0.000 A 
ATOM     22  S   UNL     1      49.447   6.457  18.238  0.00  0.00    +0.000 S 
ATOM     23  C   UNL     1      48.626   5.045  17.761  0.00  0.00    +0.000 A 
ATOM     24  N   UNL     1      48.445   4.010  18.626  0.00  0.00    +0.000 NA
ATOM     25  C   UNL     1      47.834   2.991  18.116  0.00  0.00    +0.000 A 
ATOM     26  N   UNL     1      47.372   2.917  16.828  0.00  0.00    +0.000 N 
ATOM     27  C   UNL     1      47.492   3.955  15.936  0.00  0.00    +0.000 A 
ATOM     28  O   UNL     1      46.998   3.893  14.817  0.00  0.00    +0.000 OA
ATOM     29  C   UNL     1      48.208   5.109  16.445  0.00  0.00    +0.000 A 
ATOM     30  H   UNL     1      46.876   2.104  16.498  0.00  0.00    +0.000 HD
ENDBRANCH  17  20
ENDBRANCH   1  16
BRANCH   1  31
ATOM     31  C   UNL     1      45.793   9.126  12.967  0.00  0.00    +0.000 C 
BRANCH  31  32
ATOM     32  N   UNL     1      46.365  10.399  12.501  0.00  0.00    +0.000 NA
ATOM     33  H   UNL     1      47.367  10.275  12.365  0.00  0.00    +0.000 HD
ATOM     34  H   UNL     1      46.266  11.105  13.232  0.00  0.00    +0.000 HD
ENDBRANCH  31  32
ENDBRANCH   1  31
TORSDOF 8
ENDMDL
MODEL 3
REMARK VINA RESULT:    -7.615      1.469      2.035
REMARK INTER + INTRA:         -12.216
REMARK INTER:                 -11.172
REMARK INTRA:                  -1.044
REMARK UNBOUND:                -1.263
REMARK  Name = 
REMARK  8 active torsions:
REMARK  status: ('A' for Active; 'I' for Inactive)
REMARK    1  A    between atoms: N_1  and  C_2
REMARK    2  A    between atoms: C_2  and  C_3
REMARK    3  A    between atoms: C_3  and  N_4
REMARK    4  A    between atoms: C_3  and  C_17
REMARK    5  A    between atoms: C_5  and  C_7
REMARK    6  A    between atoms: C_20  and  O_21
REMARK    7  A    between atoms: O_21  and  C_22
REMARK    8  A    between atoms: C_22  and  C_23
REMARK                            x       y       z     vdW  Elec       q    Type
REMARK                         _______ _______ _______ _____ _____    ______ ____
ROOT
ATOM      1  C   UNL     1      48.452   6.819  13.460  0.00  0.00    +0.000 C 
ENDROOT
BRANCH   1   2
ATOM      2  C   UNL     1      47.239   6.097  12.880  0.00  0.00    +0.000 A 
ATOM      3  C   UNL     1      46.462   6.666  11.861  0.00  0.00    +0.000 A 
ATOM      4  C   UNL     1      45.378   5.961  11.324  0.00  0.00    +0.000 A 
ATOM      5  C   UNL     1      45.069   4.677  11.788  0.00  0.00    +0.000 A 
ATOM      6  C   UNL     1      45.805   4.132  12.837  0.00  0.00    +0.000 A 
ATOM      7  C   UNL     1      46.889   4.826  13.364  0.00  0.00    +0.000 A 
BRANCH   5   8
ATOM      8  O   UNL     1      44.045   4.032  11.147  0.00  0.00    +0.000 OA
BRANCH   8   9
ATOM      9  C   UNL     1      43.931   4.357   9.753  0.00  0.00    +0.000 C 
BRANCH   9  10
ATOM     10  C   UNL     1      44.911   3.575   8.911  0.00  0.00    +0.000 A 
ATOM     11  C   UNL     1      45.095   2.209   9.101  0.00  0.00    +0.000 A 
ATOM     12  C   UNL     1      46.026   1.543   8.310  0.00  0.00    +0.000 A 
ATOM     13  C   UNL     1      46.756   2.256   7.365  0.00  0.00    +0.000 A 
ATOM     14  C   UNL     1      46.529   3.617   7.255  0.00  0.00    +0.000 A 
ATOM     15  N   UNL     1      45.632   4.288   8.007  0.00  0.00    +0.000 NA
ENDBRANCH   9  10
ENDBRANCH   8   9
ENDBRANCH   5   8
ENDBRANCH   1   2
BRANCH   1  16
ATOM     16  N   UNL     1      48.254   6.916  14.901  0.00  0.00    +0.000 N 
ATOM     17  C   UNL     1      49.250   6.773  15.830  0.00  0.00    +0.000 C 
ATOM     18  O   UNL     1      50.431   6.642  15.528  0.00  0.00    +0.000 OA
ATOM     19  H   UNL     1      47.300   6.755  15.211  0.00  0.00    +0.000 HD
BRANCH  17  20
ATOM     20  C   UNL     1      48.827   6.854  17.232  0.00  0.00    +0.000 A 
ATOM     21  C   UNL     1      48.374   8.057  17.755  0.00  0.00    +0.000 A 
ATOM     22  S   UNL     1      47.922   7.958  19.398  0.00  0.00    +0.000 S 
ATOM     23  C   UNL     1      48.357   6.315  19.477  0.00  0.00    +0.000 A 
ATOM     24  N   UNL     1      48.259   5.617  20.641  0.00  0.00    +0.000 NA
ATOM     25  C   UNL     1      48.655   4.389  20.560  0.00  0.00    +0.000 A 
ATOM     26  N   UNL     1      49.126   3.790  19.421  0.00  0.00    +0.000 N 
ATOM     27  C   UNL     1      49.199   4.444  18.214  0.00  0.00    +0.000 A 
ATOM     28  O   UNL     1      49.546   3.861  17.195  0.00  0.00    +0.000 OA
ATOM     29  C   UNL     1      48.804   5.839  18.259  0.00  0.00    +0.000 A 
ATOM     30  H   UNL     1      49.394   2.818  19.415  0.00  0.00    +0.000 HD
ENDBRANCH  17  20
ENDBRANCH   1  16
BRANCH   1  31
ATOM     31  C   UNL     1      48.628   8.211  12.781  0.00  0.00    +0.000 C 
BRANCH  31  32
ATOM     32  N   UNL     1      49.678   8.256  11.752  0.00  0.00    +0.000 NA
ATOM     33  H   UNL     1      50.490   8.735  12.138  0.00  0.00    +0.000 HD
ATOM     34  H   UNL     1      49.362   8.828  10.967  0.00  0.00    +0.000 HD
ENDBRANCH  31  32
ENDBRANCH   1  31
TORSDOF 8
ENDMDL
MODEL 4
REMARK VINA RESULT:    -7.586      3.278      4.790
REMARK INTER + INTRA:         -12.175
REMARK INTER:                 -10.770
REMARK INTRA:                  -1.405
REMARK UNBOUND:                -1.263
REMARK  Name = 
REMARK  8 active torsions:
REMARK  status: ('A' for Active; 'I' for Inactive)
REMARK    1  A    between atoms: N_1  and  C_2
REMARK    2  A    between atoms: C_2  and  C_3
REMARK    3  A    between atoms: C_3  and  N_4
REMARK    4  A    between atoms: C_3  and  C_17
REMARK    5  A    between atoms: C_5  and  C_7
REMARK    6  A    between atoms: C_20  and  O_21
REMARK    7  A    between atoms: O_21  and  C_22
REMARK    8  A    between atoms: C_22  and  C_23
REMARK                            x       y       z     vdW  Elec       q    Type
REMARK                         _______ _______ _______ _____ _____    ______ ____
ROOT
ATOM      1  C   UNL     1      46.732   5.762  13.996  0.00  0.00    +0.000 C 
ENDROOT
BRANCH   1   2
ATOM      2  C   UNL     1      46.073   5.121  12.776  0.00  0.00    +0.000 A 
ATOM      3  C   UNL     1      45.592   3.805  12.807  0.00  0.00    +0.000 A 
ATOM      4  C   UNL     1      44.959   3.259  11.683  0.00  0.00    +0.000 A 
ATOM      5  C   UNL     1      44.788   4.026  10.526  0.00  0.00    +0.000 A 
ATOM      6  C   UNL     1      45.313   5.315  10.473  0.00  0.00    +0.000 A 
ATOM      7  C   UNL     1      45.931   5.863  11.592  0.00  0.00    +0.000 A 
BRANCH   5   8
ATOM      8  O   UNL     1      44.085   3.438   9.508  0.00  0.00    +0.000 OA
BRANCH   8   9
ATOM      9  C   UNL     1      44.544   2.120   9.167  0.00  0.00    +0.000 C 
BRANCH   9  10
ATOM     10  C   UNL     1      45.660   2.158   8.152  0.00  0.00    +0.000 A 
ATOM     11  C   UNL     1      45.817   3.240   7.292  0.00  0.00    +0.000 A 
ATOM     12  C   UNL     1      46.853   3.212   6.363  0.00  0.00    +0.000 A 
ATOM     13  C   UNL     1      47.691   2.105   6.306  0.00  0.00    +0.000 A 
ATOM     14  C   UNL     1      47.453   1.059   7.181  0.00  0.00    +0.000 A 
ATOM     15  N   UNL     1      46.459   1.059   8.093  0.00  0.00    +0.000 NA
ENDBRANCH   9  10
ENDBRANCH   8   9
ENDBRANCH   5   8
ENDBRANCH   1   2
BRANCH   1  16
ATOM     16  N   UNL     1      47.864   6.547  13.518  0.00  0.00    +0.000 N 
ATOM     17  C   UNL     1      47.896   7.916  13.485  0.00  0.00    +0.000 C 
ATOM     18  O   UNL     1      47.002   8.616  13.946  0.00  0.00    +0.000 OA
ATOM     19  H   UNL     1      48.493   6.050  12.896  0.00  0.00    +0.000 HD
BRANCH  17  20
ATOM     20  C   UNL     1      49.112   8.508  12.916  0.00  0.00    +0.000 A 
ATOM     21  C   UNL     1      49.039   9.274  11.762  0.00  0.00    +0.000 A 
ATOM     22  S   UNL     1      50.550   9.883  11.253  0.00  0.00    +0.000 S 
ATOM     23  C   UNL     1      51.358   9.107  12.534  0.00  0.00    +0.000 A 
ATOM     24  N   UNL     1      52.710   9.185  12.663  0.00  0.00    +0.000 NA
ATOM     25  C   UNL     1      53.189   8.519  13.663  0.00  0.00    +0.000 A 
ATOM     26  N   UNL     1      52.440   7.797  14.556  0.00  0.00    +0.000 N 
ATOM     27  C   UNL     1      51.068   7.730  14.490  0.00  0.00    +0.000 A 
ATOM     28  O   UNL     1      50.419   7.145  15.347  0.00  0.00    +0.000 OA
ATOM     29  C   UNL     1      50.483   8.426  13.360  0.00  0.00    +0.000 A 
ATOM     30  H   UNL     1      52.870   7.322  15.333  0.00  0.00    +0.000 HD
ENDBRANCH  17  20
ENDBRANCH   1  16
BRANCH   1  31
ATOM     31  C   UNL     1      47.149   4.666  15.023  0.00  0.00    +0.000 C 
BRANCH  31  32
ATOM     32  N   UNL     1      48.317   5.017  15.845  0.00  0.00    +0.000 NA
ATOM     33  H   UNL     1      47.988   5.409  16.725  0.00  0.00    +0.000 HD
ATOM     34  H   UNL     1      48.846   5.760  15.386  0.00  0.00    +0.000 HD
ENDBRANCH  31  32
ENDBRANCH   1  31
TORSDOF 8
ENDMDL
MODEL 5
REMARK VINA RESULT:    -7.508      2.734      4.165
REMARK INTER + INTRA:         -12.062
REMARK INTER:                 -10.771
REMARK INTRA:                  -1.291
REMARK UNBOUND:                -1.263
REMARK  Name = 
REMARK  8 active torsions:
REMARK  status: ('A' for Active; 'I' for Inactive)
REMARK    1  A    between atoms: N_1  and  C_2
REMARK    2  A    between atoms: C_2  and  C_3
REMARK    3  A    between atoms: C_3  and  N_4
REMARK    4  A    between atoms: C_3  and  C_17
REMARK    5  A    between atoms: C_5  and  C_7
REMARK    6  A    between atoms: C_20  and  O_21
REMARK    7  A    between atoms: O_21  and  C_22
REMARK    8  A    between atoms: C_22  and  C_23
REMARK                            x       y       z     vdW  Elec       q    Type
REMARK                         _______ _______ _______ _____ _____    ______ ____
ROOT
ATOM      1  C   UNL     1      46.884   4.973  14.654  0.00  0.00    +0.000 C 
ENDROOT
BRANCH   1   2
ATOM      2  C   UNL     1      46.253   4.734  13.284  0.00  0.00    +0.000 A 
ATOM      3  C   UNL     1      45.655   3.510  12.955  0.00  0.00    +0.000 A 
ATOM      4  C   UNL     1      45.051   3.334  11.703  0.00  0.00    +0.000 A 
ATOM      5  C   UNL     1      45.025   4.383  10.778  0.00  0.00    +0.000 A 
ATOM      6  C   UNL     1      45.666   5.582  11.081  0.00  0.00    +0.000 A 
ATOM      7  C   UNL     1      46.256   5.761  12.327  0.00  0.00    +0.000 A 
BRANCH   5   8
ATOM      8  O   UNL     1      44.341   4.147   9.614  0.00  0.00    +0.000 OA
BRANCH   8   9
ATOM      9  C   UNL     1      44.358   2.774   9.195  0.00  0.00    +0.000 C 
BRANCH   9  10
ATOM     10  C   UNL     1      45.518   2.482   8.272  0.00  0.00    +0.000 A 
ATOM     11  C   UNL     1      45.967   3.427   7.356  0.00  0.00    +0.000 A 
ATOM     12  C   UNL     1      47.027   3.096   6.518  0.00  0.00    +0.000 A 
ATOM     13  C   UNL     1      47.599   1.832   6.604  0.00  0.00    +0.000 A 
ATOM     14  C   UNL     1      47.078   0.941   7.527  0.00  0.00    +0.000 A 
ATOM     15  N   UNL     1      46.053   1.235   8.354  0.00  0.00    +0.000 NA
ENDBRANCH   9  10
ENDBRANCH   8   9
ENDBRANCH   5   8
ENDBRANCH   1   2
BRANCH   1  16
ATOM     16  N   UNL     1      47.906   6.001  14.489  0.00  0.00    +0.000 N 
ATOM     17  C   UNL     1      48.622   6.551  15.519  0.00  0.00    +0.000 C 
ATOM     18  O   UNL     1      48.535   6.158  16.677  0.00  0.00    +0.000 OA
ATOM     19  H   UNL     1      47.833   6.539  13.631  0.00  0.00    +0.000 HD
BRANCH  17  20
ATOM     20  C   UNL     1      49.565   7.609  15.141  0.00  0.00    +0.000 A 
ATOM     21  C   UNL     1      50.908   7.496  15.472  0.00  0.00    +0.000 A 
ATOM     22  S   UNL     1      51.851   8.818  14.948  0.00  0.00    +0.000 S 
ATOM     23  C   UNL     1      50.489   9.606  14.301  0.00  0.00    +0.000 A 
ATOM     24  N   UNL     1      50.594  10.836  13.727  0.00  0.00    +0.000 NA
ATOM     25  C   UNL     1      49.473  11.326  13.309  0.00  0.00    +0.000 A 
ATOM     26  N   UNL     1      48.260  10.694  13.396  0.00  0.00    +0.000 N 
ATOM     27  C   UNL     1      48.116   9.434  13.925  0.00  0.00    +0.000 A 
ATOM     28  O   UNL     1      47.034   8.860  13.914  0.00  0.00    +0.000 OA
ATOM     29  C   UNL     1      49.339   8.854  14.447  0.00  0.00    +0.000 A 
ATOM     30  H   UNL     1      47.424  11.117  13.024  0.00  0.00    +0.000 HD
ENDBRANCH  17  20
ENDBRANCH   1  16
BRANCH   1  31
ATOM     31  C   UNL     1      47.456   3.641  15.225  0.00  0.00    +0.000 C 
BRANCH  31  32
ATOM     32  N   UNL     1      47.122   3.392  16.636  0.00  0.00    +0.000 NA
ATOM     33  H   UNL     1      47.321   2.416  16.850  0.00  0.00    +0.000 HD
ATOM     34  H   UNL     1      46.117   3.511  16.774  0.00  0.00    +0.000 HD
ENDBRANCH  31  32
ENDBRANCH   1  31
TORSDOF 8
ENDMDL
MODEL 6
REMARK VINA RESULT:    -7.135      2.799      4.068
REMARK INTER + INTRA:         -11.526
REMARK INTER:                 -10.454
REMARK INTRA:                  -1.072
REMARK UNBOUND:                -1.263
REMARK  Name = 
REMARK  8 active torsions:
REMARK  status: ('A' for Active; 'I' for Inactive)
REMARK    1  A    between atoms: N_1  and  C_2
REMARK    2  A    between atoms: C_2  and  C_3
REMARK    3  A    between atoms: C_3  and  N_4
REMARK    4  A    between atoms: C_3  and  C_17
REMARK    5  A    between atoms: C_5  and  C_7
REMARK    6  A    between atoms: C_20  and  O_21
REMARK    7  A    between atoms: O_21  and  C_22
REMARK    8  A    between atoms: C_22  and  C_23
REMARK                            x       y       z     vdW  Elec       q    Type
REMARK                         _______ _______ _______ _____ _____    ______ ____
ROOT
ATOM      1  C   UNL     1      46.886   5.097  14.938  0.00  0.00    +0.000 C 
ENDROOT
BRANCH   1   2
ATOM      2  C   UNL     1      46.226   4.884  13.577  0.00  0.00    +0.000 A 
ATOM      3  C   UNL     1      46.077   5.934  12.660  0.00  0.00    +0.000 A 
ATOM      4  C   UNL     1      45.501   5.697  11.405  0.00  0.00    +0.000 A 
ATOM      5  C   UNL     1      45.084   4.410  11.050  0.00  0.00    +0.000 A 
ATOM      6  C   UNL     1      45.181   3.377  11.979  0.00  0.00    +0.000 A 
ATOM      7  C   UNL     1      45.763   3.607  13.221  0.00  0.00    +0.000 A 
BRANCH   5   8
ATOM      8  O   UNL     1      44.610   4.258   9.774  0.00  0.00    +0.000 OA
BRANCH   8   9
ATOM      9  C   UNL     1      44.506   2.891   9.348  0.00  0.00    +0.000 C 
BRANCH   9  10
ATOM     10  C   UNL     1      45.582   2.528   8.352  0.00  0.00    +0.000 A 
ATOM     11  C   UNL     1      46.036   3.449   7.414  0.00  0.00    +0.000 A 
ATOM     12  C   UNL     1      47.015   3.053   6.508  0.00  0.00    +0.000 A 
ATOM     13  C   UNL     1      47.502   1.752   6.552  0.00  0.00    +0.000 A 
ATOM     14  C   UNL     1      46.982   0.890   7.502  0.00  0.00    +0.000 A 
ATOM     15  N   UNL     1      46.034   1.246   8.394  0.00  0.00    +0.000 NA
ENDBRANCH   9  10
ENDBRANCH   8   9
ENDBRANCH   5   8
ENDBRANCH   1   2
BRANCH   1  16
ATOM     16  N   UNL     1      48.065   5.927  14.725  0.00  0.00    +0.000 N 
ATOM     17  C   UNL     1      48.717   6.613  15.715  0.00  0.00    +0.000 C 
ATOM     18  O   UNL     1      48.421   6.515  16.901  0.00  0.00    +0.000 OA
ATOM     19  H   UNL     1      48.188   6.255  13.772  0.00  0.00    +0.000 HD
BRANCH  17  20
ATOM     20  C   UNL     1      49.852   7.433  15.278  0.00  0.00    +0.000 A 
ATOM     21  C   UNL     1      49.639   8.548  14.481  0.00  0.00    +0.000 A 
ATOM     22  S   UNL     1      51.074   9.380  14.078  0.00  0.00    +0.000 S 
ATOM     23  C   UNL     1      52.031   8.251  14.917  0.00  0.00    +0.000 A 
ATOM     24  N   UNL     1      53.388   8.354  14.934  0.00  0.00    +0.000 NA
ATOM     25  C   UNL     1      53.985   7.408  15.583  0.00  0.00    +0.000 A 
ATOM     26  N   UNL     1      53.353   6.379  16.230  0.00  0.00    +0.000 N 
ATOM     27  C   UNL     1      51.984   6.263  16.278  0.00  0.00    +0.000 A 
ATOM     28  O   UNL     1      51.443   5.381  16.932  0.00  0.00    +0.000 OA
ATOM     29  C   UNL     1      51.265   7.277  15.529  0.00  0.00    +0.000 A 
ATOM     30  H   UNL     1      53.874   5.687  16.744  0.00  0.00    +0.000 HD
ENDBRANCH  17  20
ENDBRANCH   1  16
BRANCH   1  31
ATOM     31  C   UNL     1      47.225   3.724  15.594  0.00  0.00    +0.000 C 
BRANCH  31  32
ATOM     32  N   UNL     1      46.818   3.607  17.002  0.00  0.00    +0.000 NA
ATOM     33  H   UNL     1      47.297   2.807  17.413  0.00  0.00    +0.000 HD
ATOM     34  H   UNL     1      45.821   3.393  17.052  0.00  0.00    +0.000 HD
ENDBRANCH  31  32
ENDBRANCH   1  31
TORSDOF 8
ENDMDL
MODEL 7
REMARK VINA RESULT:    -6.746      3.042      4.027
REMARK INTER + INTRA:         -10.966
REMARK INTER:                  -9.845
REMARK INTRA:                  -1.122
REMARK UNBOUND:                -1.263
REMARK  Name = 
REMARK  8 active torsions:
REMARK  status: ('A' for Active; 'I' for Inactive)
REMARK    1  A    between atoms: N_1  and  C_2
REMARK    2  A    between atoms: C_2  and  C_3
REMARK    3  A    between atoms: C_3  and  N_4
REMARK    4  A    between atoms: C_3  and  C_17
REMARK    5  A    between atoms: C_5  and  C_7
REMARK    6  A    between atoms: C_20  and  O_21
REMARK    7  A    between atoms: O_21  and  C_22
REMARK    8  A    between atoms: C_22  and  C_23
REMARK                            x       y       z     vdW  Elec       q    Type
REMARK                         _______ _______ _______ _____ _____    ______ ____
ROOT
ATOM      1  C   UNL     1      47.350   5.008  15.686  0.00  0.00    +0.000 C 
ENDROOT
BRANCH   1   2
ATOM      2  C   UNL     1      46.845   5.166  14.253  0.00  0.00    +0.000 A 
ATOM      3  C   UNL     1      45.948   4.251  13.685  0.00  0.00    +0.000 A 
ATOM      4  C   UNL     1      45.475   4.445  12.381  0.00  0.00    +0.000 A 
ATOM      5  C   UNL     1      45.879   5.562  11.641  0.00  0.00    +0.000 A 
ATOM      6  C   UNL     1      46.811   6.443  12.183  0.00  0.00    +0.000 A 
ATOM      7  C   UNL     1      47.274   6.258  13.481  0.00  0.00    +0.000 A 
BRANCH   5   8
ATOM      8  O   UNL     1      45.300   5.713  10.408  0.00  0.00    +0.000 OA
BRANCH   8   9
ATOM      9  C   UNL     1      44.525   4.581   9.984  0.00  0.00    +0.000 C 
BRANCH   9  10
ATOM     10  C   UNL     1      45.276   3.724   8.993  0.00  0.00    +0.000 A 
ATOM     11  C   UNL     1      45.351   2.343   9.144  0.00  0.00    +0.000 A 
ATOM     12  C   UNL     1      46.073   1.606   8.211  0.00  0.00    +0.000 A 
ATOM     13  C   UNL     1      46.710   2.263   7.165  0.00  0.00    +0.000 A 
ATOM     14  C   UNL     1      46.605   3.642   7.098  0.00  0.00    +0.000 A 
ATOM     15  N   UNL     1      45.911   4.382   7.987  0.00  0.00    +0.000 NA
ENDBRANCH   9  10
ENDBRANCH   8   9
ENDBRANCH   5   8
ENDBRANCH   1   2
BRANCH   1  16
ATOM     16  N   UNL     1      48.747   5.426  15.704  0.00  0.00    +0.000 N 
ATOM     17  C   UNL     1      49.393   5.914  16.809  0.00  0.00    +0.000 C 
ATOM     18  O   UNL     1      48.877   5.956  17.920  0.00  0.00    +0.000 OA
ATOM     19  H   UNL     1      49.131   5.665  14.795  0.00  0.00    +0.000 HD
BRANCH  17  20
ATOM     20  C   UNL     1      50.785   6.328  16.598  0.00  0.00    +0.000 A 
ATOM     21  C   UNL     1      51.066   7.505  15.921  0.00  0.00    +0.000 A 
ATOM     22  S   UNL     1      52.736   7.825  15.777  0.00  0.00    +0.000 S 
ATOM     23  C   UNL     1      53.140   6.378  16.576  0.00  0.00    +0.000 A 
ATOM     24  N   UNL     1      54.438   6.010  16.753  0.00  0.00    +0.000 NA
ATOM     25  C   UNL     1      54.593   4.872  17.347  0.00  0.00    +0.000 A 
ATOM     26  N   UNL     1      53.571   4.075  17.795  0.00  0.00    +0.000 N 
ATOM     27  C   UNL     1      52.248   4.430  17.678  0.00  0.00    +0.000 A 
ATOM     28  O   UNL     1      51.361   3.739  18.161  0.00  0.00    +0.000 OA
ATOM     29  C   UNL     1      52.017   5.681  16.982  0.00  0.00    +0.000 A 
ATOM     30  H   UNL     1      53.758   3.211  18.277  0.00  0.00    +0.000 HD
ENDBRANCH  17  20
ENDBRANCH   1  16
BRANCH   1  31
ATOM     31  C   UNL     1      47.154   3.539  16.168  0.00  0.00    +0.000 C 
BRANCH  31  32
ATOM     32  N   UNL     1      46.734   3.411  17.572  0.00  0.00    +0.000 NA
ATOM     33  H   UNL     1      45.875   3.943  17.703  0.00  0.00    +0.000 HD
ATOM     34  H   UNL     1      47.431   3.848  18.177  0.00  0.00    +0.000 HD
ENDBRANCH  31  32
ENDBRANCH   1  31
TORSDOF 8
ENDMDL
MODEL 8
REMARK VINA RESULT:    -6.630      3.618      5.122
REMARK INTER + INTRA:         -10.800
REMARK INTER:                  -9.742
REMARK INTRA:                  -1.058
REMARK UNBOUND:                -1.263
REMARK  Name = 
REMARK  8 active torsions:
REMARK  status: ('A' for Active; 'I' for Inactive)
REMARK    1  A    between atoms: N_1  and  C_2
REMARK    2  A    between atoms: C_2  and  C_3
REMARK    3  A    between atoms: C_3  and  N_4
REMARK    4  A    between atoms: C_3  and  C_17
REMARK    5  A    between atoms: C_5  and  C_7
REMARK    6  A    between atoms: C_20  and  O_21
REMARK    7  A    between atoms: O_21  and  C_22
REMARK    8  A    between atoms: C_22  and  C_23
REMARK                            x       y       z     vdW  Elec       q    Type
REMARK                         _______ _______ _______ _____ _____    ______ ____
ROOT
ATOM      1  C   UNL     1      48.570   5.467  17.319  0.00  0.00    +0.000 C 
ENDROOT
BRANCH   1   2
ATOM      2  C   UNL     1      48.216   5.645  15.844  0.00  0.00    +0.000 A 
ATOM      3  C   UNL     1      47.414   4.718  15.163  0.00  0.00    +0.000 A 
ATOM      4  C   UNL     1      47.077   4.930  13.820  0.00  0.00    +0.000 A 
ATOM      5  C   UNL     1      47.524   6.074  13.151  0.00  0.00    +0.000 A 
ATOM      6  C   UNL     1      48.366   6.968  13.808  0.00  0.00    +0.000 A 
ATOM      7  C   UNL     1      48.693   6.766  15.145  0.00  0.00    +0.000 A 
BRANCH   5   8
ATOM      8  O   UNL     1      47.077   6.238  11.867  0.00  0.00    +0.000 OA
BRANCH   8   9
ATOM      9  C   UNL     1      45.657   6.085  11.719  0.00  0.00    +0.000 C 
BRANCH   9  10
ATOM     10  C   UNL     1      45.308   5.008  10.719  0.00  0.00    +0.000 A 
ATOM     11  C   UNL     1      45.650   5.132   9.376  0.00  0.00    +0.000 A 
ATOM     12  C   UNL     1      45.286   4.118   8.496  0.00  0.00    +0.000 A 
ATOM     13  C   UNL     1      44.581   3.019   8.973  0.00  0.00    +0.000 A 
ATOM     14  C   UNL     1      44.260   2.982  10.319  0.00  0.00    +0.000 A 
ATOM     15  N   UNL     1      44.601   3.949  11.196  0.00  0.00    +0.000 NA
ENDBRANCH   9  10
ENDBRANCH   8   9
ENDBRANCH   5   8
ENDBRANCH   1   2
BRANCH   1  16
ATOM     16  N   UNL     1      49.878   4.826  17.380  0.00  0.00    +0.000 N 
ATOM     17  C   UNL     1      50.752   4.950  18.427  0.00  0.00    +0.000 C 
ATOM     18  O   UNL     1      50.472   5.542  19.463  0.00  0.00    +0.000 OA
ATOM     19  H   UNL     1      50.264   4.562  16.478  0.00  0.00    +0.000 HD
BRANCH  17  20
ATOM     20  C   UNL     1      52.039   4.265  18.264  0.00  0.00    +0.000 A 
ATOM     21  C   UNL     1      53.225   4.952  18.476  0.00  0.00    +0.000 A 
ATOM     22  S   UNL     1      54.618   3.994  18.245  0.00  0.00    +0.000 S 
ATOM     23  C   UNL     1      53.683   2.640  17.810  0.00  0.00    +0.000 A 
ATOM     24  N   UNL     1      54.269   1.469  17.442  0.00  0.00    +0.000 NA
ATOM     25  C   UNL     1      53.436   0.538  17.107  0.00  0.00    +0.000 A 
ATOM     26  N   UNL     1      52.072   0.664  17.122  0.00  0.00    +0.000 N 
ATOM     27  C   UNL     1      51.437   1.813  17.531  0.00  0.00    +0.000 A 
ATOM     28  O   UNL     1      50.217   1.870  17.613  0.00  0.00    +0.000 OA
ATOM     29  C   UNL     1      52.328   2.904  17.879  0.00  0.00    +0.000 A 
ATOM     30  H   UNL     1      51.474  -0.109  16.877  0.00  0.00    +0.000 HD
ENDBRANCH  17  20
ENDBRANCH   1  16
BRANCH   1  31
ATOM     31  C   UNL     1      47.461   4.645  18.044  0.00  0.00    +0.000 C 
BRANCH  31  32
ATOM     32  N   UNL     1      46.401   5.463  18.654  0.00  0.00    +0.000 NA
ATOM     33  H   UNL     1      45.717   5.696  17.936  0.00  0.00    +0.000 HD
ATOM     34  H   UNL     1      46.794   6.351  18.967  0.00  0.00    +0.000 HD
ENDBRANCH  31  32
ENDBRANCH   1  31
TORSDOF 8
ENDMDL
MODEL 9
REMARK VINA RESULT:    -6.621      3.643      8.327
REMARK INTER + INTRA:         -10.787
REMARK INTER:                  -9.628
REMARK INTRA:                  -1.159
REMARK UNBOUND:                -1.263
REMARK  Name = 
REMARK  8 active torsions:
REMARK  status: ('A' for Active; 'I' for Inactive)
REMARK    1  A    between atoms: N_1  and  C_2
REMARK    2  A    between atoms: C_2  and  C_3
REMARK    3  A    between atoms: C_3  and  N_4
REMARK    4  A    between atoms: C_3  and  C_17
REMARK    5  A    between atoms: C_5  and  C_7
REMARK    6  A    between atoms: C_20  and  O_21
REMARK    7  A    between atoms: O_21  and  C_22
REMARK    8  A    between atoms: C_22  and  C_23
REMARK                            x       y       z     vdW  Elec       q    Type
REMARK                         _______ _______ _______ _____ _____    ______ ____
ROOT
ATOM      1  C   UNL     1      48.335   7.757  12.519  0.00  0.00    +0.000 C 
ENDROOT
BRANCH   1   2
ATOM      2  C   UNL     1      48.695   7.191  13.891  0.00  0.00    +0.000 A 
ATOM      3  C   UNL     1      47.905   6.216  14.514  0.00  0.00    +0.000 A 
ATOM      4  C   UNL     1      48.283   5.690  15.756  0.00  0.00    +0.000 A 
ATOM      5  C   UNL     1      49.461   6.120  16.377  0.00  0.00    +0.000 A 
ATOM      6  C   UNL     1      50.219   7.128  15.785  0.00  0.00    +0.000 A 
ATOM      7  C   UNL     1      49.851   7.643  14.548  0.00  0.00    +0.000 A 
BRANCH   5   8
ATOM      8  O   UNL     1      49.793   5.490  17.547  0.00  0.00    +0.000 OA
BRANCH   8   9
ATOM      9  C   UNL     1      49.455   4.095  17.576  0.00  0.00    +0.000 C 
BRANCH   9  10
ATOM     10  C   UNL     1      50.681   3.221  17.696  0.00  0.00    +0.000 A 
ATOM     11  C   UNL     1      51.900   3.743  18.117  0.00  0.00    +0.000 A 
ATOM     12  C   UNL     1      53.001   2.896  18.191  0.00  0.00    +0.000 A 
ATOM     13  C   UNL     1      52.862   1.561  17.830  0.00  0.00    +0.000 A 
ATOM     14  C   UNL     1      51.620   1.125  17.400  0.00  0.00    +0.000 A 
ATOM     15  N   UNL     1      50.535   1.923  17.321  0.00  0.00    +0.000 NA
ENDBRANCH   9  10
ENDBRANCH   8   9
ENDBRANCH   5   8
ENDBRANCH   1   2
BRANCH   1  16
ATOM     16  N   UNL     1      47.570   6.736  11.813  0.00  0.00    +0.000 N 
ATOM     17  C   UNL     1      46.242   6.846  11.496  0.00  0.00    +0.000 C 
ATOM     18  O   UNL     1      45.590   7.864  11.696  0.00  0.00    +0.000 OA
ATOM     19  H   UNL     1      47.962   5.800  11.864  0.00  0.00    +0.000 HD
BRANCH  17  20
ATOM     20  C   UNL     1      45.650   5.680  10.831  0.00  0.00    +0.000 A 
ATOM     21  C   UNL     1      45.802   5.507   9.463  0.00  0.00    +0.000 A 
ATOM     22  S   UNL     1      45.051   4.094   8.868  0.00  0.00    +0.000 S 
ATOM     23  C   UNL     1      44.460   3.691  10.412  0.00  0.00    +0.000 A 
ATOM     24  N   UNL     1      43.680   2.592  10.601  0.00  0.00    +0.000 NA
ATOM     25  C   UNL     1      43.278   2.428  11.819  0.00  0.00    +0.000 A 
ATOM     26  N   UNL     1      43.594   3.252  12.867  0.00  0.00    +0.000 N 
ATOM     27  C   UNL     1      44.415   4.346  12.730  0.00  0.00    +0.000 A 
ATOM     28  O   UNL     1      44.748   5.016  13.698  0.00  0.00    +0.000 OA
ATOM     29  C   UNL     1      44.863   4.598  11.373  0.00  0.00    +0.000 A 
ATOM     30  H   UNL     1      43.272   3.055  13.801  0.00  0.00    +0.000 HD
ENDBRANCH  17  20
ENDBRANCH   1  16
BRANCH   1  31
ATOM     31  C   UNL     1      49.625   8.181  11.753  0.00  0.00    +0.000 C 
BRANCH  31  32
ATOM     32  N   UNL     1      49.690   9.612  11.419  0.00  0.00    +0.000 NA
ATOM     33  H   UNL     1      49.824   9.704  10.413  0.00  0.00    +0.000 HD
ATOM     34  H   UNL     1      50.517  10.025  11.852  0.00  0.00    +0.000 HD
ENDBRANCH  31  32
ENDBRANCH   1  31
TORSDOF 8
ENDMDL
