MODEL 1
REMARK VINA RESULT:    -6.328      0.000      0.000
REMARK INTER + INTRA:          -8.519
REMARK INTER:                  -7.808
REMARK INTRA:                  -0.711
REMARK UNBOUND:                -0.711
REMARK  Name = 
REMARK  5 active torsions:
REMARK  status: ('A' for Active; 'I' for Inactive)
REMARK    1  A    between atoms: C_1  and  C_2
REMARK    2  A    between atoms: C_2  and  C_3
REMARK    3  A    between atoms: C_7  and  C_8
REMARK    4  A    between atoms: C_9  and  C_10
REMARK    5  A    between atoms: C_14  and  C_15
REMARK                            x       y       z     vdW  Elec       q    Type
REMARK                         _______ _______ _______ _____ _____    ______ ____
ROOT
ATOM      1  C   UNL     1      45.091   4.428   9.367  0.00  0.00    +0.000 A 
ATOM      2  C   UNL     1      43.771   4.432   9.858  0.00  0.00    +0.000 A 
ATOM      3  C   UNL     1      43.394   5.249  10.926  0.00  0.00    +0.000 A 
ATOM      4  C   UNL     1      44.330   6.080  11.535  0.00  0.00    +0.000 A 
ATOM      5  C   UNL     1      45.651   6.101  11.081  0.00  0.00    +0.000 A 
ATOM      6  C   UNL     1      46.007   5.303   9.979  0.00  0.00    +0.000 A 
ENDROOT
BRANCH   1   8
ATOM      7  C   UNL     1      44.291   3.258   7.335  0.00  0.00    +0.000 C 
ATOM      8  C   UNL     1      45.510   3.407   8.284  0.00  0.00    +0.000 C 
ATOM      9  C   UNL     1      46.750   3.909   7.501  0.00  0.00    +0.000 C 
ATOM     10  C   UNL     1      47.274   2.871   6.510  0.00  0.00    +0.000 C 
ATOM     11  O   UNL     1      47.571   1.639   7.160  0.00  0.00    +0.000 OA
ATOM     12  C   UNL     1      46.432   1.066   7.794  0.00  0.00    +0.000 C 
ATOM     13  C   UNL     1      45.874   2.008   8.854  0.00  0.00    +0.000 C 
ENDBRANCH   1   8
BRANCH   5  14
ATOM     14  C   UNL     1      46.698   6.909  11.726  0.00  0.00    +0.000 C 
ATOM     15  C   UNL     1      47.670   6.395  12.499  0.00  0.00    +0.000 C 
BRANCH  15  16
ATOM     16  C   UNL     1      48.787   7.181  13.042  0.00  0.00    +0.000 A 
ATOM     17  C   UNL     1      49.249   8.302  12.360  0.00  0.00    +0.000 A 
ATOM     18  C   UNL     1      50.269   9.064  12.926  0.00  0.00    +0.000 A 
ATOM     19  C   UNL     1      50.796   8.687  14.156  0.00  0.00    +0.000 A 
ATOM     20  C   UNL     1      50.282   7.552  14.767  0.00  0.00    +0.000 A 
ATOM     21  N   UNL     1      49.293   6.796  14.235  0.00  0.00    +0.000 NA
BRANCH  20  22
ATOM     22  C   UNL     1      50.782   7.120  16.042  0.00  0.00    +0.000 C 
ATOM     23  N   UNL     1      51.222   6.756  17.056  0.00  0.00    +0.000 NA
ENDBRANCH  20  22
ENDBRANCH  15  16
ENDBRANCH   5  14
TORSDOF 4
ENDMDL
MODEL 2
REMARK VINA RESULT:    -6.307      2.603      4.239
REMARK INTER + INTRA:          -8.493
REMARK INTER:                  -7.844
REMARK INTRA:                  -0.649
REMARK UNBOUND:                -0.711
REMARK  Name = 
REMARK  5 active torsions:
REMARK  status: ('A' for Active; 'I' for Inactive)
REMARK    1  A    between atoms: C_1  and  C_2
REMARK    2  A    between atoms: C_2  and  C_3
REMARK    3  A    between atoms: C_7  and  C_8
REMARK    4  A    between atoms: C_9  and  C_10
REMARK    5  A    between atoms: C_14  and  C_15
REMARK                            x       y       z     vdW  Elec       q    Type
REMARK                         _______ _______ _______ _____ _____    ______ ____
ROOT
ATOM      1  C   UNL     1      45.684   6.108  11.806  0.00  0.00    +0.000 A 
ATOM      2  C   UNL     1      45.411   7.489  11.767  0.00  0.00    +0.000 A 
ATOM      3  C   UNL     1      46.081   8.388  12.600  0.00  0.00    +0.000 A 
ATOM      4  C   UNL     1      47.039   7.927  13.499  0.00  0.00    +0.000 A 
ATOM      5  C   UNL     1      47.335   6.563  13.571  0.00  0.00    +0.000 A 
ATOM      6  C   UNL     1      46.681   5.675  12.699  0.00  0.00    +0.000 A 
ENDROOT
BRANCH   1   8
ATOM      7  C   UNL     1      43.370   5.670  11.036  0.00  0.00    +0.000 C 
ATOM      8  C   UNL     1      44.822   5.126  10.978  0.00  0.00    +0.000 C 
ATOM      9  C   UNL     1      45.319   5.056   9.511  0.00  0.00    +0.000 C 
ATOM     10  C   UNL     1      44.576   4.000   8.695  0.00  0.00    +0.000 C 
ATOM     11  O   UNL     1      44.667   2.716   9.304  0.00  0.00    +0.000 OA
ATOM     12  C   UNL     1      44.109   2.691  10.614  0.00  0.00    +0.000 C 
ATOM     13  C   UNL     1      44.834   3.673  11.527  0.00  0.00    +0.000 C 
ENDBRANCH   1   8
BRANCH   5  14
ATOM     14  C   UNL     1      48.289   6.010  14.546  0.00  0.00    +0.000 C 
ATOM     15  C   UNL     1      48.374   6.417  15.824  0.00  0.00    +0.000 C 
BRANCH  15  16
ATOM     16  C   UNL     1      49.237   5.783  16.830  0.00  0.00    +0.000 A 
ATOM     17  C   UNL     1      49.668   6.506  17.937  0.00  0.00    +0.000 A 
ATOM     18  C   UNL     1      50.436   5.864  18.907  0.00  0.00    +0.000 A 
ATOM     19  C   UNL     1      50.750   4.520  18.744  0.00  0.00    +0.000 A 
ATOM     20  C   UNL     1      50.284   3.873  17.608  0.00  0.00    +0.000 A 
ATOM     21  N   UNL     1      49.539   4.477  16.653  0.00  0.00    +0.000 NA
BRANCH  20  22
ATOM     22  C   UNL     1      50.569   2.482  17.392  0.00  0.00    +0.000 C 
ATOM     23  N   UNL     1      50.825   1.365  17.185  0.00  0.00    +0.000 NA
ENDBRANCH  20  22
ENDBRANCH  15  16
ENDBRANCH   5  14
TORSDOF 4
ENDMDL
MODEL 3
REMARK VINA RESULT:    -6.083      3.693      7.732
REMARK INTER + INTRA:          -8.217
REMARK INTER:                  -7.572
REMARK INTRA:                  -0.645
REMARK UNBOUND:                -0.711
REMARK  Name = 
REMARK  5 active torsions:
REMARK  status: ('A' for Active; 'I' for Inactive)
REMARK    1  A    between atoms: C_1  and  C_2
REMARK    2  A    between atoms: C_2  and  C_3
REMARK    3  A    between atoms: C_7  and  C_8
REMARK    4  A    between atoms: C_9  and  C_10
REMARK    5  A    between atoms: C_14  and  C_15
REMARK                            x       y       z     vdW  Elec       q    Type
REMARK                         _______ _______ _______ _____ _____    ______ ____
ROOT
ATOM      1  C   UNL     1      50.289   8.752  11.495  0.00  0.00    +0.000 A 
ATOM      2  C   UNL     1      49.755  10.053  11.552  0.00  0.00    +0.000 A 
ATOM      3  C   UNL     1      48.406  10.275  11.840  0.00  0.00    +0.000 A 
ATOM      4  C   UNL     1      47.555   9.199  12.074  0.00  0.00    +0.000 A 
ATOM      5  C   UNL     1      48.045   7.892  12.022  0.00  0.00    +0.000 A 
ATOM      6  C   UNL     1      49.413   7.685  11.769  0.00  0.00    +0.000 A 
ENDROOT
BRANCH   1   8
ATOM      7  C   UNL     1      52.103   9.754  10.138  0.00  0.00    +0.000 C 
ATOM      8  C   UNL     1      51.747   8.534  11.028  0.00  0.00    +0.000 C 
ATOM      9  C   UNL     1      52.709   8.448  12.242  0.00  0.00    +0.000 C 
ATOM     10  C   UNL     1      54.138   8.103  11.829  0.00  0.00    +0.000 C 
ATOM     11  O   UNL     1      54.184   6.892  11.082  0.00  0.00    +0.000 OA
ATOM     12  C   UNL     1      53.414   6.957   9.885  0.00  0.00    +0.000 C 
ATOM     13  C   UNL     1      51.949   7.234  10.201  0.00  0.00    +0.000 C 
ENDBRANCH   1   8
BRANCH   5  14
ATOM     14  C   UNL     1      47.181   6.714  12.195  0.00  0.00    +0.000 C 
ATOM     15  C   UNL     1      45.870   6.696  11.896  0.00  0.00    +0.000 C 
BRANCH  15  16
ATOM     16  C   UNL     1      45.034   5.490  11.949  0.00  0.00    +0.000 A 
ATOM     17  C   UNL     1      44.106   5.328  12.973  0.00  0.00    +0.000 A 
ATOM     18  C   UNL     1      43.283   4.203  12.968  0.00  0.00    +0.000 A 
ATOM     19  C   UNL     1      43.409   3.274  11.941  0.00  0.00    +0.000 A 
ATOM     20  C   UNL     1      44.363   3.509  10.961  0.00  0.00    +0.000 A 
ATOM     21  N   UNL     1      45.174   4.593  10.947  0.00  0.00    +0.000 NA
BRANCH  20  22
ATOM     22  C   UNL     1      44.532   2.589   9.871  0.00  0.00    +0.000 C 
ATOM     23  N   UNL     1      44.708   1.857   8.983  0.00  0.00    +0.000 NA
ENDBRANCH  20  22
ENDBRANCH  15  16
ENDBRANCH   5  14
TORSDOF 4
ENDMDL
MODEL 4
REMARK VINA RESULT:    -6.037      5.144      9.797
REMARK INTER + INTRA:          -8.160
REMARK INTER:                  -7.471
REMARK INTRA:                  -0.690
REMARK UNBOUND:                -0.711
REMARK  Name = 
REMARK  5 active torsions:
REMARK  status: ('A' for Active; 'I' for Inactive)
REMARK    1  A    between atoms: C_1  and  C_2
REMARK    2  A    between atoms: C_2  and  C_3
REMARK    3  A    between atoms: C_7  and  C_8
REMARK    4  A    between atoms: C_9  and  C_10
REMARK    5  A    between atoms: C_14  and  C_15
REMARK                            x       y       z     vdW  Elec       q    Type
REMARK                         _______ _______ _______ _____ _____    ______ ____
ROOT
ATOM      1  C   UNL     1      48.562   5.264  18.541  0.00  0.00    +0.000 A 
ATOM      2  C   UNL     1      49.292   4.119  18.911  0.00  0.00    +0.000 A 
ATOM      3  C   UNL     1      49.327   2.982  18.101  0.00  0.00    +0.000 A 
ATOM      4  C   UNL     1      48.625   2.960  16.899  0.00  0.00    +0.000 A 
ATOM      5  C   UNL     1      47.884   4.074  16.497  0.00  0.00    +0.000 A 
ATOM      6  C   UNL     1      47.890   5.225  17.304  0.00  0.00    +0.000 A 
ENDROOT
BRANCH   1   8
ATOM      7  C   UNL     1      47.632   5.903  20.746  0.00  0.00    +0.000 C 
ATOM      8  C   UNL     1      48.424   6.447  19.527  0.00  0.00    +0.000 C 
ATOM      9  C   UNL     1      49.818   6.962  19.970  0.00  0.00    +0.000 C 
ATOM     10  C   UNL     1      49.726   8.213  20.843  0.00  0.00    +0.000 C 
ATOM     11  O   UNL     1      49.007   9.251  20.185  0.00  0.00    +0.000 OA
ATOM     12  C   UNL     1      47.671   8.874  19.865  0.00  0.00    +0.000 C 
ATOM     13  C   UNL     1      47.661   7.664  18.937  0.00  0.00    +0.000 C 
ENDBRANCH   1   8
BRANCH   5  14
ATOM     14  C   UNL     1      47.071   4.084  15.271  0.00  0.00    +0.000 C 
ATOM     15  C   UNL     1      46.961   5.146  14.455  0.00  0.00    +0.000 C 
BRANCH  15  16
ATOM     16  C   UNL     1      46.252   5.120  13.168  0.00  0.00    +0.000 A 
ATOM     17  C   UNL     1      46.583   6.031  12.169  0.00  0.00    +0.000 A 
ATOM     18  C   UNL     1      45.938   5.947  10.937  0.00  0.00    +0.000 A 
ATOM     19  C   UNL     1      44.983   4.956  10.736  0.00  0.00    +0.000 A 
ATOM     20  C   UNL     1      44.709   4.091  11.786  0.00  0.00    +0.000 A 
ATOM     21  N   UNL     1      45.322   4.156  12.992  0.00  0.00    +0.000 NA
BRANCH  20  22
ATOM     22  C   UNL     1      43.739   3.043  11.633  0.00  0.00    +0.000 C 
ATOM     23  N   UNL     1      42.976   2.169  11.536  0.00  0.00    +0.000 NA
ENDBRANCH  20  22
ENDBRANCH  15  16
ENDBRANCH   5  14
TORSDOF 4
ENDMDL
MODEL 5
REMARK VINA RESULT:    -5.852      2.866      5.038
REMARK INTER + INTRA:          -7.931
REMARK INTER:                  -7.244
REMARK INTRA:                  -0.687
REMARK UNBOUND:                -0.711
REMARK  Name = 
REMARK  5 active torsions:
REMARK  status: ('A' for Active; 'I' for Inactive)
REMARK    1  A    between atoms: C_1  and  C_2
REMARK    2  A    between atoms: C_2  and  C_3
REMARK    3  A    between atoms: C_7  and  C_8
REMARK    4  A    between atoms: C_9  and  C_10
REMARK    5  A    between atoms: C_14  and  C_15
REMARK                            x       y       z     vdW  Elec       q    Type
REMARK                         _______ _______ _______ _____ _____    ______ ____
ROOT
ATOM      1  C   UNL     1      46.572   5.897  12.405  0.00  0.00    +0.000 A 
ATOM      2  C   UNL     1      47.168   6.772  11.478  0.00  0.00    +0.000 A 
ATOM      3  C   UNL     1      48.278   7.549  11.817  0.00  0.00    +0.000 A 
ATOM      4  C   UNL     1      48.817   7.475  13.098  0.00  0.00    +0.000 A 
ATOM      5  C   UNL     1      48.251   6.623  14.050  0.00  0.00    +0.000 A 
ATOM      6  C   UNL     1      47.159   5.817  13.682  0.00  0.00    +0.000 A 
ENDROOT
BRANCH   1   8
ATOM      7  C   UNL     1      44.126   5.912  12.794  0.00  0.00    +0.000 C 
ATOM      8  C   UNL     1      45.259   5.164  12.044  0.00  0.00    +0.000 C 
ATOM      9  C   UNL     1      45.012   5.195  10.514  0.00  0.00    +0.000 C 
ATOM     10  C   UNL     1      43.794   4.370  10.104  0.00  0.00    +0.000 C 
ATOM     11  O   UNL     1      43.905   3.024  10.554  0.00  0.00    +0.000 OA
ATOM     12  C   UNL     1      44.009   2.927  11.971  0.00  0.00    +0.000 C 
ATOM     13  C   UNL     1      45.242   3.671  12.472  0.00  0.00    +0.000 C 
ENDBRANCH   1   8
BRANCH   5  14
ATOM     14  C   UNL     1      48.735   6.552  15.438  0.00  0.00    +0.000 C 
ATOM     15  C   UNL     1      48.524   5.503  16.252  0.00  0.00    +0.000 C 
BRANCH  15  16
ATOM     16  C   UNL     1      49.112   5.375  17.592  0.00  0.00    +0.000 A 
ATOM     17  C   UNL     1      48.409   5.818  18.709  0.00  0.00    +0.000 A 
ATOM     18  C   UNL     1      48.962   5.631  19.974  0.00  0.00    +0.000 A 
ATOM     19  C   UNL     1      50.199   5.006  20.088  0.00  0.00    +0.000 A 
ATOM     20  C   UNL     1      50.836   4.599  18.925  0.00  0.00    +0.000 A 
ATOM     21  N   UNL     1      50.318   4.772  17.685  0.00  0.00    +0.000 NA
BRANCH  20  22
ATOM     22  C   UNL     1      52.110   3.940  18.983  0.00  0.00    +0.000 C 
ATOM     23  N   UNL     1      53.140   3.396  18.988  0.00  0.00    +0.000 NA
ENDBRANCH  20  22
ENDBRANCH  15  16
ENDBRANCH   5  14
TORSDOF 4
ENDMDL
MODEL 6
REMARK VINA RESULT:    -5.840      1.728      2.403
REMARK INTER + INTRA:          -7.917
REMARK INTER:                  -7.261
REMARK INTRA:                  -0.656
REMARK UNBOUND:                -0.711
REMARK  Name = 
REMARK  5 active torsions:
REMARK  status: ('A' for Active; 'I' for Inactive)
REMARK    1  A    between atoms: C_1  and  C_2
REMARK    2  A    between atoms: C_2  and  C_3
REMARK    3  A    between atoms: C_7  and  C_8
REMARK    4  A    between atoms: C_9  and  C_10
REMARK    5  A    between atoms: C_14  and  C_15
REMARK                            x       y       z     vdW  Elec       q    Type
REMARK                         _______ _______ _______ _____ _____    ______ ____
ROOT
ATOM      1  C   UNL     1      44.811   4.390  10.118  0.00  0.00    +0.000 A 
ATOM      2  C   UNL     1      43.441   4.503  10.419  0.00  0.00    +0.000 A 
ATOM      3  C   UNL     1      43.003   5.026  11.637  0.00  0.00    +0.000 A 
ATOM      4  C   UNL     1      43.926   5.447  12.589  0.00  0.00    +0.000 A 
ATOM      5  C   UNL     1      45.296   5.347  12.331  0.00  0.00    +0.000 A 
ATOM      6  C   UNL     1      45.722   4.855  11.085  0.00  0.00    +0.000 A 
ENDROOT
BRANCH   1   8
ATOM      7  C   UNL     1      44.034   3.670   7.879  0.00  0.00    +0.000 C 
ATOM      8  C   UNL     1      45.263   3.671   8.825  0.00  0.00    +0.000 C 
ATOM      9  C   UNL     1      46.455   4.414   8.168  0.00  0.00    +0.000 C 
ATOM     10  C   UNL     1      47.014   3.663   6.960  0.00  0.00    +0.000 C 
ATOM     11  O   UNL     1      47.396   2.336   7.307  0.00  0.00    +0.000 OA
ATOM     12  C   UNL     1      46.306   1.565   7.802  0.00  0.00    +0.000 C 
ATOM     13  C   UNL     1      45.719   2.204   9.055  0.00  0.00    +0.000 C 
ENDBRANCH   1   8
BRANCH   5  14
ATOM     14  C   UNL     1      46.318   5.714  13.324  0.00  0.00    +0.000 C 
ATOM     15  C   UNL     1      46.613   4.971  14.404  0.00  0.00    +0.000 C 
BRANCH  15  16
ATOM     16  C   UNL     1      47.716   5.270  15.328  0.00  0.00    +0.000 A 
ATOM     17  C   UNL     1      47.860   4.540  16.504  0.00  0.00    +0.000 A 
ATOM     18  C   UNL     1      48.949   4.803  17.333  0.00  0.00    +0.000 A 
ATOM     19  C   UNL     1      49.863   5.784  16.964  0.00  0.00    +0.000 A 
ATOM     20  C   UNL     1      49.643   6.468  15.777  0.00  0.00    +0.000 A 
ATOM     21  N   UNL     1      48.591   6.231  14.957  0.00  0.00    +0.000 NA
BRANCH  20  22
ATOM     22  C   UNL     1      50.559   7.485  15.341  0.00  0.00    +0.000 C 
ATOM     23  N   UNL     1      51.324   8.279  14.968  0.00  0.00    +0.000 NA
ENDBRANCH  20  22
ENDBRANCH  15  16
ENDBRANCH   5  14
TORSDOF 4
ENDMDL
MODEL 7
REMARK VINA RESULT:    -5.830      4.089      9.067
REMARK INTER + INTRA:          -7.904
REMARK INTER:                  -7.179
REMARK INTRA:                  -0.725
REMARK UNBOUND:                -0.711
REMARK  Name = 
REMARK  5 active torsions:
REMARK  status: ('A' for Active; 'I' for Inactive)
REMARK    1  A    between atoms: C_1  and  C_2
REMARK    2  A    between atoms: C_2  and  C_3
REMARK    3  A    between atoms: C_7  and  C_8
REMARK    4  A    between atoms: C_9  and  C_10
REMARK    5  A    between atoms: C_14  and  C_15
REMARK                            x       y       z     vdW  Elec       q    Type
REMARK                         _______ _______ _______ _____ _____    ______ ____
ROOT
ATOM      1  C   UNL     1      49.622   6.599  16.109  0.00  0.00    +0.000 A 
ATOM      2  C   UNL     1      50.639   7.390  15.543  0.00  0.00    +0.000 A 
ATOM      3  C   UNL     1      50.551   7.864  14.232  0.00  0.00    +0.000 A 
ATOM      4  C   UNL     1      49.443   7.552  13.450  0.00  0.00    +0.000 A 
ATOM      5  C   UNL     1      48.413   6.765  13.973  0.00  0.00    +0.000 A 
ATOM      6  C   UNL     1      48.497   6.328  15.307  0.00  0.00    +0.000 A 
ENDROOT
BRANCH   1   8
ATOM      7  C   UNL     1      51.240   5.346  17.505  0.00  0.00    +0.000 C 
ATOM      8  C   UNL     1      49.819   5.969  17.508  0.00  0.00    +0.000 C 
ATOM      9  C   UNL     1      49.698   7.044  18.619  0.00  0.00    +0.000 C 
ATOM     10  C   UNL     1      49.757   6.441  20.021  0.00  0.00    +0.000 C 
ATOM     11  O   UNL     1      48.759   5.441  20.197  0.00  0.00    +0.000 OA
ATOM     12  C   UNL     1      48.897   4.361  19.278  0.00  0.00    +0.000 C 
ATOM     13  C   UNL     1      48.785   4.859  17.842  0.00  0.00    +0.000 C 
ENDBRANCH   1   8
BRANCH   5  14
ATOM     14  C   UNL     1      47.250   6.349  13.173  0.00  0.00    +0.000 C 
ATOM     15  C   UNL     1      46.522   5.248  13.428  0.00  0.00    +0.000 C 
BRANCH  15  16
ATOM     16  C   UNL     1      45.288   4.898  12.710  0.00  0.00    +0.000 A 
ATOM     17  C   UNL     1      44.090   5.529  13.030  0.00  0.00    +0.000 A 
ATOM     18  C   UNL     1      42.948   5.223  12.294  0.00  0.00    +0.000 A 
ATOM     19  C   UNL     1      43.033   4.297  11.260  0.00  0.00    +0.000 A 
ATOM     20  C   UNL     1      44.265   3.710  11.010  0.00  0.00    +0.000 A 
ATOM     21  N   UNL     1      45.388   3.991  11.713  0.00  0.00    +0.000 NA
BRANCH  20  22
ATOM     22  C   UNL     1      44.416   2.753   9.948  0.00  0.00    +0.000 C 
ATOM     23  N   UNL     1      44.568   2.003   9.072  0.00  0.00    +0.000 NA
ENDBRANCH  20  22
ENDBRANCH  15  16
ENDBRANCH   5  14
TORSDOF 4
ENDMDL
MODEL 8
REMARK VINA RESULT:    -5.428      4.899      9.757
REMARK INTER + INTRA:          -7.409
REMARK INTER:                  -6.740
REMARK INTRA:                  -0.669
REMARK UNBOUND:                -0.711
REMARK  Name = 
REMARK  5 active torsions:
REMARK  status: ('A' for Active; 'I' for Inactive)
REMARK    1  A    between atoms: C_1  and  C_2
REMARK    2  A    between atoms: C_2  and  C_3
REMARK    3  A    between atoms: C_7  and  C_8
REMARK    4  A    between atoms: C_9  and  C_10
REMARK    5  A    between atoms: C_14  and  C_15
REMARK                            x       y       z     vdW  Elec       q    Type
REMARK                         _______ _______ _______ _____ _____    ______ ____
ROOT
ATOM      1  C   UNL     1      50.678   4.591  18.420  0.00  0.00    +0.000 A 
ATOM      2  C   UNL     1      49.893   4.629  19.587  0.00  0.00    +0.000 A 
ATOM      3  C   UNL     1      48.512   4.834  19.531  0.00  0.00    +0.000 A 
ATOM      4  C   UNL     1      47.882   5.012  18.304  0.00  0.00    +0.000 A 
ATOM      5  C   UNL     1      48.626   4.987  17.121  0.00  0.00    +0.000 A 
ATOM      6  C   UNL     1      50.009   4.741  17.190  0.00  0.00    +0.000 A 
ENDROOT
BRANCH   1   8
ATOM      7  C   UNL     1      52.584   3.010  18.383  0.00  0.00    +0.000 C 
ATOM      8  C   UNL     1      52.219   4.511  18.526  0.00  0.00    +0.000 C 
ATOM      9  C   UNL     1      52.894   5.344  17.405  0.00  0.00    +0.000 C 
ATOM     10  C   UNL     1      54.413   5.397  17.554  0.00  0.00    +0.000 C 
ATOM     11  O   UNL     1      54.792   5.897  18.831  0.00  0.00    +0.000 OA
ATOM     12  C   UNL     1      54.301   5.095  19.901  0.00  0.00    +0.000 C 
ATOM     13  C   UNL     1      52.778   5.037  19.876  0.00  0.00    +0.000 C 
ENDBRANCH   1   8
BRANCH   5  14
ATOM     14  C   UNL     1      48.026   5.235  15.801  0.00  0.00    +0.000 C 
ATOM     15  C   UNL     1      47.168   4.393  15.199  0.00  0.00    +0.000 C 
BRANCH  15  16
ATOM     16  C   UNL     1      46.472   4.695  13.940  0.00  0.00    +0.000 A 
ATOM     17  C   UNL     1      46.856   5.792  13.175  0.00  0.00    +0.000 A 
ATOM     18  C   UNL     1      46.220   6.021  11.956  0.00  0.00    +0.000 A 
ATOM     19  C   UNL     1      45.221   5.149  11.537  0.00  0.00    +0.000 A 
ATOM     20  C   UNL     1      44.896   4.083  12.363  0.00  0.00    +0.000 A 
ATOM     21  N   UNL     1      45.499   3.842  13.551  0.00  0.00    +0.000 NA
BRANCH  20  22
ATOM     22  C   UNL     1      43.879   3.145  11.976  0.00  0.00    +0.000 C 
ATOM     23  N   UNL     1      43.040   2.413  11.636  0.00  0.00    +0.000 NA
ENDBRANCH  20  22
ENDBRANCH  15  16
ENDBRANCH   5  14
TORSDOF 4
ENDMDL
MODEL 9
REMARK VINA RESULT:    -5.325      4.009      8.879
REMARK INTER + INTRA:          -7.282
REMARK INTER:                  -6.572
REMARK INTRA:                  -0.710
REMARK UNBOUND:                -0.711
REMARK  Name = 
REMARK  5 active torsions:
REMARK  status: ('A' for Active; 'I' for Inactive)
REMARK    1  A    between atoms: C_1  and  C_2
REMARK    2  A    between atoms: C_2  and  C_3
REMARK    3  A    between atoms: C_7  and  C_8
REMARK    4  A    between atoms: C_9  and  C_10
REMARK    5  A    between atoms: C_14  and  C_15
REMARK                            x       y       z     vdW  Elec       q    Type
REMARK                         _______ _______ _______ _____ _____    ______ ____
ROOT
ATOM      1  C   UNL     1      49.968   8.079  14.321  0.00  0.00    +0.000 A 
ATOM      2  C   UNL     1      50.893   8.571  13.381  0.00  0.00    +0.000 A 
ATOM      3  C   UNL     1      50.655   8.480  12.007  0.00  0.00    +0.000 A 
ATOM      4  C   UNL     1      49.486   7.888  11.539  0.00  0.00    +0.000 A 
ATOM      5  C   UNL     1      48.545   7.382  12.439  0.00  0.00    +0.000 A 
ATOM      6  C   UNL     1      48.780   7.516  13.820  0.00  0.00    +0.000 A 
ENDROOT
BRANCH   1   8
ATOM      7  C   UNL     1      48.983   7.954  16.590  0.00  0.00    +0.000 C 
ATOM      8  C   UNL     1      50.328   8.062  15.825  0.00  0.00    +0.000 C 
ATOM      9  C   UNL     1      51.243   6.855  16.160  0.00  0.00    +0.000 C 
ATOM     10  C   UNL     1      51.727   6.877  17.609  0.00  0.00    +0.000 C 
ATOM     11  O   UNL     1      52.394   8.097  17.914  0.00  0.00    +0.000 OA
ATOM     12  C   UNL     1      51.557   9.236  17.743  0.00  0.00    +0.000 C 
ATOM     13  C   UNL     1      51.074   9.338  16.301  0.00  0.00    +0.000 C 
ENDBRANCH   1   8
BRANCH   5  14
ATOM     14  C   UNL     1      47.324   6.687  12.003  0.00  0.00    +0.000 C 
ATOM     15  C   UNL     1      46.648   5.810  12.764  0.00  0.00    +0.000 C 
BRANCH  15  16
ATOM     16  C   UNL     1      45.363   5.211  12.380  0.00  0.00    +0.000 A 
ATOM     17  C   UNL     1      44.180   5.663  12.957  0.00  0.00    +0.000 A 
ATOM     18  C   UNL     1      42.970   5.120  12.532  0.00  0.00    +0.000 A 
ATOM     19  C   UNL     1      42.974   4.143  11.542  0.00  0.00    +0.000 A 
ATOM     20  C   UNL     1      44.197   3.745  11.022  0.00  0.00    +0.000 A 
ATOM     21  N   UNL     1      45.385   4.258  11.422  0.00  0.00    +0.000 NA
BRANCH  20  22
ATOM     22  C   UNL     1      44.262   2.747   9.991  0.00  0.00    +0.000 C 
ATOM     23  N   UNL     1      44.357   1.939   9.159  0.00  0.00    +0.000 NA
ENDBRANCH  20  22
ENDBRANCH  15  16
ENDBRANCH   5  14
TORSDOF 4
ENDMDL
