MODEL 1
REMARK VINA RESULT:    -7.214      0.000      0.000
REMARK INTER + INTRA:         -12.277
REMARK INTER:                 -10.799
REMARK INTRA:                  -1.479
REMARK UNBOUND:                -1.479
REMARK  Name = 
REMARK  9 active torsions:
REMARK  status: ('A' for Active; 'I' for Inactive)
REMARK    1  A    between atoms: C_2  and  C_21
REMARK    2  A    between atoms: N_3  and  C_4
REMARK    3  A    between atoms: C_4  and  C_5
REMARK    4  A    between atoms: C_8  and  C_9
REMARK    5  A    between atoms: C_9  and  N_10
REMARK    6  A    between atoms: N_10  and  CA_11
REMARK    7  A    between atoms: CA_11  and  C_12
REMARK    8  A    between atoms: CA_11  and  C_14
REMARK    9  A    between atoms: C_12  and  O_13
REMARK                            x       y       z     vdW  Elec       q    Type
REMARK                         _______ _______ _______ _____ _____    ______ ____
ROOT
ATOM      1  C   UNL     1      47.638   7.774  12.985  0.00  0.00    +0.000 A 
ATOM      2  C   UNL     1      47.597   6.456  12.507  0.00  0.00    +0.000 A 
ATOM      3  C   UNL     1      46.390   5.889  12.084  0.00  0.00    +0.000 A 
ATOM      4  C   UNL     1      45.208   6.635  12.120  0.00  0.00    +0.000 A 
ATOM      5  C   UNL     1      45.261   7.968  12.555  0.00  0.00    +0.000 A 
ATOM      6  C   UNL     1      46.463   8.535  12.974  0.00  0.00    +0.000 A 
ENDROOT
BRANCH   1   7
ATOM      7  C   UNL     1      48.915   8.369  13.510  0.00  0.00    +0.000 C 
BRANCH   7  10
ATOM      8  O   UNL     1      48.171   9.147  16.046  0.00  0.00    +0.000 OA
ATOM      9  C   UNL     1      48.866   8.143  15.931  0.00  0.00    +0.000 C 
ATOM     10  N   UNL     1      49.356   7.729  14.718  0.00  0.00    +0.000 N 
ATOM     11  H   UNL     1      49.762   6.803  14.629  0.00  0.00    +0.000 HD
BRANCH   9  12
ATOM     12  C   UNL     1      49.230   7.332  17.097  0.00  0.00    +0.000 A 
ATOM     13  C   UNL     1      49.900   7.920  18.168  0.00  0.00    +0.000 A 
ATOM     14  S   UNL     1      50.200   6.839  19.452  0.00  0.00    +0.000 S 
ATOM     15  C   UNL     1      49.409   5.566  18.644  0.00  0.00    +0.000 A 
ATOM     16  N   UNL     1      49.258   4.349  19.229  0.00  0.00    +0.000 NA
ATOM     17  C   UNL     1      48.608   3.493  18.517  0.00  0.00    +0.000 A 
ATOM     18  N   UNL     1      48.111   3.738  17.262  0.00  0.00    +0.000 N 
ATOM     19  C   UNL     1      48.291   4.930  16.611  0.00  0.00    +0.000 A 
ATOM     20  O   UNL     1      47.915   5.083  15.449  0.00  0.00    +0.000 OA
ATOM     21  C   UNL     1      48.969   5.945  17.392  0.00  0.00    +0.000 A 
ATOM     22  H   UNL     1      47.637   3.014  16.742  0.00  0.00    +0.000 HD
ENDBRANCH   9  12
ENDBRANCH   7  10
ENDBRANCH   1   7
BRANCH   4  23
ATOM     23  C   UNL     1      43.896   6.063  11.642  0.00  0.00    +0.000 C 
BRANCH  23  24
ATOM     24  N   UNL     1      43.949   5.558  10.264  0.00  0.00    +0.000 NA
ATOM     25  H   UNL     1      44.907   5.693   9.930  0.00  0.00    +0.000 HD
BRANCH  24  26
ATOM     26  CA  UNL     1      43.677   4.096  10.237  0.00  0.00    +0.000 C 
BRANCH  26  27
ATOM     27  C   UNL     1      44.701   3.463   9.281  0.00  0.00    +0.000 C 
ATOM     28  N   UNL     1      45.196   4.112   8.257  0.00  0.00    +0.000 NA
ATOM     29  C   UNL     1      46.012   3.094   7.530  0.00  0.00    +0.000 C 
ATOM     30  C   UNL     1      45.968   1.800   8.348  0.00  0.00    +0.000 C 
ATOM     31  N   UNL     1      45.087   2.153   9.436  0.00  0.00    +0.000 N 
ATOM     32  H   UNL     1      44.329   1.512   9.651  0.00  0.00    +0.000 HD
ENDBRANCH  26  27
BRANCH  26  33
ATOM     33  C   UNL     1      43.721   3.385  11.608  0.00  0.00    +0.000 C 
BRANCH  33  34
ATOM     34  O   UNL     1      42.955   2.178  11.600  0.00  0.00    +0.000 OA
ATOM     35  H   UNL     1      43.606   1.464  11.423  0.00  0.00    +0.000 HD
ENDBRANCH  33  34
ENDBRANCH  26  33
ENDBRANCH  24  26
ENDBRANCH  23  24
ENDBRANCH   4  23
TORSDOF 9
ENDMDL
MODEL 2
REMARK VINA RESULT:    -7.175      4.712      9.713
REMARK INTER + INTRA:         -12.219
REMARK INTER:                 -10.941
REMARK INTRA:                  -1.278
REMARK UNBOUND:                -1.479
REMARK  Name = 
REMARK  9 active torsions:
REMARK  status: ('A' for Active; 'I' for Inactive)
REMARK    1  A    between atoms: C_2  and  C_21
REMARK    2  A    between atoms: N_3  and  C_4
REMARK    3  A    between atoms: C_4  and  C_5
REMARK    4  A    between atoms: C_8  and  C_9
REMARK    5  A    between atoms: C_9  and  N_10
REMARK    6  A    between atoms: N_10  and  CA_11
REMARK    7  A    between atoms: CA_11  and  C_12
REMARK    8  A    between atoms: CA_11  and  C_14
REMARK    9  A    between atoms: C_12  and  O_13
REMARK                            x       y       z     vdW  Elec       q    Type
REMARK                         _______ _______ _______ _____ _____    ______ ____
ROOT
ATOM      1  C   UNL     1      48.735   3.343  17.186  0.00  0.00    +0.000 A 
ATOM      2  C   UNL     1      49.560   4.335  17.737  0.00  0.00    +0.000 A 
ATOM      3  C   UNL     1      50.903   4.068  18.021  0.00  0.00    +0.000 A 
ATOM      4  C   UNL     1      51.446   2.808  17.747  0.00  0.00    +0.000 A 
ATOM      5  C   UNL     1      50.630   1.833  17.152  0.00  0.00    +0.000 A 
ATOM      6  C   UNL     1      49.292   2.101  16.866  0.00  0.00    +0.000 A 
ENDROOT
BRANCH   1   7
ATOM      7  C   UNL     1      47.273   3.598  16.944  0.00  0.00    +0.000 C 
BRANCH   7  10
ATOM      8  O   UNL     1      47.311   3.179  14.221  0.00  0.00    +0.000 OA
ATOM      9  C   UNL     1      47.018   4.298  14.629  0.00  0.00    +0.000 C 
ATOM     10  N   UNL     1      47.056   4.623  15.961  0.00  0.00    +0.000 N 
ATOM     11  H   UNL     1      46.631   5.488  16.280  0.00  0.00    +0.000 HD
BRANCH   9  12
ATOM     12  C   UNL     1      46.623   5.365  13.703  0.00  0.00    +0.000 A 
ATOM     13  C   UNL     1      47.531   6.370  13.377  0.00  0.00    +0.000 A 
ATOM     14  S   UNL     1      46.916   7.497  12.255  0.00  0.00    +0.000 S 
ATOM     15  C   UNL     1      45.440   6.660  12.133  0.00  0.00    +0.000 A 
ATOM     16  N   UNL     1      44.466   7.073  11.280  0.00  0.00    +0.000 NA
ATOM     17  C   UNL     1      43.417   6.323  11.266  0.00  0.00    +0.000 A 
ATOM     18  N   UNL     1      43.244   5.206  12.044  0.00  0.00    +0.000 N 
ATOM     19  C   UNL     1      44.173   4.788  12.960  0.00  0.00    +0.000 A 
ATOM     20  O   UNL     1      43.945   3.839  13.710  0.00  0.00    +0.000 OA
ATOM     21  C   UNL     1      45.396   5.566  12.975  0.00  0.00    +0.000 A 
ATOM     22  H   UNL     1      42.385   4.678  12.010  0.00  0.00    +0.000 HD
ENDBRANCH   9  12
ENDBRANCH   7  10
ENDBRANCH   1   7
BRANCH   4  23
ATOM     23  C   UNL     1      52.898   2.497  18.012  0.00  0.00    +0.000 C 
BRANCH  23  24
ATOM     24  N   UNL     1      53.107   1.189  18.645  0.00  0.00    +0.000 NA
ATOM     25  H   UNL     1      52.283   0.618  18.437  0.00  0.00    +0.000 HD
BRANCH  24  26
ATOM     26  CA  UNL     1      54.280   0.502  18.042  0.00  0.00    +0.000 C 
BRANCH  26  27
ATOM     27  C   UNL     1      54.303  -0.930  18.600  0.00  0.00    +0.000 C 
ATOM     28  N   UNL     1      55.409  -1.623  18.702  0.00  0.00    +0.000 NA
ATOM     29  C   UNL     1      54.960  -2.980  19.136  0.00  0.00    +0.000 C 
ATOM     30  C   UNL     1      53.444  -2.917  19.345  0.00  0.00    +0.000 C 
ATOM     31  N   UNL     1      53.135  -1.562  18.956  0.00  0.00    +0.000 N 
ATOM     32  H   UNL     1      52.366  -1.425  18.307  0.00  0.00    +0.000 HD
ENDBRANCH  26  27
BRANCH  26  33
ATOM     33  C   UNL     1      54.312   0.470  16.497  0.00  0.00    +0.000 C 
BRANCH  33  34
ATOM     34  O   UNL     1      54.019  -0.835  15.991  0.00  0.00    +0.000 OA
ATOM     35  H   UNL     1      53.232  -1.133  16.497  0.00  0.00    +0.000 HD
ENDBRANCH  33  34
ENDBRANCH  26  33
ENDBRANCH  24  26
ENDBRANCH  23  24
ENDBRANCH   4  23
TORSDOF 9
ENDMDL
MODEL 3
REMARK VINA RESULT:    -6.968      2.810      3.514
REMARK INTER + INTRA:         -11.910
REMARK INTER:                 -10.736
REMARK INTRA:                  -1.174
REMARK UNBOUND:                -1.479
REMARK  Name = 
REMARK  9 active torsions:
REMARK  status: ('A' for Active; 'I' for Inactive)
REMARK    1  A    between atoms: C_2  and  C_21
REMARK    2  A    between atoms: N_3  and  C_4
REMARK    3  A    between atoms: C_4  and  C_5
REMARK    4  A    between atoms: C_8  and  C_9
REMARK    5  A    between atoms: C_9  and  N_10
REMARK    6  A    between atoms: N_10  and  CA_11
REMARK    7  A    between atoms: CA_11  and  C_12
REMARK    8  A    between atoms: CA_11  and  C_14
REMARK    9  A    between atoms: C_12  and  O_13
REMARK                            x       y       z     vdW  Elec       q    Type
REMARK                         _______ _______ _______ _____ _____    ______ ____
ROOT
ATOM      1  C   UNL     1      48.676   6.208  15.639  0.00  0.00    +0.000 A 
ATOM      2  C   UNL     1      48.397   6.678  14.346  0.00  0.00    +0.000 A 
ATOM      3  C   UNL     1      47.490   6.002  13.523  0.00  0.00    +0.000 A 
ATOM      4  C   UNL     1      46.839   4.853  13.983  0.00  0.00    +0.000 A 
ATOM      5  C   UNL     1      47.086   4.413  15.293  0.00  0.00    +0.000 A 
ATOM      6  C   UNL     1      47.986   5.087  16.114  0.00  0.00    +0.000 A 
ENDROOT
BRANCH   1   7
ATOM      7  C   UNL     1      49.702   6.886  16.504  0.00  0.00    +0.000 C 
BRANCH   7  10
ATOM      8  O   UNL     1      50.293   6.056  19.065  0.00  0.00    +0.000 OA
ATOM      9  C   UNL     1      50.953   5.592  18.140  0.00  0.00    +0.000 C 
ATOM     10  N   UNL     1      50.788   6.010  16.844  0.00  0.00    +0.000 N 
ATOM     11  H   UNL     1      51.209   5.479  16.088  0.00  0.00    +0.000 HD
BRANCH   9  12
ATOM     12  C   UNL     1      51.976   4.568  18.376  0.00  0.00    +0.000 A 
ATOM     13  C   UNL     1      53.134   4.895  19.077  0.00  0.00    +0.000 A 
ATOM     14  S   UNL     1      54.188   3.572  19.295  0.00  0.00    +0.000 S 
ATOM     15  C   UNL     1      53.117   2.513  18.502  0.00  0.00    +0.000 A 
ATOM     16  N   UNL     1      53.394   1.187  18.390  0.00  0.00    +0.000 NA
ATOM     17  C   UNL     1      52.478   0.500  17.798  0.00  0.00    +0.000 A 
ATOM     18  N   UNL     1      51.315   1.022  17.290  0.00  0.00    +0.000 N 
ATOM     19  C   UNL     1      51.022   2.359  17.327  0.00  0.00    +0.000 A 
ATOM     20  O   UNL     1      50.016   2.806  16.777  0.00  0.00    +0.000 OA
ATOM     21  C   UNL     1      51.996   3.169  18.033  0.00  0.00    +0.000 A 
ATOM     22  H   UNL     1      50.650   0.434  16.808  0.00  0.00    +0.000 HD
ENDBRANCH   9  12
ENDBRANCH   7  10
ENDBRANCH   1   7
BRANCH   4  23
ATOM     23  C   UNL     1      45.832   4.119  13.132  0.00  0.00    +0.000 C 
BRANCH  23  24
ATOM     24  N   UNL     1      45.415   4.873  11.943  0.00  0.00    +0.000 NA
ATOM     25  H   UNL     1      46.149   4.756  11.239  0.00  0.00    +0.000 HD
BRANCH  24  26
ATOM     26  CA  UNL     1      44.168   4.296  11.375  0.00  0.00    +0.000 C 
BRANCH  26  27
ATOM     27  C   UNL     1      44.536   3.664  10.023  0.00  0.00    +0.000 C 
ATOM     28  N   UNL     1      45.209   2.544   9.934  0.00  0.00    +0.000 NA
ATOM     29  C   UNL     1      45.473   2.383   8.473  0.00  0.00    +0.000 C 
ATOM     30  C   UNL     1      44.771   3.536   7.749  0.00  0.00    +0.000 C 
ATOM     31  N   UNL     1      44.220   4.298   8.844  0.00  0.00    +0.000 N 
ATOM     32  H   UNL     1      44.384   5.300   8.847  0.00  0.00    +0.000 HD
ENDBRANCH  26  27
BRANCH  26  33
ATOM     33  C   UNL     1      43.447   3.259  12.266  0.00  0.00    +0.000 C 
BRANCH  33  34
ATOM     34  O   UNL     1      42.919   2.178  11.494  0.00  0.00    +0.000 OA
ATOM     35  H   UNL     1      42.513   1.570  12.150  0.00  0.00    +0.000 HD
ENDBRANCH  33  34
ENDBRANCH  26  33
ENDBRANCH  24  26
ENDBRANCH  23  24
ENDBRANCH   4  23
TORSDOF 9
ENDMDL
MODEL 4
REMARK VINA RESULT:    -6.793      2.048      2.322
REMARK INTER + INTRA:         -11.647
REMARK INTER:                 -10.354
REMARK INTRA:                  -1.293
REMARK UNBOUND:                -1.479
REMARK  Name = 
REMARK  9 active torsions:
REMARK  status: ('A' for Active; 'I' for Inactive)
REMARK    1  A    between atoms: C_2  and  C_21
REMARK    2  A    between atoms: N_3  and  C_4
REMARK    3  A    between atoms: C_4  and  C_5
REMARK    4  A    between atoms: C_8  and  C_9
REMARK    5  A    between atoms: C_9  and  N_10
REMARK    6  A    between atoms: N_10  and  CA_11
REMARK    7  A    between atoms: CA_11  and  C_12
REMARK    8  A    between atoms: CA_11  and  C_14
REMARK    9  A    between atoms: C_12  and  O_13
REMARK                            x       y       z     vdW  Elec       q    Type
REMARK                         _______ _______ _______ _____ _____    ______ ____
ROOT
ATOM      1  C   UNL     1      47.815   7.466  13.136  0.00  0.00    +0.000 A 
ATOM      2  C   UNL     1      47.626   6.098  12.889  0.00  0.00    +0.000 A 
ATOM      3  C   UNL     1      46.380   5.613  12.478  0.00  0.00    +0.000 A 
ATOM      4  C   UNL     1      45.306   6.491  12.295  0.00  0.00    +0.000 A 
ATOM      5  C   UNL     1      45.512   7.865  12.498  0.00  0.00    +0.000 A 
ATOM      6  C   UNL     1      46.754   8.348  12.904  0.00  0.00    +0.000 A 
ENDROOT
BRANCH   1   7
ATOM      7  C   UNL     1      49.130   7.986  13.647  0.00  0.00    +0.000 C 
BRANCH   7  10
ATOM      8  O   UNL     1      48.716   7.962  16.371  0.00  0.00    +0.000 OA
ATOM      9  C   UNL     1      49.428   7.088  15.887  0.00  0.00    +0.000 C 
ATOM     10  N   UNL     1      49.760   7.070  14.556  0.00  0.00    +0.000 N 
ATOM     11  H   UNL     1      50.187   6.241  14.156  0.00  0.00    +0.000 HD
BRANCH   9  12
ATOM     12  C   UNL     1      49.983   6.014  16.717  0.00  0.00    +0.000 A 
ATOM     13  C   UNL     1      49.127   5.120  17.357  0.00  0.00    +0.000 A 
ATOM     14  S   UNL     1      49.947   3.913  18.239  0.00  0.00    +0.000 S 
ATOM     15  C   UNL     1      51.466   4.515  17.762  0.00  0.00    +0.000 A 
ATOM     16  N   UNL     1      52.616   3.893  18.134  0.00  0.00    +0.000 NA
ATOM     17  C   UNL     1      53.690   4.437  17.671  0.00  0.00    +0.000 A 
ATOM     18  N   UNL     1      53.719   5.560  16.884  0.00  0.00    +0.000 N 
ATOM     19  C   UNL     1      52.590   6.253  16.534  0.00  0.00    +0.000 A 
ATOM     20  O   UNL     1      52.660   7.310  15.908  0.00  0.00    +0.000 OA
ATOM     21  C   UNL     1      51.351   5.649  16.984  0.00  0.00    +0.000 A 
ATOM     22  H   UNL     1      54.596   5.956  16.578  0.00  0.00    +0.000 HD
ENDBRANCH   9  12
ENDBRANCH   7  10
ENDBRANCH   1   7
BRANCH   4  23
ATOM     23  C   UNL     1      43.958   6.005  11.823  0.00  0.00    +0.000 C 
BRANCH  23  24
ATOM     24  N   UNL     1      43.956   5.565  10.422  0.00  0.00    +0.000 NA
ATOM     25  H   UNL     1      44.910   5.684  10.068  0.00  0.00    +0.000 HD
BRANCH  24  26
ATOM     26  CA  UNL     1      43.634   4.116  10.335  0.00  0.00    +0.000 C 
BRANCH  26  27
ATOM     27  C   UNL     1      44.658   3.481   9.381  0.00  0.00    +0.000 C 
ATOM     28  N   UNL     1      45.174   4.136   8.371  0.00  0.00    +0.000 NA
ATOM     29  C   UNL     1      45.982   3.116   7.639  0.00  0.00    +0.000 C 
ATOM     30  C   UNL     1      45.910   1.812   8.438  0.00  0.00    +0.000 C 
ATOM     31  N   UNL     1      45.023   2.162   9.521  0.00  0.00    +0.000 N 
ATOM     32  H   UNL     1      44.253   1.530   9.719  0.00  0.00    +0.000 HD
ENDBRANCH  26  27
BRANCH  26  33
ATOM     33  C   UNL     1      43.618   3.354  11.679  0.00  0.00    +0.000 C 
BRANCH  33  34
ATOM     34  O   UNL     1      42.901   2.122  11.578  0.00  0.00    +0.000 OA
ATOM     35  H   UNL     1      43.589   1.422  11.628  0.00  0.00    +0.000 HD
ENDBRANCH  33  34
ENDBRANCH  26  33
ENDBRANCH  24  26
ENDBRANCH  23  24
ENDBRANCH   4  23
TORSDOF 9
ENDMDL
MODEL 5
REMARK VINA RESULT:    -6.457      1.866      2.105
REMARK INTER + INTRA:         -11.144
REMARK INTER:                 -10.378
REMARK INTRA:                  -0.766
REMARK UNBOUND:                -1.479
REMARK  Name = 
REMARK  9 active torsions:
REMARK  status: ('A' for Active; 'I' for Inactive)
REMARK    1  A    between atoms: C_2  and  C_21
REMARK    2  A    between atoms: N_3  and  C_4
REMARK    3  A    between atoms: C_4  and  C_5
REMARK    4  A    between atoms: C_8  and  C_9
REMARK    5  A    between atoms: C_9  and  N_10
REMARK    6  A    between atoms: N_10  and  CA_11
REMARK    7  A    between atoms: CA_11  and  C_12
REMARK    8  A    between atoms: CA_11  and  C_14
REMARK    9  A    between atoms: C_12  and  O_13
REMARK                            x       y       z     vdW  Elec       q    Type
REMARK                         _______ _______ _______ _____ _____    ______ ____
ROOT
ATOM      1  C   UNL     1      47.818   7.922  14.136  0.00  0.00    +0.000 A 
ATOM      2  C   UNL     1      48.220   6.655  13.688  0.00  0.00    +0.000 A 
ATOM      3  C   UNL     1      47.518   6.004  12.668  0.00  0.00    +0.000 A 
ATOM      4  C   UNL     1      46.409   6.614  12.072  0.00  0.00    +0.000 A 
ATOM      5  C   UNL     1      46.039   7.902  12.491  0.00  0.00    +0.000 A 
ATOM      6  C   UNL     1      46.740   8.552  13.505  0.00  0.00    +0.000 A 
ENDROOT
BRANCH   1   7
ATOM      7  C   UNL     1      48.523   8.599  15.279  0.00  0.00    +0.000 C 
BRANCH   7  10
ATOM      8  O   UNL     1      48.495   7.246  17.680  0.00  0.00    +0.000 OA
ATOM      9  C   UNL     1      49.475   7.115  16.954  0.00  0.00    +0.000 C 
ATOM     10  N   UNL     1      49.616   7.815  15.783  0.00  0.00    +0.000 N 
ATOM     11  H   UNL     1      50.337   7.547  15.120  0.00  0.00    +0.000 HD
BRANCH   9  12
ATOM     12  C   UNL     1      50.570   6.207  17.312  0.00  0.00    +0.000 A 
ATOM     13  C   UNL     1      51.778   6.726  17.772  0.00  0.00    +0.000 A 
ATOM     14  S   UNL     1      52.916   5.524  18.183  0.00  0.00    +0.000 S 
ATOM     15  C   UNL     1      51.823   4.276  17.804  0.00  0.00    +0.000 A 
ATOM     16  N   UNL     1      52.155   2.971  17.988  0.00  0.00    +0.000 NA
ATOM     17  C   UNL     1      51.218   2.136  17.693  0.00  0.00    +0.000 A 
ATOM     18  N   UNL     1      49.982   2.487  17.211  0.00  0.00    +0.000 N 
ATOM     19  C   UNL     1      49.625   3.785  16.955  0.00  0.00    +0.000 A 
ATOM     20  O   UNL     1      48.544   4.056  16.433  0.00  0.00    +0.000 OA
ATOM     21  C   UNL     1      50.626   4.767  17.322  0.00  0.00    +0.000 A 
ATOM     22  H   UNL     1      49.300   1.782  16.969  0.00  0.00    +0.000 HD
ENDBRANCH   9  12
ENDBRANCH   7  10
ENDBRANCH   1   7
BRANCH   4  23
ATOM     23  C   UNL     1      45.649   5.953  10.950  0.00  0.00    +0.000 C 
BRANCH  23  24
ATOM     24  N   UNL     1      44.245   6.375  10.870  0.00  0.00    +0.000 NA
ATOM     25  H   UNL     1      44.097   6.751   9.929  0.00  0.00    +0.000 HD
BRANCH  24  26
ATOM     26  CA  UNL     1      43.342   5.203  11.021  0.00  0.00    +0.000 C 
BRANCH  26  27
ATOM     27  C   UNL     1      43.824   4.129  10.033  0.00  0.00    +0.000 C 
ATOM     28  N   UNL     1      43.989   2.878  10.385  0.00  0.00    +0.000 NA
ATOM     29  C   UNL     1      44.602   2.231   9.187  0.00  0.00    +0.000 C 
ATOM     30  C   UNL     1      44.675   3.288   8.081  0.00  0.00    +0.000 C 
ATOM     31  N   UNL     1      44.164   4.464   8.744  0.00  0.00    +0.000 N 
ATOM     32  H   UNL     1      44.703   5.321   8.659  0.00  0.00    +0.000 HD
ENDBRANCH  26  27
BRANCH  26  33
ATOM     33  C   UNL     1      43.251   4.611  12.445  0.00  0.00    +0.000 C 
BRANCH  33  34
ATOM     34  O   UNL     1      42.738   5.563  13.380  0.00  0.00    +0.000 OA
ATOM     35  H   UNL     1      41.762   5.512  13.286  0.00  0.00    +0.000 HD
ENDBRANCH  33  34
ENDBRANCH  26  33
ENDBRANCH  24  26
ENDBRANCH  23  24
ENDBRANCH   4  23
TORSDOF 9
ENDMDL
MODEL 6
REMARK VINA RESULT:    -6.334      3.614      8.504
REMARK INTER + INTRA:         -10.960
REMARK INTER:                  -9.939
REMARK INTRA:                  -1.021
REMARK UNBOUND:                -1.479
REMARK  Name = 
REMARK  9 active torsions:
REMARK  status: ('A' for Active; 'I' for Inactive)
REMARK    1  A    between atoms: C_2  and  C_21
REMARK    2  A    between atoms: N_3  and  C_4
REMARK    3  A    between atoms: C_4  and  C_5
REMARK    4  A    between atoms: C_8  and  C_9
REMARK    5  A    between atoms: C_9  and  N_10
REMARK    6  A    between atoms: N_10  and  CA_11
REMARK    7  A    between atoms: CA_11  and  C_12
REMARK    8  A    between atoms: CA_11  and  C_14
REMARK    9  A    between atoms: C_12  and  O_13
REMARK                            x       y       z     vdW  Elec       q    Type
REMARK                         _______ _______ _______ _____ _____    ______ ____
ROOT
ATOM      1  C   UNL     1      48.634   6.656  15.600  0.00  0.00    +0.000 A 
ATOM      2  C   UNL     1      47.882   5.490  15.807  0.00  0.00    +0.000 A 
ATOM      3  C   UNL     1      48.247   4.574  16.798  0.00  0.00    +0.000 A 
ATOM      4  C   UNL     1      49.363   4.814  17.607  0.00  0.00    +0.000 A 
ATOM      5  C   UNL     1      50.085   6.004  17.428  0.00  0.00    +0.000 A 
ATOM      6  C   UNL     1      49.720   6.919  16.442  0.00  0.00    +0.000 A 
ENDROOT
BRANCH   1   7
ATOM      7  C   UNL     1      48.293   7.612  14.490  0.00  0.00    +0.000 C 
BRANCH   7  10
ATOM      8  O   UNL     1      47.965   6.313  12.082  0.00  0.00    +0.000 OA
ATOM      9  C   UNL     1      46.961   6.596  12.727  0.00  0.00    +0.000 C 
ATOM     10  N   UNL     1      47.021   7.317  13.893  0.00  0.00    +0.000 N 
ATOM     11  H   UNL     1      46.204   7.370  14.493  0.00  0.00    +0.000 HD
BRANCH   9  12
ATOM     12  C   UNL     1      45.627   6.190  12.273  0.00  0.00    +0.000 A 
ATOM     13  C   UNL     1      44.769   7.133  11.713  0.00  0.00    +0.000 A 
ATOM     14  S   UNL     1      43.282   6.474  11.202  0.00  0.00    +0.000 S 
ATOM     15  C   UNL     1      43.749   4.905  11.668  0.00  0.00    +0.000 A 
ATOM     16  N   UNL     1      42.938   3.837  11.451  0.00  0.00    +0.000 NA
ATOM     17  C   UNL     1      43.436   2.706  11.822  0.00  0.00    +0.000 A 
ATOM     18  N   UNL     1      44.666   2.550  12.409  0.00  0.00    +0.000 N 
ATOM     19  C   UNL     1      45.490   3.604  12.701  0.00  0.00    +0.000 A 
ATOM     20  O   UNL     1      46.544   3.437  13.314  0.00  0.00    +0.000 OA
ATOM     21  C   UNL     1      45.000   4.892  12.253  0.00  0.00    +0.000 A 
ATOM     22  H   UNL     1      44.986   1.639  12.706  0.00  0.00    +0.000 HD
ENDBRANCH   9  12
ENDBRANCH   7  10
ENDBRANCH   1   7
BRANCH   4  23
ATOM     23  C   UNL     1      49.765   3.861  18.705  0.00  0.00    +0.000 C 
BRANCH  23  24
ATOM     24  N   UNL     1      51.216   3.660  18.799  0.00  0.00    +0.000 NA
ATOM     25  H   UNL     1      51.392   3.131  19.658  0.00  0.00    +0.000 HD
BRANCH  24  26
ATOM     26  CA  UNL     1      51.699   2.827  17.665  0.00  0.00    +0.000 C 
BRANCH  26  27
ATOM     27  C   UNL     1      53.152   2.435  17.978  0.00  0.00    +0.000 C 
ATOM     28  N   UNL     1      54.172   3.139  17.554  0.00  0.00    +0.000 NA
ATOM     29  C   UNL     1      55.368   2.333  17.945  0.00  0.00    +0.000 C 
ATOM     30  C   UNL     1      54.867   1.116  18.727  0.00  0.00    +0.000 C 
ATOM     31  N   UNL     1      53.434   1.280  18.669  0.00  0.00    +0.000 N 
ATOM     32  H   UNL     1      52.881   0.476  18.389  0.00  0.00    +0.000 HD
ENDBRANCH  26  27
BRANCH  26  33
ATOM     33  C   UNL     1      50.862   1.563  17.364  0.00  0.00    +0.000 C 
BRANCH  33  34
ATOM     34  O   UNL     1      50.172   1.673  16.117  0.00  0.00    +0.000 OA
ATOM     35  H   UNL     1      50.360   0.832  15.646  0.00  0.00    +0.000 HD
ENDBRANCH  33  34
ENDBRANCH  26  33
ENDBRANCH  24  26
ENDBRANCH  23  24
ENDBRANCH   4  23
TORSDOF 9
ENDMDL
MODEL 7
REMARK VINA RESULT:    -6.293      1.471      1.773
REMARK INTER + INTRA:         -10.899
REMARK INTER:                 -10.085
REMARK INTRA:                  -0.814
REMARK UNBOUND:                -1.479
REMARK  Name = 
REMARK  9 active torsions:
REMARK  status: ('A' for Active; 'I' for Inactive)
REMARK    1  A    between atoms: C_2  and  C_21
REMARK    2  A    between atoms: N_3  and  C_4
REMARK    3  A    between atoms: C_4  and  C_5
REMARK    4  A    between atoms: C_8  and  C_9
REMARK    5  A    between atoms: C_9  and  N_10
REMARK    6  A    between atoms: N_10  and  CA_11
REMARK    7  A    between atoms: CA_11  and  C_12
REMARK    8  A    between atoms: CA_11  and  C_14
REMARK    9  A    between atoms: C_12  and  O_13
REMARK                            x       y       z     vdW  Elec       q    Type
REMARK                         _______ _______ _______ _____ _____    ______ ____
ROOT
ATOM      1  C   UNL     1      47.645   8.192  14.029  0.00  0.00    +0.000 A 
ATOM      2  C   UNL     1      47.880   6.827  13.804  0.00  0.00    +0.000 A 
ATOM      3  C   UNL     1      47.199   6.145  12.789  0.00  0.00    +0.000 A 
ATOM      4  C   UNL     1      46.282   6.820  11.977  0.00  0.00    +0.000 A 
ATOM      5  C   UNL     1      46.085   8.195  12.175  0.00  0.00    +0.000 A 
ATOM      6  C   UNL     1      46.765   8.876  13.183  0.00  0.00    +0.000 A 
ENDROOT
BRANCH   1   7
ATOM      7  C   UNL     1      48.318   8.917  15.162  0.00  0.00    +0.000 C 
BRANCH   7  10
ATOM      8  O   UNL     1      50.328   9.077  17.040  0.00  0.00    +0.000 OA
ATOM      9  C   UNL     1      49.383   8.329  17.268  0.00  0.00    +0.000 C 
ATOM     10  N   UNL     1      48.381   8.119  16.355  0.00  0.00    +0.000 N 
ATOM     11  H   UNL     1      47.528   7.650  16.643  0.00  0.00    +0.000 HD
BRANCH   9  12
ATOM     12  C   UNL     1      49.281   7.597  18.534  0.00  0.00    +0.000 A 
ATOM     13  C   UNL     1      49.255   8.296  19.739  0.00  0.00    +0.000 A 
ATOM     14  S   UNL     1      49.088   7.286  21.102  0.00  0.00    +0.000 S 
ATOM     15  C   UNL     1      49.001   5.891  20.132  0.00  0.00    +0.000 A 
ATOM     16  N   UNL     1      48.799   4.665  20.682  0.00  0.00    +0.000 NA
ATOM     17  C   UNL     1      48.718   3.704  19.825  0.00  0.00    +0.000 A 
ATOM     18  N   UNL     1      48.841   3.856  18.467  0.00  0.00    +0.000 N 
ATOM     19  C   UNL     1      49.105   5.063  17.875  0.00  0.00    +0.000 A 
ATOM     20  O   UNL     1      49.304   5.147  16.663  0.00  0.00    +0.000 OA
ATOM     21  C   UNL     1      49.149   6.185  18.791  0.00  0.00    +0.000 A 
ATOM     22  H   UNL     1      48.800   3.057  17.851  0.00  0.00    +0.000 HD
ENDBRANCH   9  12
ENDBRANCH   7  10
ENDBRANCH   1   7
BRANCH   4  23
ATOM     23  C   UNL     1      45.555   6.121  10.855  0.00  0.00    +0.000 C 
BRANCH  23  24
ATOM     24  N   UNL     1      44.113   6.397  10.835  0.00  0.00    +0.000 NA
ATOM     25  H   UNL     1      43.881   6.721   9.891  0.00  0.00    +0.000 HD
BRANCH  24  26
ATOM     26  CA  UNL     1      43.342   5.147  11.071  0.00  0.00    +0.000 C 
BRANCH  26  27
ATOM     27  C   UNL     1      43.880   4.092  10.091  0.00  0.00    +0.000 C 
ATOM     28  N   UNL     1      44.209   2.884  10.476  0.00  0.00    +0.000 NA
ATOM     29  C   UNL     1      44.813   2.258   9.262  0.00  0.00    +0.000 C 
ATOM     30  C   UNL     1      44.692   3.267   8.116  0.00  0.00    +0.000 C 
ATOM     31  N   UNL     1      44.095   4.407   8.770  0.00  0.00    +0.000 N 
ATOM     32  H   UNL     1      44.526   5.313   8.617  0.00  0.00    +0.000 HD
ENDBRANCH  26  27
BRANCH  26  33
ATOM     33  C   UNL     1      43.386   4.601  12.516  0.00  0.00    +0.000 C 
BRANCH  33  34
ATOM     34  O   UNL     1      42.576   5.381  13.398  0.00  0.00    +0.000 OA
ATOM     35  H   UNL     1      41.714   4.913  13.435  0.00  0.00    +0.000 HD
ENDBRANCH  33  34
ENDBRANCH  26  33
ENDBRANCH  24  26
ENDBRANCH  23  24
ENDBRANCH   4  23
TORSDOF 9
ENDMDL
MODEL 8
REMARK VINA RESULT:    -6.274      4.938      9.676
REMARK INTER + INTRA:         -10.870
REMARK INTER:                  -9.635
REMARK INTRA:                  -1.236
REMARK UNBOUND:                -1.479
REMARK  Name = 
REMARK  9 active torsions:
REMARK  status: ('A' for Active; 'I' for Inactive)
REMARK    1  A    between atoms: C_2  and  C_21
REMARK    2  A    between atoms: N_3  and  C_4
REMARK    3  A    between atoms: C_4  and  C_5
REMARK    4  A    between atoms: C_8  and  C_9
REMARK    5  A    between atoms: C_9  and  N_10
REMARK    6  A    between atoms: N_10  and  CA_11
REMARK    7  A    between atoms: CA_11  and  C_12
REMARK    8  A    between atoms: CA_11  and  C_14
REMARK    9  A    between atoms: C_12  and  O_13
REMARK                            x       y       z     vdW  Elec       q    Type
REMARK                         _______ _______ _______ _____ _____    ______ ____
ROOT
ATOM      1  C   UNL     1      48.738   3.407  17.071  0.00  0.00    +0.000 A 
ATOM      2  C   UNL     1      49.660   4.339  17.572  0.00  0.00    +0.000 A 
ATOM      3  C   UNL     1      50.982   3.964  17.832  0.00  0.00    +0.000 A 
ATOM      4  C   UNL     1      51.407   2.655  17.585  0.00  0.00    +0.000 A 
ATOM      5  C   UNL     1      50.494   1.738  17.040  0.00  0.00    +0.000 A 
ATOM      6  C   UNL     1      49.178   2.112  16.778  0.00  0.00    +0.000 A 
ENDROOT
BRANCH   1   7
ATOM      7  C   UNL     1      47.298   3.781  16.856  0.00  0.00    +0.000 C 
BRANCH   7  10
ATOM      8  O   UNL     1      47.146   3.239  14.159  0.00  0.00    +0.000 OA
ATOM      9  C   UNL     1      46.999   4.401  14.523  0.00  0.00    +0.000 C 
ATOM     10  N   UNL     1      47.143   4.778  15.834  0.00  0.00    +0.000 N 
ATOM     11  H   UNL     1      46.832   5.699  16.129  0.00  0.00    +0.000 HD
BRANCH   9  12
ATOM     12  C   UNL     1      46.675   5.463  13.565  0.00  0.00    +0.000 A 
ATOM     13  C   UNL     1      45.498   5.392  12.824  0.00  0.00    +0.000 A 
ATOM     14  S   UNL     1      45.265   6.733  11.797  0.00  0.00    +0.000 S 
ATOM     15  C   UNL     1      46.700   7.471  12.338  0.00  0.00    +0.000 A 
ATOM     16  N   UNL     1      47.072   8.699  11.888  0.00  0.00    +0.000 NA
ATOM     17  C   UNL     1      48.161   9.150  12.409  0.00  0.00    +0.000 A 
ATOM     18  N   UNL     1      48.925   8.476  13.329  0.00  0.00    +0.000 N 
ATOM     19  C   UNL     1      48.620   7.214  13.765  0.00  0.00    +0.000 A 
ATOM     20  O   UNL     1      49.378   6.600  14.517  0.00  0.00    +0.000 OA
ATOM     21  C   UNL     1      47.374   6.684  13.250  0.00  0.00    +0.000 A 
ATOM     22  H   UNL     1      49.786   8.872  13.677  0.00  0.00    +0.000 HD
ENDBRANCH   9  12
ENDBRANCH   7  10
ENDBRANCH   1   7
BRANCH   4  23
ATOM     23  C   UNL     1      52.833   2.227  17.826  0.00  0.00    +0.000 C 
BRANCH  23  24
ATOM     24  N   UNL     1      53.066   0.802  17.560  0.00  0.00    +0.000 NA
ATOM     25  H   UNL     1      52.999   0.669  16.547  0.00  0.00    +0.000 HD
BRANCH  24  26
ATOM     26  CA  UNL     1      54.446   0.418  17.962  0.00  0.00    +0.000 C 
BRANCH  26  27
ATOM     27  C   UNL     1      54.366  -0.996  18.560  0.00  0.00    +0.000 C 
ATOM     28  N   UNL     1      54.372  -1.209  19.853  0.00  0.00    +0.000 NA
ATOM     29  C   UNL     1      54.435  -2.696  19.984  0.00  0.00    +0.000 C 
ATOM     30  C   UNL     1      54.376  -3.285  18.572  0.00  0.00    +0.000 C 
ATOM     31  N   UNL     1      54.350  -2.103  17.745  0.00  0.00    +0.000 N 
ATOM     32  H   UNL     1      55.000  -2.062  16.965  0.00  0.00    +0.000 HD
ENDBRANCH  26  27
BRANCH  26  33
ATOM     33  C   UNL     1      55.503   0.458  16.836  0.00  0.00    +0.000 C 
BRANCH  33  34
ATOM     34  O   UNL     1      54.993  -0.082  15.614  0.00  0.00    +0.000 OA
ATOM     35  H   UNL     1      54.035  -0.220  15.777  0.00  0.00    +0.000 HD
ENDBRANCH  33  34
ENDBRANCH  26  33
ENDBRANCH  24  26
ENDBRANCH  23  24
ENDBRANCH   4  23
TORSDOF 9
ENDMDL
MODEL 9
REMARK VINA RESULT:    -5.961      4.599      5.744
REMARK INTER + INTRA:         -10.402
REMARK INTER:                  -9.174
REMARK INTRA:                  -1.229
REMARK UNBOUND:                -1.479
REMARK  Name = 
REMARK  9 active torsions:
REMARK  status: ('A' for Active; 'I' for Inactive)
REMARK    1  A    between atoms: C_2  and  C_21
REMARK    2  A    between atoms: N_3  and  C_4
REMARK    3  A    between atoms: C_4  and  C_5
REMARK    4  A    between atoms: C_8  and  C_9
REMARK    5  A    between atoms: C_9  and  N_10
REMARK    6  A    between atoms: N_10  and  CA_11
REMARK    7  A    between atoms: CA_11  and  C_12
REMARK    8  A    between atoms: CA_11  and  C_14
REMARK    9  A    between atoms: C_12  and  O_13
REMARK                            x       y       z     vdW  Elec       q    Type
REMARK                         _______ _______ _______ _____ _____    ______ ____
ROOT
ATOM      1  C   UNL     1      47.192   9.327  12.105  0.00  0.00    +0.000 A 
ATOM      2  C   UNL     1      47.620   7.991  12.113  0.00  0.00    +0.000 A 
ATOM      3  C   UNL     1      46.692   6.946  12.175  0.00  0.00    +0.000 A 
ATOM      4  C   UNL     1      45.321   7.220  12.218  0.00  0.00    +0.000 A 
ATOM      5  C   UNL     1      44.895   8.556  12.162  0.00  0.00    +0.000 A 
ATOM      6  C   UNL     1      45.819   9.597  12.097  0.00  0.00    +0.000 A 
ENDROOT
BRANCH   1   7
ATOM      7  C   UNL     1      48.183  10.458  12.111  0.00  0.00    +0.000 C 
BRANCH   7  10
ATOM      8  O   UNL     1      50.752  11.401  12.428  0.00  0.00    +0.000 OA
ATOM      9  C   UNL     1      50.512  10.696  11.454  0.00  0.00    +0.000 C 
ATOM     10  N   UNL     1      49.246  10.253  11.168  0.00  0.00    +0.000 N 
ATOM     11  H   UNL     1      49.113   9.525  10.472  0.00  0.00    +0.000 HD
BRANCH   9  12
ATOM     12  C   UNL     1      51.573  10.299  10.522  0.00  0.00    +0.000 A 
ATOM     13  C   UNL     1      52.275  11.274   9.816  0.00  0.00    +0.000 A 
ATOM     14  S   UNL     1      53.499  10.633   8.817  0.00  0.00    +0.000 S 
ATOM     15  C   UNL     1      53.165   9.044   9.326  0.00  0.00    +0.000 A 
ATOM     16  N   UNL     1      53.906   7.994   8.883  0.00  0.00    +0.000 NA
ATOM     17  C   UNL     1      53.563   6.854   9.379  0.00  0.00    +0.000 A 
ATOM     18  N   UNL     1      52.532   6.665  10.264  0.00  0.00    +0.000 N 
ATOM     19  C   UNL     1      51.722   7.685  10.690  0.00  0.00    +0.000 A 
ATOM     20  O   UNL     1      50.747   7.465  11.409  0.00  0.00    +0.000 OA
ATOM     21  C   UNL     1      52.101   8.997  10.204  0.00  0.00    +0.000 A 
ATOM     22  H   UNL     1      52.293   5.741  10.592  0.00  0.00    +0.000 HD
ENDBRANCH   9  12
ENDBRANCH   7  10
ENDBRANCH   1   7
BRANCH   4  23
ATOM     23  C   UNL     1      44.294   6.115  12.254  0.00  0.00    +0.000 C 
BRANCH  23  24
ATOM     24  N   UNL     1      43.920   5.625  10.922  0.00  0.00    +0.000 NA
ATOM     25  H   UNL     1      44.740   5.736  10.318  0.00  0.00    +0.000 HD
BRANCH  24  26
ATOM     26  CA  UNL     1      43.608   4.171  10.973  0.00  0.00    +0.000 C 
BRANCH  26  27
ATOM     27  C   UNL     1      44.493   3.481   9.923  0.00  0.00    +0.000 C 
ATOM     28  N   UNL     1      45.202   4.156   9.053  0.00  0.00    +0.000 NA
ATOM     29  C   UNL     1      45.773   3.113   8.149  0.00  0.00    +0.000 C 
ATOM     30  C   UNL     1      45.349   1.747   8.697  0.00  0.00    +0.000 C 
ATOM     31  N   UNL     1      44.521   2.110   9.822  0.00  0.00    +0.000 N 
ATOM     32  H   UNL     1      43.613   1.663   9.899  0.00  0.00    +0.000 HD
ENDBRANCH  26  27
BRANCH  26  33
ATOM     33  C   UNL     1      43.796   3.498  12.351  0.00  0.00    +0.000 C 
BRANCH  33  34
ATOM     34  O   UNL     1      45.072   2.864  12.458  0.00  0.00    +0.000 OA
ATOM     35  H   UNL     1      45.725   3.595  12.401  0.00  0.00    +0.000 HD
ENDBRANCH  33  34
ENDBRANCH  26  33
ENDBRANCH  24  26
ENDBRANCH  23  24
ENDBRANCH   4  23
TORSDOF 9
ENDMDL
