MODEL 1
REMARK VINA RESULT:    -8.814      0.000      0.000
REMARK INTER + INTRA:         -12.114
REMARK INTER:                 -11.390
REMARK INTRA:                  -0.724
REMARK UNBOUND:                -0.724
REMARK  Name = 
REMARK  5 active torsions:
REMARK  status: ('A' for Active; 'I' for Inactive)
REMARK    1  A    between atoms: C_2  and  C_4
REMARK    2  A    between atoms: C_7  and  O_8
REMARK    3  A    between atoms: O_8  and  C_9
REMARK    4  A    between atoms: C_9  and  C_10
REMARK    5  A    between atoms: C_14  and  C_15
REMARK                            x       y       z     vdW  Elec       q    Type
REMARK                         _______ _______ _______ _____ _____    ______ ____
ROOT
ATOM      1  C   UNL     1      43.852   4.455  11.347  0.00  0.00    +0.000 C 
ENDROOT
BRANCH   1   2
ATOM      2  C   UNL     1      44.989   5.281  11.908  0.00  0.00    +0.000 A 
ATOM      3  C   UNL     1      45.258   6.546  11.376  0.00  0.00    +0.000 A 
ATOM      4  C   UNL     1      46.265   7.338  11.921  0.00  0.00    +0.000 A 
ATOM      5  C   UNL     1      47.002   6.881  13.016  0.00  0.00    +0.000 A 
ATOM      6  C   UNL     1      46.738   5.631  13.603  0.00  0.00    +0.000 A 
ATOM      7  C   UNL     1      45.724   4.845  13.024  0.00  0.00    +0.000 A 
BRANCH   6   8
ATOM      8  C   UNL     1      47.458   5.170  14.807  0.00  0.00    +0.000 A 
ATOM      9  C   UNL     1      48.454   5.946  15.415  0.00  0.00    +0.000 A 
ATOM     10  N   UNL     1      49.135   5.606  16.540  0.00  0.00    +0.000 NA
ATOM     11  C   UNL     1      48.804   4.426  17.107  0.00  0.00    +0.000 A 
ATOM     12  C   UNL     1      47.837   3.582  16.593  0.00  0.00    +0.000 A 
ATOM     13  F   UNL     1      47.542   2.429  17.206  0.00  0.00    +0.000 F 
ATOM     14  C   UNL     1      47.165   3.949  15.433  0.00  0.00    +0.000 A 
ENDBRANCH   6   8
ENDBRANCH   1   2
BRANCH   1  15
ATOM     15  O   UNL     1      43.710   4.689   9.942  0.00  0.00    +0.000 OA
BRANCH  15  19
ATOM     16  C   UNL     1      46.400   2.459   7.765  0.00  0.00    +0.000 A 
ATOM     17  C   UNL     1      45.561   1.827   8.685  0.00  0.00    +0.000 A 
ATOM     18  C   UNL     1      44.655   2.596   9.416  0.00  0.00    +0.000 A 
ATOM     19  C   UNL     1      44.619   3.966   9.199  0.00  0.00    +0.000 A 
ATOM     20  N   UNL     1      45.420   4.603   8.319  0.00  0.00    +0.000 NA
ATOM     21  C   UNL     1      46.300   3.838   7.629  0.00  0.00    +0.000 A 
BRANCH  16  23
ATOM     22  N   UNL     1      48.430   2.479   6.429  0.00  0.00    +0.000 N 
ATOM     23  C   UNL     1      47.401   1.745   6.949  0.00  0.00    +0.000 C 
ATOM     24  O   UNL     1      47.335   0.535   6.774  0.00  0.00    +0.000 OA
ATOM     25  H   UNL     1      49.163   1.955   5.967  0.00  0.00    +0.000 HD
ATOM     26  H   UNL     1      48.657   3.409   6.753  0.00  0.00    +0.000 HD
ENDBRANCH  16  23
ENDBRANCH  15  19
ENDBRANCH   1  15
TORSDOF 5
ENDMDL
MODEL 2
REMARK VINA RESULT:    -8.548      2.809      3.889
REMARK INTER + INTRA:         -11.771
REMARK INTER:                 -10.980
REMARK INTRA:                  -0.791
REMARK UNBOUND:                -0.724
REMARK  Name = 
REMARK  5 active torsions:
REMARK  status: ('A' for Active; 'I' for Inactive)
REMARK    1  A    between atoms: C_2  and  C_4
REMARK    2  A    between atoms: C_7  and  O_8
REMARK    3  A    between atoms: O_8  and  C_9
REMARK    4  A    between atoms: C_9  and  C_10
REMARK    5  A    between atoms: C_14  and  C_15
REMARK                            x       y       z     vdW  Elec       q    Type
REMARK                         _______ _______ _______ _____ _____    ______ ____
ROOT
ATOM      1  C   UNL     1      43.714   3.370  11.354  0.00  0.00    +0.000 C 
ENDROOT
BRANCH   1   2
ATOM      2  C   UNL     1      44.834   4.045  12.116  0.00  0.00    +0.000 A 
ATOM      3  C   UNL     1      45.742   3.271  12.846  0.00  0.00    +0.000 A 
ATOM      4  C   UNL     1      46.810   3.876  13.504  0.00  0.00    +0.000 A 
ATOM      5  C   UNL     1      46.991   5.259  13.424  0.00  0.00    +0.000 A 
ATOM      6  C   UNL     1      46.121   6.066  12.670  0.00  0.00    +0.000 A 
ATOM      7  C   UNL     1      45.043   5.432  12.026  0.00  0.00    +0.000 A 
BRANCH   6   8
ATOM      8  C   UNL     1      46.347   7.518  12.515  0.00  0.00    +0.000 A 
ATOM      9  C   UNL     1      47.636   8.068  12.499  0.00  0.00    +0.000 A 
ATOM     10  N   UNL     1      47.924   9.385  12.328  0.00  0.00    +0.000 NA
ATOM     11  C   UNL     1      46.870  10.210  12.153  0.00  0.00    +0.000 A 
ATOM     12  C   UNL     1      45.558   9.776  12.150  0.00  0.00    +0.000 A 
ATOM     13  F   UNL     1      44.554  10.640  11.958  0.00  0.00    +0.000 F 
ATOM     14  C   UNL     1      45.291   8.425  12.339  0.00  0.00    +0.000 A 
ENDBRANCH   6   8
ENDBRANCH   1   2
BRANCH   1  15
ATOM     15  O   UNL     1      43.578   3.947  10.050  0.00  0.00    +0.000 OA
BRANCH  15  19
ATOM     16  C   UNL     1      46.536   2.619   7.513  0.00  0.00    +0.000 A 
ATOM     17  C   UNL     1      45.893   1.714   8.360  0.00  0.00    +0.000 A 
ATOM     18  C   UNL     1      44.892   2.179   9.215  0.00  0.00    +0.000 A 
ATOM     19  C   UNL     1      44.571   3.529   9.190  0.00  0.00    +0.000 A 
ATOM     20  N   UNL     1      45.179   4.425   8.385  0.00  0.00    +0.000 NA
ATOM     21  C   UNL     1      46.155   3.953   7.572  0.00  0.00    +0.000 A 
BRANCH  16  23
ATOM     22  N   UNL     1      47.797   3.022   5.475  0.00  0.00    +0.000 N 
ATOM     23  C   UNL     1      47.614   2.238   6.579  0.00  0.00    +0.000 C 
ATOM     24  O   UNL     1      48.340   1.278   6.802  0.00  0.00    +0.000 OA
ATOM     25  H   UNL     1      48.609   2.810   4.908  0.00  0.00    +0.000 HD
ATOM     26  H   UNL     1      47.398   3.946   5.388  0.00  0.00    +0.000 HD
ENDBRANCH  16  23
ENDBRANCH  15  19
ENDBRANCH   1  15
TORSDOF 5
ENDMDL
MODEL 3
REMARK VINA RESULT:    -8.271      2.772      3.764
REMARK INTER + INTRA:         -11.413
REMARK INTER:                 -10.683
REMARK INTRA:                  -0.730
REMARK UNBOUND:                -0.724
REMARK  Name = 
REMARK  5 active torsions:
REMARK  status: ('A' for Active; 'I' for Inactive)
REMARK    1  A    between atoms: C_2  and  C_4
REMARK    2  A    between atoms: C_7  and  O_8
REMARK    3  A    between atoms: O_8  and  C_9
REMARK    4  A    between atoms: C_9  and  C_10
REMARK    5  A    between atoms: C_14  and  C_15
REMARK                            x       y       z     vdW  Elec       q    Type
REMARK                         _______ _______ _______ _____ _____    ______ ____
ROOT
ATOM      1  C   UNL     1      43.791   5.208  10.632  0.00  0.00    +0.000 C 
ENDROOT
BRANCH   1   2
ATOM      2  C   UNL     1      44.915   5.447  11.617  0.00  0.00    +0.000 A 
ATOM      3  C   UNL     1      45.084   4.581  12.702  0.00  0.00    +0.000 A 
ATOM      4  C   UNL     1      46.148   4.759  13.583  0.00  0.00    +0.000 A 
ATOM      5  C   UNL     1      47.064   5.793  13.377  0.00  0.00    +0.000 A 
ATOM      6  C   UNL     1      46.949   6.662  12.278  0.00  0.00    +0.000 A 
ATOM      7  C   UNL     1      45.857   6.469  11.412  0.00  0.00    +0.000 A 
BRANCH   6   8
ATOM      8  C   UNL     1      47.954   7.710  12.008  0.00  0.00    +0.000 A 
ATOM      9  C   UNL     1      47.627   9.073  12.039  0.00  0.00    +0.000 A 
ATOM     10  N   UNL     1      48.500  10.094  11.835  0.00  0.00    +0.000 NA
ATOM     11  C   UNL     1      49.782   9.745  11.593  0.00  0.00    +0.000 A 
ATOM     12  C   UNL     1      50.215   8.433  11.540  0.00  0.00    +0.000 A 
ATOM     13  F   UNL     1      51.502   8.148  11.310  0.00  0.00    +0.000 F 
ATOM     14  C   UNL     1      49.298   7.409  11.740  0.00  0.00    +0.000 A 
ENDBRANCH   6   8
ENDBRANCH   1   2
BRANCH   1  15
ATOM     15  O   UNL     1      43.707   3.818  10.298  0.00  0.00    +0.000 OA
BRANCH  15  19
ATOM     16  C   UNL     1      46.471   2.651   7.481  0.00  0.00    +0.000 A 
ATOM     17  C   UNL     1      45.980   1.718   8.395  0.00  0.00    +0.000 A 
ATOM     18  C   UNL     1      45.043   2.128   9.345  0.00  0.00    +0.000 A 
ATOM     19  C   UNL     1      44.633   3.453   9.344  0.00  0.00    +0.000 A 
ATOM     20  N   UNL     1      45.094   4.377   8.474  0.00  0.00    +0.000 NA
ATOM     21  C   UNL     1      46.011   3.958   7.568  0.00  0.00    +0.000 A 
BRANCH  16  23
ATOM     22  N   UNL     1      47.393   3.007   5.260  0.00  0.00    +0.000 N 
ATOM     23  C   UNL     1      47.471   2.328   6.443  0.00  0.00    +0.000 C 
ATOM     24  O   UNL     1      48.359   1.511   6.648  0.00  0.00    +0.000 OA
ATOM     25  H   UNL     1      48.151   2.851   4.606  0.00  0.00    +0.000 HD
ATOM     26  H   UNL     1      46.847   3.850   5.148  0.00  0.00    +0.000 HD
ENDBRANCH  16  23
ENDBRANCH  15  19
ENDBRANCH   1  15
TORSDOF 5
ENDMDL
MODEL 4
REMARK VINA RESULT:    -7.573      3.609      8.414
REMARK INTER + INTRA:         -10.511
REMARK INTER:                  -9.970
REMARK INTRA:                  -0.540
REMARK UNBOUND:                -0.724
REMARK  Name = 
REMARK  5 active torsions:
REMARK  status: ('A' for Active; 'I' for Inactive)
REMARK    1  A    between atoms: C_2  and  C_4
REMARK    2  A    between atoms: C_7  and  O_8
REMARK    3  A    between atoms: O_8  and  C_9
REMARK    4  A    between atoms: C_9  and  C_10
REMARK    5  A    between atoms: C_14  and  C_15
REMARK                            x       y       z     vdW  Elec       q    Type
REMARK                         _______ _______ _______ _____ _____    ______ ____
ROOT
ATOM      1  C   UNL     1      45.971   5.157  14.025  0.00  0.00    +0.000 C 
ENDROOT
BRANCH   1   2
ATOM      2  C   UNL     1      45.069   4.883  12.841  0.00  0.00    +0.000 A 
ATOM      3  C   UNL     1      43.733   5.298  12.874  0.00  0.00    +0.000 A 
ATOM      4  C   UNL     1      42.909   5.102  11.769  0.00  0.00    +0.000 A 
ATOM      5  C   UNL     1      43.417   4.506  10.612  0.00  0.00    +0.000 A 
ATOM      6  C   UNL     1      44.763   4.109  10.527  0.00  0.00    +0.000 A 
ATOM      7  C   UNL     1      45.570   4.306  11.662  0.00  0.00    +0.000 A 
BRANCH   6   8
ATOM      8  C   UNL     1      45.330   3.548   9.283  0.00  0.00    +0.000 A 
ATOM      9  C   UNL     1      45.706   4.366   8.208  0.00  0.00    +0.000 A 
ATOM     10  N   UNL     1      46.263   3.928   7.049  0.00  0.00    +0.000 NA
ATOM     11  C   UNL     1      46.471   2.597   6.949  0.00  0.00    +0.000 A 
ATOM     12  C   UNL     1      46.140   1.701   7.947  0.00  0.00    +0.000 A 
ATOM     13  F   UNL     1      46.381   0.393   7.797  0.00  0.00    +0.000 F 
ATOM     14  C   UNL     1      45.559   2.174   9.118  0.00  0.00    +0.000 A 
ENDBRANCH   6   8
ENDBRANCH   1   2
BRANCH   1  15
ATOM     15  O   UNL     1      46.549   3.938  14.505  0.00  0.00    +0.000 OA
BRANCH  15  19
ATOM     16  C   UNL     1      48.462   4.499  18.106  0.00  0.00    +0.000 A 
ATOM     17  C   UNL     1      48.644   5.422  17.075  0.00  0.00    +0.000 A 
ATOM     18  C   UNL     1      47.989   5.218  15.859  0.00  0.00    +0.000 A 
ATOM     19  C   UNL     1      47.177   4.103  15.721  0.00  0.00    +0.000 A 
ATOM     20  N   UNL     1      46.986   3.193  16.699  0.00  0.00    +0.000 NA
ATOM     21  C   UNL     1      47.640   3.405  17.867  0.00  0.00    +0.000 A 
BRANCH  16  23
ATOM     22  N   UNL     1      48.578   3.890  20.456  0.00  0.00    +0.000 N 
ATOM     23  C   UNL     1      49.114   4.610  19.426  0.00  0.00    +0.000 C 
ATOM     24  O   UNL     1      50.117   5.293  19.585  0.00  0.00    +0.000 OA
ATOM     25  H   UNL     1      49.103   3.893  21.322  0.00  0.00    +0.000 HD
ATOM     26  H   UNL     1      47.922   3.134  20.313  0.00  0.00    +0.000 HD
ENDBRANCH  16  23
ENDBRANCH  15  19
ENDBRANCH   1  15
TORSDOF 5
ENDMDL
MODEL 5
REMARK VINA RESULT:    -7.427      3.959      7.478
REMARK INTER + INTRA:         -10.321
REMARK INTER:                  -9.558
REMARK INTRA:                  -0.763
REMARK UNBOUND:                -0.724
REMARK  Name = 
REMARK  5 active torsions:
REMARK  status: ('A' for Active; 'I' for Inactive)
REMARK    1  A    between atoms: C_2  and  C_4
REMARK    2  A    between atoms: C_7  and  O_8
REMARK    3  A    between atoms: O_8  and  C_9
REMARK    4  A    between atoms: C_9  and  C_10
REMARK    5  A    between atoms: C_14  and  C_15
REMARK                            x       y       z     vdW  Elec       q    Type
REMARK                         _______ _______ _______ _____ _____    ______ ____
ROOT
ATOM      1  C   UNL     1      44.493   6.676  11.379  0.00  0.00    +0.000 C 
ENDROOT
BRANCH   1   2
ATOM      2  C   UNL     1      44.395   5.208  11.023  0.00  0.00    +0.000 A 
ATOM      3  C   UNL     1      43.487   4.387  11.701  0.00  0.00    +0.000 A 
ATOM      4  C   UNL     1      43.347   3.049  11.344  0.00  0.00    +0.000 A 
ATOM      5  C   UNL     1      44.101   2.522  10.292  0.00  0.00    +0.000 A 
ATOM      6  C   UNL     1      44.997   3.323   9.563  0.00  0.00    +0.000 A 
ATOM      7  C   UNL     1      45.129   4.667   9.954  0.00  0.00    +0.000 A 
BRANCH   6   8
ATOM      8  C   UNL     1      45.742   2.795   8.402  0.00  0.00    +0.000 A 
ATOM      9  C   UNL     1      46.179   1.464   8.346  0.00  0.00    +0.000 A 
ATOM     10  N   UNL     1      46.839   0.899   7.302  0.00  0.00    +0.000 NA
ATOM     11  C   UNL     1      47.074   1.699   6.239  0.00  0.00    +0.000 A 
ATOM     12  C   UNL     1      46.687   3.024   6.186  0.00  0.00    +0.000 A 
ATOM     13  F   UNL     1      46.936   3.765   5.099  0.00  0.00    +0.000 F 
ATOM     14  C   UNL     1      46.025   3.581   7.274  0.00  0.00    +0.000 A 
ENDBRANCH   6   8
ENDBRANCH   1   2
BRANCH   1  15
ATOM     15  O   UNL     1      45.092   6.838  12.670  0.00  0.00    +0.000 OA
BRANCH  15  19
ATOM     16  C   UNL     1      49.064   7.880  12.392  0.00  0.00    +0.000 A 
ATOM     17  C   UNL     1      48.080   8.808  12.045  0.00  0.00    +0.000 A 
ATOM     18  C   UNL     1      46.737   8.439  12.144  0.00  0.00    +0.000 A 
ATOM     19  C   UNL     1      46.430   7.161  12.587  0.00  0.00    +0.000 A 
ATOM     20  N   UNL     1      47.360   6.244  12.925  0.00  0.00    +0.000 NA
ATOM     21  C   UNL     1      48.658   6.620  12.810  0.00  0.00    +0.000 A 
BRANCH  16  23
ATOM     22  N   UNL     1      51.240   7.460  11.393  0.00  0.00    +0.000 N 
ATOM     23  C   UNL     1      50.512   8.160  12.314  0.00  0.00    +0.000 C 
ATOM     24  O   UNL     1      51.035   9.011  13.020  0.00  0.00    +0.000 OA
ATOM     25  H   UNL     1      52.205   7.744  11.279  0.00  0.00    +0.000 HD
ATOM     26  H   UNL     1      50.813   6.946  10.634  0.00  0.00    +0.000 HD
ENDBRANCH  16  23
ENDBRANCH  15  19
ENDBRANCH   1  15
TORSDOF 5
ENDMDL
MODEL 6
REMARK VINA RESULT:    -7.318      3.415      3.946
REMARK INTER + INTRA:         -10.181
REMARK INTER:                  -9.510
REMARK INTRA:                  -0.671
REMARK UNBOUND:                -0.724
REMARK  Name = 
REMARK  5 active torsions:
REMARK  status: ('A' for Active; 'I' for Inactive)
REMARK    1  A    between atoms: C_2  and  C_4
REMARK    2  A    between atoms: C_7  and  O_8
REMARK    3  A    between atoms: O_8  and  C_9
REMARK    4  A    between atoms: C_9  and  C_10
REMARK    5  A    between atoms: C_14  and  C_15
REMARK                            x       y       z     vdW  Elec       q    Type
REMARK                         _______ _______ _______ _____ _____    ______ ____
ROOT
ATOM      1  C   UNL     1      45.159   5.247  11.361  0.00  0.00    +0.000 C 
ENDROOT
BRANCH   1   2
ATOM      2  C   UNL     1      45.681   6.632  11.675  0.00  0.00    +0.000 A 
ATOM      3  C   UNL     1      44.793   7.636  12.076  0.00  0.00    +0.000 A 
ATOM      4  C   UNL     1      45.269   8.898  12.422  0.00  0.00    +0.000 A 
ATOM      5  C   UNL     1      46.641   9.164  12.388  0.00  0.00    +0.000 A 
ATOM      6  C   UNL     1      47.568   8.171  12.026  0.00  0.00    +0.000 A 
ATOM      7  C   UNL     1      47.059   6.910  11.668  0.00  0.00    +0.000 A 
BRANCH   6   8
ATOM      8  C   UNL     1      49.024   8.418  12.060  0.00  0.00    +0.000 A 
ATOM      9  C   UNL     1      49.924   7.638  11.321  0.00  0.00    +0.000 A 
ATOM     10  N   UNL     1      51.269   7.825  11.276  0.00  0.00    +0.000 NA
ATOM     11  C   UNL     1      51.755   8.855  12.001  0.00  0.00    +0.000 A 
ATOM     12  C   UNL     1      50.959   9.688  12.765  0.00  0.00    +0.000 A 
ATOM     13  F   UNL     1      51.497  10.702  13.453  0.00  0.00    +0.000 F 
ATOM     14  C   UNL     1      49.588   9.467  12.803  0.00  0.00    +0.000 A 
ENDBRANCH   6   8
ENDBRANCH   1   2
BRANCH   1  15
ATOM     15  O   UNL     1      44.606   5.209  10.040  0.00  0.00    +0.000 OA
BRANCH  15  19
ATOM     16  C   UNL     1      46.529   2.456   7.660  0.00  0.00    +0.000 A 
ATOM     17  C   UNL     1      45.718   2.017   8.709  0.00  0.00    +0.000 A 
ATOM     18  C   UNL     1      45.073   2.963   9.507  0.00  0.00    +0.000 A 
ATOM     19  C   UNL     1      45.261   4.308   9.227  0.00  0.00    +0.000 A 
ATOM     20  N   UNL     1      46.041   4.760   8.223  0.00  0.00    +0.000 NA
ATOM     21  C   UNL     1      46.667   3.824   7.467  0.00  0.00    +0.000 A 
BRANCH  16  23
ATOM     22  N   UNL     1      48.283   2.076   6.021  0.00  0.00    +0.000 N 
ATOM     23  C   UNL     1      47.265   1.544   6.762  0.00  0.00    +0.000 C 
ATOM     24  O   UNL     1      47.000   0.350   6.710  0.00  0.00    +0.000 OA
ATOM     25  H   UNL     1      48.845   1.416   5.497  0.00  0.00    +0.000 HD
ATOM     26  H   UNL     1      48.691   2.979   6.220  0.00  0.00    +0.000 HD
ENDBRANCH  16  23
ENDBRANCH  15  19
ENDBRANCH   1  15
TORSDOF 5
ENDMDL
MODEL 7
REMARK VINA RESULT:    -7.134      4.315      7.905
REMARK INTER + INTRA:          -9.944
REMARK INTER:                  -9.210
REMARK INTRA:                  -0.733
REMARK UNBOUND:                -0.724
REMARK  Name = 
REMARK  5 active torsions:
REMARK  status: ('A' for Active; 'I' for Inactive)
REMARK    1  A    between atoms: C_2  and  C_4
REMARK    2  A    between atoms: C_7  and  O_8
REMARK    3  A    between atoms: O_8  and  C_9
REMARK    4  A    between atoms: C_9  and  C_10
REMARK    5  A    between atoms: C_14  and  C_15
REMARK                            x       y       z     vdW  Elec       q    Type
REMARK                         _______ _______ _______ _____ _____    ______ ____
ROOT
ATOM      1  C   UNL     1      48.825   6.436  15.914  0.00  0.00    +0.000 C 
ENDROOT
BRANCH   1   2
ATOM      2  C   UNL     1      48.315   6.610  14.500  0.00  0.00    +0.000 A 
ATOM      3  C   UNL     1      48.982   7.471  13.621  0.00  0.00    +0.000 A 
ATOM      4  C   UNL     1      48.556   7.595  12.301  0.00  0.00    +0.000 A 
ATOM      5  C   UNL     1      47.469   6.846  11.841  0.00  0.00    +0.000 A 
ATOM      6  C   UNL     1      46.796   5.943  12.683  0.00  0.00    +0.000 A 
ATOM      7  C   UNL     1      47.238   5.848  14.015  0.00  0.00    +0.000 A 
BRANCH   6   8
ATOM      8  C   UNL     1      45.696   5.091  12.187  0.00  0.00    +0.000 A 
ATOM      9  C   UNL     1      45.002   4.215  13.032  0.00  0.00    +0.000 A 
ATOM     10  N   UNL     1      43.961   3.426  12.658  0.00  0.00    +0.000 NA
ATOM     11  C   UNL     1      43.575   3.516  11.367  0.00  0.00    +0.000 A 
ATOM     12  C   UNL     1      44.187   4.347  10.448  0.00  0.00    +0.000 A 
ATOM     13  F   UNL     1      43.752   4.404   9.184  0.00  0.00    +0.000 F 
ATOM     14  C   UNL     1      45.259   5.134  10.855  0.00  0.00    +0.000 A 
ENDBRANCH   6   8
ENDBRANCH   1   2
BRANCH   1  15
ATOM     15  O   UNL     1      48.237   5.279  16.518  0.00  0.00    +0.000 OA
BRANCH  15  19
ATOM     16  C   UNL     1      51.088   2.449  17.416  0.00  0.00    +0.000 A 
ATOM     17  C   UNL     1      51.349   3.798  17.665  0.00  0.00    +0.000 A 
ATOM     18  C   UNL     1      50.373   4.746  17.355  0.00  0.00    +0.000 A 
ATOM     19  C   UNL     1      49.174   4.311  16.810  0.00  0.00    +0.000 A 
ATOM     20  N   UNL     1      48.897   3.015  16.555  0.00  0.00    +0.000 NA
ATOM     21  C   UNL     1      49.864   2.113  16.854  0.00  0.00    +0.000 A 
BRANCH  16  23
ATOM     22  N   UNL     1      51.552   0.178  18.146  0.00  0.00    +0.000 N 
ATOM     23  C   UNL     1      52.052   1.367  17.694  0.00  0.00    +0.000 C 
ATOM     24  O   UNL     1      53.251   1.514  17.492  0.00  0.00    +0.000 OA
ATOM     25  H   UNL     1      52.215  -0.583  18.225  0.00  0.00    +0.000 HD
ATOM     26  H   UNL     1      50.573  -0.063  18.084  0.00  0.00    +0.000 HD
ENDBRANCH  16  23
ENDBRANCH  15  19
ENDBRANCH   1  15
TORSDOF 5
ENDMDL
MODEL 8
REMARK VINA RESULT:    -6.920      3.711      8.295
REMARK INTER + INTRA:          -9.667
REMARK INTER:                  -8.949
REMARK INTRA:                  -0.718
REMARK UNBOUND:                -0.724
REMARK  Name = 
REMARK  5 active torsions:
REMARK  status: ('A' for Active; 'I' for Inactive)
REMARK    1  A    between atoms: C_2  and  C_4
REMARK    2  A    between atoms: C_7  and  O_8
REMARK    3  A    between atoms: O_8  and  C_9
REMARK    4  A    between atoms: C_9  and  C_10
REMARK    5  A    between atoms: C_14  and  C_15
REMARK                            x       y       z     vdW  Elec       q    Type
REMARK                         _______ _______ _______ _____ _____    ______ ____
ROOT
ATOM      1  C   UNL     1      48.246   7.476  13.654  0.00  0.00    +0.000 C 
ENDROOT
BRANCH   1   2
ATOM      2  C   UNL     1      46.948   7.413  12.878  0.00  0.00    +0.000 A 
ATOM      3  C   UNL     1      46.108   8.531  12.835  0.00  0.00    +0.000 A 
ATOM      4  C   UNL     1      44.940   8.504  12.078  0.00  0.00    +0.000 A 
ATOM      5  C   UNL     1      44.610   7.365  11.339  0.00  0.00    +0.000 A 
ATOM      6  C   UNL     1      45.447   6.235  11.326  0.00  0.00    +0.000 A 
ATOM      7  C   UNL     1      46.613   6.284  12.111  0.00  0.00    +0.000 A 
BRANCH   6   8
ATOM      8  C   UNL     1      45.146   5.055  10.490  0.00  0.00    +0.000 A 
ATOM      9  C   UNL     1      44.343   4.004  10.955  0.00  0.00    +0.000 A 
ATOM     10  N   UNL     1      43.997   2.906  10.235  0.00  0.00    +0.000 NA
ATOM     11  C   UNL     1      44.466   2.846   8.970  0.00  0.00    +0.000 A 
ATOM     12  C   UNL     1      45.264   3.825   8.410  0.00  0.00    +0.000 A 
ATOM     13  F   UNL     1      45.689   3.717   7.145  0.00  0.00    +0.000 F 
ATOM     14  C   UNL     1      45.614   4.933   9.173  0.00  0.00    +0.000 A 
ENDBRANCH   6   8
ENDBRANCH   1   2
BRANCH   1  15
ATOM     15  O   UNL     1      48.678   6.159  14.013  0.00  0.00    +0.000 OA
BRANCH  15  19
ATOM     16  C   UNL     1      48.213   5.465  18.043  0.00  0.00    +0.000 A 
ATOM     17  C   UNL     1      48.851   6.629  17.611  0.00  0.00    +0.000 A 
ATOM     18  C   UNL     1      49.001   6.851  16.241  0.00  0.00    +0.000 A 
ATOM     19  C   UNL     1      48.508   5.903  15.357  0.00  0.00    +0.000 A 
ATOM     20  N   UNL     1      47.891   4.767  15.747  0.00  0.00    +0.000 NA
ATOM     21  C   UNL     1      47.766   4.568  17.082  0.00  0.00    +0.000 A 
BRANCH  16  23
ATOM     22  N   UNL     1      48.508   3.931  19.905  0.00  0.00    +0.000 N 
ATOM     23  C   UNL     1      48.011   5.125  19.466  0.00  0.00    +0.000 C 
ATOM     24  O   UNL     1      47.453   5.899  20.232  0.00  0.00    +0.000 OA
ATOM     25  H   UNL     1      48.457   3.767  20.903  0.00  0.00    +0.000 HD
ATOM     26  H   UNL     1      49.182   3.392  19.379  0.00  0.00    +0.000 HD
ENDBRANCH  16  23
ENDBRANCH  15  19
ENDBRANCH   1  15
TORSDOF 5
ENDMDL
MODEL 9
REMARK VINA RESULT:    -6.566      3.414      7.861
REMARK INTER + INTRA:          -9.209
REMARK INTER:                  -8.479
REMARK INTRA:                  -0.730
REMARK UNBOUND:                -0.724
REMARK  Name = 
REMARK  5 active torsions:
REMARK  status: ('A' for Active; 'I' for Inactive)
REMARK    1  A    between atoms: C_2  and  C_4
REMARK    2  A    between atoms: C_7  and  O_8
REMARK    3  A    between atoms: O_8  and  C_9
REMARK    4  A    between atoms: C_9  and  C_10
REMARK    5  A    between atoms: C_14  and  C_15
REMARK                            x       y       z     vdW  Elec       q    Type
REMARK                         _______ _______ _______ _____ _____    ______ ____
ROOT
ATOM      1  C   UNL     1      45.359   7.587  11.983  0.00  0.00    +0.000 C 
ENDROOT
BRANCH   1   2
ATOM      2  C   UNL     1      44.773   6.264  11.541  0.00  0.00    +0.000 A 
ATOM      3  C   UNL     1      43.542   5.843  12.055  0.00  0.00    +0.000 A 
ATOM      4  C   UNL     1      42.965   4.655  11.613  0.00  0.00    +0.000 A 
ATOM      5  C   UNL     1      43.605   3.885  10.638  0.00  0.00    +0.000 A 
ATOM      6  C   UNL     1      44.825   4.293  10.070  0.00  0.00    +0.000 A 
ATOM      7  C   UNL     1      45.392   5.490  10.545  0.00  0.00    +0.000 A 
BRANCH   6   8
ATOM      8  C   UNL     1      45.472   3.527   8.986  0.00  0.00    +0.000 A 
ATOM      9  C   UNL     1      46.068   4.160   7.887  0.00  0.00    +0.000 A 
ATOM     10  N   UNL     1      46.709   3.527   6.870  0.00  0.00    +0.000 NA
ATOM     11  C   UNL     1      46.773   2.180   6.949  0.00  0.00    +0.000 A 
ATOM     12  C   UNL     1      46.221   1.454   7.987  0.00  0.00    +0.000 A 
ATOM     13  F   UNL     1      46.327   0.120   8.019  0.00  0.00    +0.000 F 
ATOM     14  C   UNL     1      45.560   2.127   9.008  0.00  0.00    +0.000 A 
ENDBRANCH   6   8
ENDBRANCH   1   2
BRANCH   1  15
ATOM     15  O   UNL     1      46.786   7.564  11.868  0.00  0.00    +0.000 OA
BRANCH  15  19
ATOM     16  C   UNL     1      48.652   7.590  15.537  0.00  0.00    +0.000 A 
ATOM     17  C   UNL     1      48.451   6.379  14.871  0.00  0.00    +0.000 A 
ATOM     18  C   UNL     1      47.817   6.386  13.628  0.00  0.00    +0.000 A 
ATOM     19  C   UNL     1      47.409   7.602  13.097  0.00  0.00    +0.000 A 
ATOM     20  N   UNL     1      47.586   8.785  13.721  0.00  0.00    +0.000 NA
ATOM     21  C   UNL     1      48.194   8.753  14.932  0.00  0.00    +0.000 A 
BRANCH  16  23
ATOM     22  N   UNL     1      48.502   7.584  17.963  0.00  0.00    +0.000 N 
ATOM     23  C   UNL     1      49.300   7.696  16.859  0.00  0.00    +0.000 C 
ATOM     24  O   UNL     1      50.510   7.843  16.965  0.00  0.00    +0.000 OA
ATOM     25  H   UNL     1      48.979   7.549  18.856  0.00  0.00    +0.000 HD
ATOM     26  H   UNL     1      47.561   7.216  17.923  0.00  0.00    +0.000 HD
ENDBRANCH  16  23
ENDBRANCH  15  19
ENDBRANCH   1  15
TORSDOF 5
ENDMDL
