MODEL 1
REMARK VINA RESULT:    -8.131      0.000      0.000
REMARK INTER + INTRA:         -10.399
REMARK INTER:                  -9.795
REMARK INTRA:                  -0.604
REMARK UNBOUND:                -0.604
REMARK  Name = 
REMARK  4 active torsions:
REMARK  status: ('A' for Active; 'I' for Inactive)
REMARK    1  A    between atoms: N_1  and  C_2
REMARK    2  A    between atoms: C_2  and  C_3
REMARK    3  A    between atoms: C_6  and  C_7
REMARK    4  A    between atoms: C_7  and  C_8
REMARK                            x       y       z     vdW  Elec       q    Type
REMARK                         _______ _______ _______ _____ _____    ______ ____
ROOT
ATOM      1  C   UNL     1      43.921   4.096  10.486  0.00  0.00    +0.000 C 
ENDROOT
BRANCH   1   2
ATOM      2  C   UNL     1      44.912   4.126  11.601  0.00  0.00    +0.000 A 
ATOM      3  N   UNL     1      44.823   3.249  12.615  0.00  0.00    +0.000 NA
ATOM      4  O   UNL     1      45.561   3.805  13.650  0.00  0.00    +0.000 OA
ATOM      5  C   UNL     1      46.130   4.963  13.225  0.00  0.00    +0.000 A 
ATOM      6  C   UNL     1      46.828   5.871  14.014  0.00  0.00    +0.000 A 
ATOM      7  C   UNL     1      47.315   6.993  13.345  0.00  0.00    +0.000 A 
ATOM      8  F   UNL     1      47.942   7.944  14.050  0.00  0.00    +0.000 F 
ATOM      9  C   UNL     1      47.161   7.168  11.970  0.00  0.00    +0.000 A 
ATOM     10  C   UNL     1      46.427   6.246  11.213  0.00  0.00    +0.000 A 
ATOM     11  C   UNL     1      45.873   5.139  11.879  0.00  0.00    +0.000 A 
ENDBRANCH   1   2
BRANCH   1  15
ATOM     12  C   UNL     1      46.487   2.329   7.460  0.00  0.00    +0.000 A 
ATOM     13  C   UNL     1      45.830   1.518   8.395  0.00  0.00    +0.000 A 
ATOM     14  C   UNL     1      44.948   2.072   9.331  0.00  0.00    +0.000 A 
ATOM     15  C   UNL     1      44.707   3.454   9.350  0.00  0.00    +0.000 A 
ATOM     16  C   UNL     1      45.331   4.255   8.381  0.00  0.00    +0.000 A 
ATOM     17  C   UNL     1      46.214   3.702   7.452  0.00  0.00    +0.000 A 
BRANCH  12  18
ATOM     18  C   UNL     1      47.504   1.744   6.516  0.00  0.00    +0.000 C 
BRANCH  18  19
ATOM     19  N   UNL     1      48.682   2.588   6.387  0.00  0.00    +0.000 NA
ATOM     20  H   UNL     1      49.205   2.306   5.562  0.00  0.00    +0.000 HD
ATOM     21  H   UNL     1      49.289   2.417   7.187  0.00  0.00    +0.000 HD
ENDBRANCH  18  19
ENDBRANCH  12  18
ENDBRANCH   1  15
TORSDOF 4
ENDMDL
MODEL 2
REMARK VINA RESULT:    -7.619      3.019      5.650
REMARK INTER + INTRA:          -9.782
REMARK INTER:                  -9.116
REMARK INTRA:                  -0.666
REMARK UNBOUND:                -0.604
REMARK  Name = 
REMARK  4 active torsions:
REMARK  status: ('A' for Active; 'I' for Inactive)
REMARK    1  A    between atoms: N_1  and  C_2
REMARK    2  A    between atoms: C_2  and  C_3
REMARK    3  A    between atoms: C_6  and  C_7
REMARK    4  A    between atoms: C_7  and  C_8
REMARK                            x       y       z     vdW  Elec       q    Type
REMARK                         _______ _______ _______ _____ _____    ______ ____
ROOT
ATOM      1  C   UNL     1      43.639   5.642  11.150  0.00  0.00    +0.000 C 
ENDROOT
BRANCH   1   2
ATOM      2  C   UNL     1      43.686   4.296  10.509  0.00  0.00    +0.000 A 
ATOM      3  N   UNL     1      43.086   3.244  11.088  0.00  0.00    +0.000 NA
ATOM      4  O   UNL     1      43.672   2.123  10.519  0.00  0.00    +0.000 OA
ATOM      5  C   UNL     1      44.560   2.514   9.568  0.00  0.00    +0.000 A 
ATOM      6  C   UNL     1      45.439   1.687   8.876  0.00  0.00    +0.000 A 
ATOM      7  C   UNL     1      46.259   2.329   7.949  0.00  0.00    +0.000 A 
ATOM      8  F   UNL     1      47.178   1.609   7.291  0.00  0.00    +0.000 F 
ATOM      9  C   UNL     1      46.169   3.697   7.693  0.00  0.00    +0.000 A 
ATOM     10  C   UNL     1      45.291   4.502   8.429  0.00  0.00    +0.000 A 
ATOM     11  C   UNL     1      44.500   3.886   9.414  0.00  0.00    +0.000 A 
ENDBRANCH   1   2
BRANCH   1  15
ATOM     12  C   UNL     1      47.409   6.274  13.212  0.00  0.00    +0.000 A 
ATOM     13  C   UNL     1      46.498   5.316  13.677  0.00  0.00    +0.000 A 
ATOM     14  C   UNL     1      45.311   5.058  12.980  0.00  0.00    +0.000 A 
ATOM     15  C   UNL     1      45.011   5.757  11.801  0.00  0.00    +0.000 A 
ATOM     16  C   UNL     1      45.950   6.681  11.315  0.00  0.00    +0.000 A 
ATOM     17  C   UNL     1      47.130   6.941  12.014  0.00  0.00    +0.000 A 
BRANCH  12  18
ATOM     18  C   UNL     1      48.639   6.615  14.011  0.00  0.00    +0.000 C 
BRANCH  18  19
ATOM     19  N   UNL     1      49.770   6.952  13.160  0.00  0.00    +0.000 NA
ATOM     20  H   UNL     1      49.855   7.963  13.104  0.00  0.00    +0.000 HD
ATOM     21  H   UNL     1      49.572   6.625  12.217  0.00  0.00    +0.000 HD
ENDBRANCH  18  19
ENDBRANCH  12  18
ENDBRANCH   1  15
TORSDOF 4
ENDMDL
MODEL 3
REMARK VINA RESULT:    -7.380      1.421      2.050
REMARK INTER + INTRA:          -9.494
REMARK INTER:                  -9.228
REMARK INTRA:                  -0.267
REMARK UNBOUND:                -0.604
REMARK  Name = 
REMARK  4 active torsions:
REMARK  status: ('A' for Active; 'I' for Inactive)
REMARK    1  A    between atoms: N_1  and  C_2
REMARK    2  A    between atoms: C_2  and  C_3
REMARK    3  A    between atoms: C_6  and  C_7
REMARK    4  A    between atoms: C_7  and  C_8
REMARK                            x       y       z     vdW  Elec       q    Type
REMARK                         _______ _______ _______ _____ _____    ______ ____
ROOT
ATOM      1  C   UNL     1      43.752   2.973  10.618  0.00  0.00    +0.000 C 
ENDROOT
BRANCH   1   2
ATOM      2  C   UNL     1      44.035   4.250  11.335  0.00  0.00    +0.000 A 
ATOM      3  N   UNL     1      43.432   5.390  10.961  0.00  0.00    +0.000 NA
ATOM      4  O   UNL     1      44.210   6.411  11.488  0.00  0.00    +0.000 OA
ATOM      5  C   UNL     1      45.221   5.874  12.219  0.00  0.00    +0.000 A 
ATOM      6  C   UNL     1      46.282   6.571  12.787  0.00  0.00    +0.000 A 
ATOM      7  C   UNL     1      47.201   5.792  13.490  0.00  0.00    +0.000 A 
ATOM      8  F   UNL     1      48.285   6.383  14.010  0.00  0.00    +0.000 F 
ATOM      9  C   UNL     1      47.040   4.417  13.658  0.00  0.00    +0.000 A 
ATOM     10  C   UNL     1      45.974   3.745  13.047  0.00  0.00    +0.000 A 
ATOM     11  C   UNL     1      45.070   4.502  12.281  0.00  0.00    +0.000 A 
ENDBRANCH   1   2
BRANCH   1  15
ATOM     12  C   UNL     1      46.476   2.838   7.237  0.00  0.00    +0.000 A 
ATOM     13  C   UNL     1      45.944   4.059   7.672  0.00  0.00    +0.000 A 
ATOM     14  C   UNL     1      45.120   4.121   8.802  0.00  0.00    +0.000 A 
ATOM     15  C   UNL     1      44.809   2.958   9.521  0.00  0.00    +0.000 A 
ATOM     16  C   UNL     1      45.382   1.744   9.109  0.00  0.00    +0.000 A 
ATOM     17  C   UNL     1      46.199   1.684   7.979  0.00  0.00    +0.000 A 
BRANCH  12  18
ATOM     18  C   UNL     1      47.285   2.760   5.971  0.00  0.00    +0.000 C 
BRANCH  18  19
ATOM     19  N   UNL     1      48.674   2.408   6.228  0.00  0.00    +0.000 NA
ATOM     20  H   UNL     1      49.125   3.173   6.722  0.00  0.00    +0.000 HD
ATOM     21  H   UNL     1      49.153   2.317   5.335  0.00  0.00    +0.000 HD
ENDBRANCH  18  19
ENDBRANCH  12  18
ENDBRANCH   1  15
TORSDOF 4
ENDMDL
MODEL 4
REMARK VINA RESULT:    -6.475      1.496      2.278
REMARK INTER + INTRA:          -8.404
REMARK INTER:                  -7.907
REMARK INTRA:                  -0.497
REMARK UNBOUND:                -0.604
REMARK  Name = 
REMARK  4 active torsions:
REMARK  status: ('A' for Active; 'I' for Inactive)
REMARK    1  A    between atoms: N_1  and  C_2
REMARK    2  A    between atoms: C_2  and  C_3
REMARK    3  A    between atoms: C_6  and  C_7
REMARK    4  A    between atoms: C_7  and  C_8
REMARK                            x       y       z     vdW  Elec       q    Type
REMARK                         _______ _______ _______ _____ _____    ______ ____
ROOT
ATOM      1  C   UNL     1      44.490   5.091  12.799  0.00  0.00    +0.000 C 
ENDROOT
BRANCH   1   2
ATOM      2  C   UNL     1      45.892   5.059  13.308  0.00  0.00    +0.000 A 
ATOM      3  N   UNL     1      46.399   3.935  13.839  0.00  0.00    +0.000 NA
ATOM      4  O   UNL     1      47.491   4.341  14.592  0.00  0.00    +0.000 OA
ATOM      5  C   UNL     1      47.662   5.682  14.450  0.00  0.00    +0.000 A 
ATOM      6  C   UNL     1      48.564   6.473  15.153  0.00  0.00    +0.000 A 
ATOM      7  C   UNL     1      48.547   7.829  14.831  0.00  0.00    +0.000 A 
ATOM      8  F   UNL     1      49.342   8.665  15.512  0.00  0.00    +0.000 F 
ATOM      9  C   UNL     1      47.721   8.350  13.835  0.00  0.00    +0.000 A 
ATOM     10  C   UNL     1      46.805   7.527  13.168  0.00  0.00    +0.000 A 
ATOM     11  C   UNL     1      46.761   6.167  13.521  0.00  0.00    +0.000 A 
ENDBRANCH   1   2
BRANCH   1  15
ATOM     12  C   UNL     1      45.303   3.837   8.721  0.00  0.00    +0.000 A 
ATOM     13  C   UNL     1      44.559   3.017   9.581  0.00  0.00    +0.000 A 
ATOM     14  C   UNL     1      44.234   3.443  10.875  0.00  0.00    +0.000 A 
ATOM     15  C   UNL     1      44.650   4.701  11.336  0.00  0.00    +0.000 A 
ATOM     16  C   UNL     1      45.353   5.537  10.454  0.00  0.00    +0.000 A 
ATOM     17  C   UNL     1      45.681   5.108   9.167  0.00  0.00    +0.000 A 
BRANCH  12  18
ATOM     18  C   UNL     1      45.729   3.341   7.366  0.00  0.00    +0.000 C 
BRANCH  18  19
ATOM     19  N   UNL     1      46.818   4.130   6.810  0.00  0.00    +0.000 NA
ATOM     20  H   UNL     1      46.491   4.603   5.972  0.00  0.00    +0.000 HD
ATOM     21  H   UNL     1      47.557   3.495   6.515  0.00  0.00    +0.000 HD
ENDBRANCH  18  19
ENDBRANCH  12  18
ENDBRANCH   1  15
TORSDOF 4
ENDMDL
MODEL 5
REMARK VINA RESULT:    -5.898      4.653      7.533
REMARK INTER + INTRA:          -7.709
REMARK INTER:                  -7.273
REMARK INTRA:                  -0.436
REMARK UNBOUND:                -0.604
REMARK  Name = 
REMARK  4 active torsions:
REMARK  status: ('A' for Active; 'I' for Inactive)
REMARK    1  A    between atoms: N_1  and  C_2
REMARK    2  A    between atoms: C_2  and  C_3
REMARK    3  A    between atoms: C_6  and  C_7
REMARK    4  A    between atoms: C_7  and  C_8
REMARK                            x       y       z     vdW  Elec       q    Type
REMARK                         _______ _______ _______ _____ _____    ______ ____
ROOT
ATOM      1  C   UNL     1      47.556   4.918  16.693  0.00  0.00    +0.000 C 
ENDROOT
BRANCH   1   2
ATOM      2  C   UNL     1      47.932   5.347  15.315  0.00  0.00    +0.000 A 
ATOM      3  N   UNL     1      48.963   6.184  15.118  0.00  0.00    +0.000 NA
ATOM      4  O   UNL     1      48.770   6.719  13.853  0.00  0.00    +0.000 OA
ATOM      5  C   UNL     1      47.673   6.151  13.287  0.00  0.00    +0.000 A 
ATOM      6  C   UNL     1      47.084   6.525  12.084  0.00  0.00    +0.000 A 
ATOM      7  C   UNL     1      45.958   5.790  11.717  0.00  0.00    +0.000 A 
ATOM      8  F   UNL     1      45.297   6.134  10.603  0.00  0.00    +0.000 F 
ATOM      9  C   UNL     1      45.484   4.719  12.474  0.00  0.00    +0.000 A 
ATOM     10  C   UNL     1      46.087   4.390  13.695  0.00  0.00    +0.000 A 
ATOM     11  C   UNL     1      47.186   5.158  14.116  0.00  0.00    +0.000 A 
ENDBRANCH   1   2
BRANCH   1  15
ATOM     12  C   UNL     1      50.846   2.162  17.364  0.00  0.00    +0.000 A 
ATOM     13  C   UNL     1      50.863   3.441  17.938  0.00  0.00    +0.000 A 
ATOM     14  C   UNL     1      49.777   4.311  17.783  0.00  0.00    +0.000 A 
ATOM     15  C   UNL     1      48.649   3.918  17.048  0.00  0.00    +0.000 A 
ATOM     16  C   UNL     1      48.617   2.619  16.515  0.00  0.00    +0.000 A 
ATOM     17  C   UNL     1      49.704   1.755  16.666  0.00  0.00    +0.000 A 
BRANCH  12  18
ATOM     18  C   UNL     1      52.051   1.265  17.453  0.00  0.00    +0.000 C 
BRANCH  18  19
ATOM     19  N   UNL     1      51.780   0.056  18.216  0.00  0.00    +0.000 NA
ATOM     20  H   UNL     1      52.502  -0.062  18.921  0.00  0.00    +0.000 HD
ATOM     21  H   UNL     1      51.853  -0.743  17.590  0.00  0.00    +0.000 HD
ENDBRANCH  18  19
ENDBRANCH  12  18
ENDBRANCH   1  15
TORSDOF 4
ENDMDL
MODEL 6
REMARK VINA RESULT:    -5.806      3.296      5.977
REMARK INTER + INTRA:          -7.598
REMARK INTER:                  -7.495
REMARK INTRA:                  -0.102
REMARK UNBOUND:                -0.604
REMARK  Name = 
REMARK  4 active torsions:
REMARK  status: ('A' for Active; 'I' for Inactive)
REMARK    1  A    between atoms: N_1  and  C_2
REMARK    2  A    between atoms: C_2  and  C_3
REMARK    3  A    between atoms: C_6  and  C_7
REMARK    4  A    between atoms: C_7  and  C_8
REMARK                            x       y       z     vdW  Elec       q    Type
REMARK                         _______ _______ _______ _____ _____    ______ ____
ROOT
ATOM      1  C   UNL     1      43.995   7.061  11.110  0.00  0.00    +0.000 C 
ENDROOT
BRANCH   1   2
ATOM      2  C   UNL     1      43.583   5.628  11.149  0.00  0.00    +0.000 A 
ATOM      3  N   UNL     1      43.037   5.106  12.259  0.00  0.00    +0.000 NA
ATOM      4  O   UNL     1      43.187   3.732  12.135  0.00  0.00    +0.000 OA
ATOM      5  C   UNL     1      43.755   3.449  10.933  0.00  0.00    +0.000 A 
ATOM      6  C   UNL     1      44.186   2.199  10.504  0.00  0.00    +0.000 A 
ATOM      7  C   UNL     1      44.745   2.164   9.228  0.00  0.00    +0.000 A 
ATOM      8  F   UNL     1      45.243   1.008   8.771  0.00  0.00    +0.000 F 
ATOM      9  C   UNL     1      44.818   3.295   8.414  0.00  0.00    +0.000 A 
ATOM     10  C   UNL     1      44.399   4.543   8.891  0.00  0.00    +0.000 A 
ATOM     11  C   UNL     1      43.891   4.612  10.200  0.00  0.00    +0.000 A 
ENDBRANCH   1   2
BRANCH   1  15
ATOM     12  C   UNL     1      47.559   6.917  13.590  0.00  0.00    +0.000 A 
ATOM     13  C   UNL     1      47.244   5.851  12.736  0.00  0.00    +0.000 A 
ATOM     14  C   UNL     1      46.135   5.918  11.884  0.00  0.00    +0.000 A 
ATOM     15  C   UNL     1      45.316   7.056  11.870  0.00  0.00    +0.000 A 
ATOM     16  C   UNL     1      45.662   8.140  12.692  0.00  0.00    +0.000 A 
ATOM     17  C   UNL     1      46.765   8.069  13.545  0.00  0.00    +0.000 A 
BRANCH  12  18
ATOM     18  C   UNL     1      48.696   6.807  14.570  0.00  0.00    +0.000 C 
BRANCH  18  19
ATOM     19  N   UNL     1      48.371   5.938  15.691  0.00  0.00    +0.000 NA
ATOM     20  H   UNL     1      47.652   6.381  16.258  0.00  0.00    +0.000 HD
ATOM     21  H   UNL     1      49.195   5.853  16.282  0.00  0.00    +0.000 HD
ENDBRANCH  18  19
ENDBRANCH  12  18
ENDBRANCH   1  15
TORSDOF 4
ENDMDL
MODEL 7
REMARK VINA RESULT:    -5.705      2.447      3.667
REMARK INTER + INTRA:          -7.476
REMARK INTER:                  -6.948
REMARK INTRA:                  -0.528
REMARK UNBOUND:                -0.604
REMARK  Name = 
REMARK  4 active torsions:
REMARK  status: ('A' for Active; 'I' for Inactive)
REMARK    1  A    between atoms: N_1  and  C_2
REMARK    2  A    between atoms: C_2  and  C_3
REMARK    3  A    between atoms: C_6  and  C_7
REMARK    4  A    between atoms: C_7  and  C_8
REMARK                            x       y       z     vdW  Elec       q    Type
REMARK                         _______ _______ _______ _____ _____    ______ ____
ROOT
ATOM      1  C   UNL     1      45.675   6.451  12.870  0.00  0.00    +0.000 C 
ENDROOT
BRANCH   1   2
ATOM      2  C   UNL     1      47.104   6.372  13.291  0.00  0.00    +0.000 A 
ATOM      3  N   UNL     1      47.447   5.740  14.425  0.00  0.00    +0.000 NA
ATOM      4  O   UNL     1      48.709   6.218  14.748  0.00  0.00    +0.000 OA
ATOM      5  C   UNL     1      49.128   7.072  13.778  0.00  0.00    +0.000 A 
ATOM      6  C   UNL     1      50.278   7.853  13.815  0.00  0.00    +0.000 A 
ATOM      7  C   UNL     1      50.490   8.657  12.696  0.00  0.00    +0.000 A 
ATOM      8  F   UNL     1      51.543   9.486  12.685  0.00  0.00    +0.000 F 
ATOM      9  C   UNL     1      49.638   8.641  11.592  0.00  0.00    +0.000 A 
ATOM     10  C   UNL     1      48.474   7.862  11.603  0.00  0.00    +0.000 A 
ATOM     11  C   UNL     1      48.207   7.091  12.748  0.00  0.00    +0.000 A 
ENDBRANCH   1   2
BRANCH   1  15
ATOM     12  C   UNL     1      44.932   3.244  10.037  0.00  0.00    +0.000 A 
ATOM     13  C   UNL     1      45.281   4.524   9.585  0.00  0.00    +0.000 A 
ATOM     14  C   UNL     1      45.589   5.545  10.491  0.00  0.00    +0.000 A 
ATOM     15  C   UNL     1      45.551   5.306  11.873  0.00  0.00    +0.000 A 
ATOM     16  C   UNL     1      45.246   4.010  12.319  0.00  0.00    +0.000 A 
ATOM     17  C   UNL     1      44.934   2.994  11.414  0.00  0.00    +0.000 A 
BRANCH  12  18
ATOM     18  C   UNL     1      44.512   2.174   9.064  0.00  0.00    +0.000 C 
BRANCH  18  19
ATOM     19  N   UNL     1      45.638   1.369   8.615  0.00  0.00    +0.000 NA
ATOM     20  H   UNL     1      46.345   1.349   9.345  0.00  0.00    +0.000 HD
ATOM     21  H   UNL     1      46.064   1.830   7.813  0.00  0.00    +0.000 HD
ENDBRANCH  18  19
ENDBRANCH  12  18
ENDBRANCH   1  15
TORSDOF 4
ENDMDL
MODEL 8
REMARK VINA RESULT:    -5.582      3.040      5.590
REMARK INTER + INTRA:          -7.328
REMARK INTER:                  -6.749
REMARK INTRA:                  -0.579
REMARK UNBOUND:                -0.604
REMARK  Name = 
REMARK  4 active torsions:
REMARK  status: ('A' for Active; 'I' for Inactive)
REMARK    1  A    between atoms: N_1  and  C_2
REMARK    2  A    between atoms: C_2  and  C_3
REMARK    3  A    between atoms: C_6  and  C_7
REMARK    4  A    between atoms: C_7  and  C_8
REMARK                            x       y       z     vdW  Elec       q    Type
REMARK                         _______ _______ _______ _____ _____    ______ ____
ROOT
ATOM      1  C   UNL     1      45.225   6.465  13.233  0.00  0.00    +0.000 C 
ENDROOT
BRANCH   1   2
ATOM      2  C   UNL     1      44.991   5.064  12.776  0.00  0.00    +0.000 A 
ATOM      3  N   UNL     1      45.340   4.027  13.553  0.00  0.00    +0.000 NA
ATOM      4  O   UNL     1      45.414   2.934  12.701  0.00  0.00    +0.000 OA
ATOM      5  C   UNL     1      45.047   3.315  11.449  0.00  0.00    +0.000 A 
ATOM      6  C   UNL     1      45.123   2.536  10.300  0.00  0.00    +0.000 A 
ATOM      7  C   UNL     1      44.690   3.156   9.128  0.00  0.00    +0.000 A 
ATOM      8  F   UNL     1      44.794   2.492   7.970  0.00  0.00    +0.000 F 
ATOM      9  C   UNL     1      44.165   4.448   9.117  0.00  0.00    +0.000 A 
ATOM     10  C   UNL     1      44.130   5.212  10.290  0.00  0.00    +0.000 A 
ATOM     11  C   UNL     1      44.621   4.630  11.471  0.00  0.00    +0.000 A 
ENDBRANCH   1   2
BRANCH   1  15
ATOM     12  C   UNL     1      49.345   7.502  12.328  0.00  0.00    +0.000 A 
ATOM     13  C   UNL     1      49.007   6.963  13.577  0.00  0.00    +0.000 A 
ATOM     14  C   UNL     1      47.694   6.563  13.853  0.00  0.00    +0.000 A 
ATOM     15  C   UNL     1      46.690   6.696  12.882  0.00  0.00    +0.000 A 
ATOM     16  C   UNL     1      47.044   7.193  11.618  0.00  0.00    +0.000 A 
ATOM     17  C   UNL     1      48.353   7.596  11.346  0.00  0.00    +0.000 A 
BRANCH  12  18
ATOM     18  C   UNL     1      50.735   8.016  12.065  0.00  0.00    +0.000 C 
BRANCH  18  19
ATOM     19  N   UNL     1      51.405   7.272  11.008  0.00  0.00    +0.000 NA
ATOM     20  H   UNL     1      52.367   7.096  11.284  0.00  0.00    +0.000 HD
ATOM     21  H   UNL     1      51.444   7.859  10.178  0.00  0.00    +0.000 HD
ENDBRANCH  18  19
ENDBRANCH  12  18
ENDBRANCH   1  15
TORSDOF 4
ENDMDL
MODEL 9
REMARK VINA RESULT:    -5.271      4.210      6.102
REMARK INTER + INTRA:          -6.954
REMARK INTER:                  -6.430
REMARK INTRA:                  -0.523
REMARK UNBOUND:                -0.604
REMARK  Name = 
REMARK  4 active torsions:
REMARK  status: ('A' for Active; 'I' for Inactive)
REMARK    1  A    between atoms: N_1  and  C_2
REMARK    2  A    between atoms: C_2  and  C_3
REMARK    3  A    between atoms: C_6  and  C_7
REMARK    4  A    between atoms: C_7  and  C_8
REMARK                            x       y       z     vdW  Elec       q    Type
REMARK                         _______ _______ _______ _____ _____    ______ ____
ROOT
ATOM      1  C   UNL     1      46.222   8.061  13.241  0.00  0.00    +0.000 C 
ENDROOT
BRANCH   1   2
ATOM      2  C   UNL     1      45.352   7.384  12.235  0.00  0.00    +0.000 A 
ATOM      3  N   UNL     1      44.509   8.099  11.472  0.00  0.00    +0.000 NA
ATOM      4  O   UNL     1      43.573   7.189  11.003  0.00  0.00    +0.000 OA
ATOM      5  C   UNL     1      43.902   5.943  11.433  0.00  0.00    +0.000 A 
ATOM      6  C   UNL     1      43.134   4.793  11.282  0.00  0.00    +0.000 A 
ATOM      7  C   UNL     1      43.687   3.630  11.815  0.00  0.00    +0.000 A 
ATOM      8  F   UNL     1      42.976   2.496  11.767  0.00  0.00    +0.000 F 
ATOM      9  C   UNL     1      44.947   3.609  12.412  0.00  0.00    +0.000 A 
ATOM     10  C   UNL     1      45.679   4.791  12.572  0.00  0.00    +0.000 A 
ATOM     11  C   UNL     1      45.113   5.987  12.097  0.00  0.00    +0.000 A 
ENDBRANCH   1   2
BRANCH   1  15
ATOM     12  C   UNL     1      50.152   8.607  11.474  0.00  0.00    +0.000 A 
ATOM     13  C   UNL     1      49.763   7.354  11.968  0.00  0.00    +0.000 A 
ATOM     14  C   UNL     1      48.475   7.152  12.477  0.00  0.00    +0.000 A 
ATOM     15  C   UNL     1      47.547   8.203  12.503  0.00  0.00    +0.000 A 
ATOM     16  C   UNL     1      47.925   9.443  11.964  0.00  0.00    +0.000 A 
ATOM     17  C   UNL     1      49.213   9.644  11.462  0.00  0.00    +0.000 A 
BRANCH  12  18
ATOM     18  C   UNL     1      51.565   8.846  11.013  0.00  0.00    +0.000 C 
BRANCH  18  19
ATOM     19  N   UNL     1      52.439   7.724  11.319  0.00  0.00    +0.000 NA
ATOM     20  H   UNL     1      52.914   7.432  10.469  0.00  0.00    +0.000 HD
ATOM     21  H   UNL     1      51.863   6.939  11.613  0.00  0.00    +0.000 HD
ENDBRANCH  18  19
ENDBRANCH  12  18
ENDBRANCH   1  15
TORSDOF 4
ENDMDL
