MODEL 1
REMARK VINA RESULT:    -9.173      0.000      0.000
REMARK INTER + INTRA:         -12.832
REMARK INTER:                 -11.854
REMARK INTRA:                  -0.979
REMARK UNBOUND:                -0.979
REMARK  Name = 
REMARK  5 active torsions:
REMARK  status: ('A' for Active; 'I' for Inactive)
REMARK    1  A    between atoms: C_2  and  C_4
REMARK    2  A    between atoms: N_8  and  C_9
REMARK    3  A    between atoms: C_9  and  C_10
REMARK    4  A    between atoms: C_10  and  C_11
REMARK    5  A    between atoms: C_15  and  C_16
REMARK                            x       y       z     vdW  Elec       q    Type
REMARK                         _______ _______ _______ _____ _____    ______ ____
ROOT
ATOM      1  C   UNL     1      43.298   4.432  11.162  0.00  0.00    +0.000 C 
ENDROOT
BRANCH   1   6
ATOM      2  C   UNL     1      46.478   2.526   7.705  0.00  0.00    +0.000 A 
ATOM      3  C   UNL     1      45.608   1.875   8.571  0.00  0.00    +0.000 A 
ATOM      4  C   UNL     1      44.692   2.625   9.309  0.00  0.00    +0.000 A 
ATOM      5  C   UNL     1      44.675   4.012   9.190  0.00  0.00    +0.000 A 
ATOM      6  N   UNL     1      43.734   4.811   9.827  0.00  0.00    +0.000 N 
ATOM      7  N   UNL     1      45.537   4.658   8.382  0.00  0.00    +0.000 NA
ATOM      8  C   UNL     1      46.418   3.913   7.662  0.00  0.00    +0.000 A 
ATOM      9  H   UNL     1      44.038   5.775   9.709  0.00  0.00    +0.000 HD
BRANCH   2  11
ATOM     10  N   UNL     1      48.525   2.503   6.406  0.00  0.00    +0.000 N 
ATOM     11  C   UNL     1      47.436   1.803   6.848  0.00  0.00    +0.000 C 
ATOM     12  O   UNL     1      47.285   0.619   6.573  0.00  0.00    +0.000 OA
ATOM     13  H   UNL     1      49.229   1.970   5.908  0.00  0.00    +0.000 HD
ATOM     14  H   UNL     1      48.809   3.384   6.810  0.00  0.00    +0.000 HD
ENDBRANCH   2  11
ENDBRANCH   1   6
BRANCH   1  15
ATOM     15  C   UNL     1      43.392   5.615  12.130  0.00  0.00    +0.000 C 
BRANCH  15  16
ATOM     16  C   UNL     1      44.792   5.722  12.687  0.00  0.00    +0.000 A 
ATOM     17  C   UNL     1      45.336   4.693  13.461  0.00  0.00    +0.000 A 
ATOM     18  C   UNL     1      46.653   4.774  13.903  0.00  0.00    +0.000 A 
ATOM     19  C   UNL     1      47.448   5.866  13.544  0.00  0.00    +0.000 A 
ATOM     20  C   UNL     1      46.956   6.891  12.718  0.00  0.00    +0.000 A 
ATOM     21  C   UNL     1      45.604   6.811  12.332  0.00  0.00    +0.000 A 
BRANCH  20  22
ATOM     22  C   UNL     1      47.841   7.946  12.169  0.00  0.00    +0.000 A 
ATOM     23  C   UNL     1      47.398   9.279  12.084  0.00  0.00    +0.000 A 
ATOM     24  C   UNL     1      48.253  10.313  11.693  0.00  0.00    +0.000 A 
ATOM     25  C   UNL     1      49.579  10.037  11.380  0.00  0.00    +0.000 A 
ATOM     26  C   UNL     1      50.040   8.725  11.429  0.00  0.00    +0.000 A 
ATOM     27  C   UNL     1      49.177   7.690  11.807  0.00  0.00    +0.000 A 
ENDBRANCH  20  22
ENDBRANCH  15  16
ENDBRANCH   1  15
TORSDOF 5
ENDMDL
MODEL 2
REMARK VINA RESULT:    -8.716      1.732      3.660
REMARK INTER + INTRA:         -12.242
REMARK INTER:                 -11.459
REMARK INTRA:                  -0.783
REMARK UNBOUND:                -0.979
REMARK  Name = 
REMARK  5 active torsions:
REMARK  status: ('A' for Active; 'I' for Inactive)
REMARK    1  A    between atoms: C_2  and  C_4
REMARK    2  A    between atoms: N_8  and  C_9
REMARK    3  A    between atoms: C_9  and  C_10
REMARK    4  A    between atoms: C_10  and  C_11
REMARK    5  A    between atoms: C_15  and  C_16
REMARK                            x       y       z     vdW  Elec       q    Type
REMARK                         _______ _______ _______ _____ _____    ______ ____
ROOT
ATOM      1  C   UNL     1      43.434   4.164  11.293  0.00  0.00    +0.000 C 
ENDROOT
BRANCH   1   6
ATOM      2  C   UNL     1      46.552   2.688   7.578  0.00  0.00    +0.000 A 
ATOM      3  C   UNL     1      45.816   1.929   8.480  0.00  0.00    +0.000 A 
ATOM      4  C   UNL     1      44.880   2.559   9.299  0.00  0.00    +0.000 A 
ATOM      5  C   UNL     1      44.709   3.940   9.223  0.00  0.00    +0.000 A 
ATOM      6  N   UNL     1      43.736   4.618   9.943  0.00  0.00    +0.000 N 
ATOM      7  N   UNL     1      45.441   4.692   8.380  0.00  0.00    +0.000 NA
ATOM      8  C   UNL     1      46.344   4.062   7.581  0.00  0.00    +0.000 A 
ATOM      9  H   UNL     1      43.927   5.612   9.835  0.00  0.00    +0.000 HD
BRANCH   2  11
ATOM     10  N   UNL     1      47.891   2.852   5.564  0.00  0.00    +0.000 N 
ATOM     11  C   UNL     1      47.519   2.092   6.639  0.00  0.00    +0.000 C 
ATOM     12  O   UNL     1      47.999   0.981   6.831  0.00  0.00    +0.000 OA
ATOM     13  H   UNL     1      48.633   2.477   4.985  0.00  0.00    +0.000 HD
ATOM     14  H   UNL     1      47.717   3.845   5.510  0.00  0.00    +0.000 HD
ENDBRANCH   2  11
ENDBRANCH   1   6
BRANCH   1  15
ATOM     15  C   UNL     1      43.621   5.295  12.310  0.00  0.00    +0.000 C 
BRANCH  15  16
ATOM     16  C   UNL     1      45.092   5.532  12.559  0.00  0.00    +0.000 A 
ATOM     17  C   UNL     1      45.817   6.427  11.767  0.00  0.00    +0.000 A 
ATOM     18  C   UNL     1      47.153   6.691  12.057  0.00  0.00    +0.000 A 
ATOM     19  C   UNL     1      47.763   6.090  13.161  0.00  0.00    +0.000 A 
ATOM     20  C   UNL     1      47.050   5.230  14.016  0.00  0.00    +0.000 A 
ATOM     21  C   UNL     1      45.718   4.938  13.667  0.00  0.00    +0.000 A 
BRANCH  20  22
ATOM     22  C   UNL     1      47.624   4.747  15.295  0.00  0.00    +0.000 A 
ATOM     23  C   UNL     1      48.271   5.638  16.172  0.00  0.00    +0.000 A 
ATOM     24  C   UNL     1      48.705   5.236  17.438  0.00  0.00    +0.000 A 
ATOM     25  C   UNL     1      48.496   3.928  17.860  0.00  0.00    +0.000 A 
ATOM     26  C   UNL     1      47.882   3.017  17.006  0.00  0.00    +0.000 A 
ATOM     27  C   UNL     1      47.462   3.420  15.734  0.00  0.00    +0.000 A 
ENDBRANCH  20  22
ENDBRANCH  15  16
ENDBRANCH   1  15
TORSDOF 5
ENDMDL
MODEL 3
REMARK VINA RESULT:    -7.943      3.727      7.027
REMARK INTER + INTRA:         -11.244
REMARK INTER:                 -10.183
REMARK INTRA:                  -1.061
REMARK UNBOUND:                -0.979
REMARK  Name = 
REMARK  5 active torsions:
REMARK  status: ('A' for Active; 'I' for Inactive)
REMARK    1  A    between atoms: C_2  and  C_4
REMARK    2  A    between atoms: N_8  and  C_9
REMARK    3  A    between atoms: C_9  and  C_10
REMARK    4  A    between atoms: C_10  and  C_11
REMARK    5  A    between atoms: C_15  and  C_16
REMARK                            x       y       z     vdW  Elec       q    Type
REMARK                         _______ _______ _______ _____ _____    ______ ____
ROOT
ATOM      1  C   UNL     1      45.284   7.139  12.694  0.00  0.00    +0.000 C 
ENDROOT
BRANCH   1   6
ATOM      2  C   UNL     1      47.824   3.872  15.623  0.00  0.00    +0.000 A 
ATOM      3  C   UNL     1      46.837   3.638  14.674  0.00  0.00    +0.000 A 
ATOM      4  C   UNL     1      46.413   4.686  13.857  0.00  0.00    +0.000 A 
ATOM      5  C   UNL     1      46.962   5.956  14.016  0.00  0.00    +0.000 A 
ATOM      6  N   UNL     1      46.651   7.021  13.182  0.00  0.00    +0.000 N 
ATOM      7  N   UNL     1      47.892   6.206  14.958  0.00  0.00    +0.000 NA
ATOM      8  C   UNL     1      48.302   5.172  15.740  0.00  0.00    +0.000 A 
ATOM      9  H   UNL     1      47.052   7.855  13.605  0.00  0.00    +0.000 HD
BRANCH   2  11
ATOM     10  N   UNL     1      48.039   2.855  17.813  0.00  0.00    +0.000 N 
ATOM     11  C   UNL     1      48.368   2.808  16.486  0.00  0.00    +0.000 C 
ATOM     12  O   UNL     1      49.051   1.898  16.031  0.00  0.00    +0.000 OA
ATOM     13  H   UNL     1      48.329   2.063  18.376  0.00  0.00    +0.000 HD
ATOM     14  H   UNL     1      47.289   3.429  18.171  0.00  0.00    +0.000 HD
ENDBRANCH   2  11
ENDBRANCH   1   6
BRANCH   1  15
ATOM     15  C   UNL     1      45.220   6.935  11.177  0.00  0.00    +0.000 C 
BRANCH  15  16
ATOM     16  C   UNL     1      44.859   5.502  10.861  0.00  0.00    +0.000 A 
ATOM     17  C   UNL     1      43.753   4.893  11.460  0.00  0.00    +0.000 A 
ATOM     18  C   UNL     1      43.391   3.597  11.101  0.00  0.00    +0.000 A 
ATOM     19  C   UNL     1      44.109   2.916  10.115  0.00  0.00    +0.000 A 
ATOM     20  C   UNL     1      45.190   3.517   9.446  0.00  0.00    +0.000 A 
ATOM     21  C   UNL     1      45.569   4.806   9.868  0.00  0.00    +0.000 A 
BRANCH  20  22
ATOM     22  C   UNL     1      45.830   2.886   8.267  0.00  0.00    +0.000 A 
ATOM     23  C   UNL     1      46.102   3.641   7.111  0.00  0.00    +0.000 A 
ATOM     24  C   UNL     1      46.818   3.106   6.037  0.00  0.00    +0.000 A 
ATOM     25  C   UNL     1      47.287   1.799   6.097  0.00  0.00    +0.000 A 
ATOM     26  C   UNL     1      47.012   1.019   7.217  0.00  0.00    +0.000 A 
ATOM     27  C   UNL     1      46.282   1.554   8.284  0.00  0.00    +0.000 A 
ENDBRANCH  20  22
ENDBRANCH  15  16
ENDBRANCH   1  15
TORSDOF 5
ENDMDL
MODEL 4
REMARK VINA RESULT:    -7.526      3.562      7.027
REMARK INTER + INTRA:         -10.704
REMARK INTER:                  -9.893
REMARK INTRA:                  -0.812
REMARK UNBOUND:                -0.979
REMARK  Name = 
REMARK  5 active torsions:
REMARK  status: ('A' for Active; 'I' for Inactive)
REMARK    1  A    between atoms: C_2  and  C_4
REMARK    2  A    between atoms: N_8  and  C_9
REMARK    3  A    between atoms: C_9  and  C_10
REMARK    4  A    between atoms: C_10  and  C_11
REMARK    5  A    between atoms: C_15  and  C_16
REMARK                            x       y       z     vdW  Elec       q    Type
REMARK                         _______ _______ _______ _____ _____    ______ ____
ROOT
ATOM      1  C   UNL     1      45.051   6.813  12.638  0.00  0.00    +0.000 C 
ENDROOT
BRANCH   1   6
ATOM      2  C   UNL     1      49.735   8.715  12.267  0.00  0.00    +0.000 A 
ATOM      3  C   UNL     1      49.179   7.589  11.671  0.00  0.00    +0.000 A 
ATOM      4  C   UNL     1      47.806   7.368  11.778  0.00  0.00    +0.000 A 
ATOM      5  C   UNL     1      47.014   8.258  12.499  0.00  0.00    +0.000 A 
ATOM      6  N   UNL     1      45.632   8.146  12.572  0.00  0.00    +0.000 N 
ATOM      7  N   UNL     1      47.545   9.333  13.113  0.00  0.00    +0.000 NA
ATOM      8  C   UNL     1      48.883   9.541  12.991  0.00  0.00    +0.000 A 
ATOM      9  H   UNL     1      45.319   8.809  13.278  0.00  0.00    +0.000 HD
BRANCH   2  11
ATOM     10  N   UNL     1      52.061   8.040  12.365  0.00  0.00    +0.000 N 
ATOM     11  C   UNL     1      51.165   9.052  12.152  0.00  0.00    +0.000 C 
ATOM     12  O   UNL     1      51.537  10.178  11.843  0.00  0.00    +0.000 OA
ATOM     13  H   UNL     1      53.034   8.256  12.180  0.00  0.00    +0.000 HD
ATOM     14  H   UNL     1      51.795   7.066  12.370  0.00  0.00    +0.000 HD
ENDBRANCH   2  11
ENDBRANCH   1   6
BRANCH   1  15
ATOM     15  C   UNL     1      44.198   6.521  11.400  0.00  0.00    +0.000 C 
BRANCH  15  16
ATOM     16  C   UNL     1      44.212   5.041  11.097  0.00  0.00    +0.000 A 
ATOM     17  C   UNL     1      43.347   4.166  11.760  0.00  0.00    +0.000 A 
ATOM     18  C   UNL     1      43.320   2.817  11.416  0.00  0.00    +0.000 A 
ATOM     19  C   UNL     1      44.131   2.340  10.382  0.00  0.00    +0.000 A 
ATOM     20  C   UNL     1      44.970   3.201   9.652  0.00  0.00    +0.000 A 
ATOM     21  C   UNL     1      45.018   4.548  10.058  0.00  0.00    +0.000 A 
BRANCH  20  22
ATOM     22  C   UNL     1      45.680   2.750   8.431  0.00  0.00    +0.000 A 
ATOM     23  C   UNL     1      45.977   3.660   7.399  0.00  0.00    +0.000 A 
ATOM     24  C   UNL     1      46.757   3.292   6.298  0.00  0.00    +0.000 A 
ATOM     25  C   UNL     1      47.264   2.002   6.207  0.00  0.00    +0.000 A 
ATOM     26  C   UNL     1      46.966   1.072   7.199  0.00  0.00    +0.000 A 
ATOM     27  C   UNL     1      46.174   1.440   8.292  0.00  0.00    +0.000 A 
ENDBRANCH  20  22
ENDBRANCH  15  16
ENDBRANCH   1  15
TORSDOF 5
ENDMDL
MODEL 5
REMARK VINA RESULT:    -7.349      4.386      7.818
REMARK INTER + INTRA:         -10.475
REMARK INTER:                  -9.829
REMARK INTRA:                  -0.646
REMARK UNBOUND:                -0.979
REMARK  Name = 
REMARK  5 active torsions:
REMARK  status: ('A' for Active; 'I' for Inactive)
REMARK    1  A    between atoms: C_2  and  C_4
REMARK    2  A    between atoms: N_8  and  C_9
REMARK    3  A    between atoms: C_9  and  C_10
REMARK    4  A    between atoms: C_10  and  C_11
REMARK    5  A    between atoms: C_15  and  C_16
REMARK                            x       y       z     vdW  Elec       q    Type
REMARK                         _______ _______ _______ _____ _____    ______ ____
ROOT
ATOM      1  C   UNL     1      46.415   6.027  13.065  0.00  0.00    +0.000 C 
ENDROOT
BRANCH   1   6
ATOM      2  C   UNL     1      48.866   4.235  17.124  0.00  0.00    +0.000 A 
ATOM      3  C   UNL     1      48.927   5.488  16.527  0.00  0.00    +0.000 A 
ATOM      4  C   UNL     1      48.015   5.809  15.521  0.00  0.00    +0.000 A 
ATOM      5  C   UNL     1      47.075   4.868  15.110  0.00  0.00    +0.000 A 
ATOM      6  N   UNL     1      46.085   5.151  14.179  0.00  0.00    +0.000 N 
ATOM      7  N   UNL     1      47.029   3.637  15.655  0.00  0.00    +0.000 NA
ATOM      8  C   UNL     1      47.918   3.342  16.640  0.00  0.00    +0.000 A 
ATOM      9  H   UNL     1      45.643   4.265  13.940  0.00  0.00    +0.000 HD
BRANCH   2  11
ATOM     10  N   UNL     1      50.563   2.754  18.022  0.00  0.00    +0.000 N 
ATOM     11  C   UNL     1      49.755   3.837  18.232  0.00  0.00    +0.000 C 
ATOM     12  O   UNL     1      49.797   4.470  19.280  0.00  0.00    +0.000 OA
ATOM     13  H   UNL     1      51.243   2.554  18.746  0.00  0.00    +0.000 HD
ATOM     14  H   UNL     1      50.737   2.372  17.103  0.00  0.00    +0.000 HD
ENDBRANCH   2  11
ENDBRANCH   1   6
BRANCH   1  15
ATOM     15  C   UNL     1      45.213   6.213  12.134  0.00  0.00    +0.000 C 
BRANCH  15  16
ATOM     16  C   UNL     1      44.844   4.896  11.492  0.00  0.00    +0.000 A 
ATOM     17  C   UNL     1      43.691   4.208  11.881  0.00  0.00    +0.000 A 
ATOM     18  C   UNL     1      43.326   3.034  11.227  0.00  0.00    +0.000 A 
ATOM     19  C   UNL     1      44.090   2.560  10.157  0.00  0.00    +0.000 A 
ATOM     20  C   UNL     1      45.222   3.257   9.698  0.00  0.00    +0.000 A 
ATOM     21  C   UNL     1      45.599   4.409  10.412  0.00  0.00    +0.000 A 
BRANCH  20  22
ATOM     22  C   UNL     1      45.921   2.876   8.447  0.00  0.00    +0.000 A 
ATOM     23  C   UNL     1      46.393   1.563   8.263  0.00  0.00    +0.000 A 
ATOM     24  C   UNL     1      46.939   1.144   7.046  0.00  0.00    +0.000 A 
ATOM     25  C   UNL     1      47.020   2.031   5.979  0.00  0.00    +0.000 A 
ATOM     26  C   UNL     1      46.584   3.343   6.139  0.00  0.00    +0.000 A 
ATOM     27  C   UNL     1      46.052   3.763   7.363  0.00  0.00    +0.000 A 
ENDBRANCH  20  22
ENDBRANCH  15  16
ENDBRANCH   1  15
TORSDOF 5
ENDMDL
MODEL 6
REMARK VINA RESULT:    -6.675      1.438      2.508
REMARK INTER + INTRA:          -9.605
REMARK INTER:                  -8.771
REMARK INTRA:                  -0.833
REMARK UNBOUND:                -0.979
REMARK  Name = 
REMARK  5 active torsions:
REMARK  status: ('A' for Active; 'I' for Inactive)
REMARK    1  A    between atoms: C_2  and  C_4
REMARK    2  A    between atoms: N_8  and  C_9
REMARK    3  A    between atoms: C_9  and  C_10
REMARK    4  A    between atoms: C_10  and  C_11
REMARK    5  A    between atoms: C_15  and  C_16
REMARK                            x       y       z     vdW  Elec       q    Type
REMARK                         _______ _______ _______ _____ _____    ______ ____
ROOT
ATOM      1  C   UNL     1      44.011   5.498  10.887  0.00  0.00    +0.000 C 
ENDROOT
BRANCH   1   6
ATOM      2  C   UNL     1      46.500   2.672   7.494  0.00  0.00    +0.000 A 
ATOM      3  C   UNL     1      46.494   4.050   7.675  0.00  0.00    +0.000 A 
ATOM      4  C   UNL     1      45.871   4.587   8.801  0.00  0.00    +0.000 A 
ATOM      5  C   UNL     1      45.241   3.746   9.714  0.00  0.00    +0.000 A 
ATOM      6  N   UNL     1      44.678   4.204  10.897  0.00  0.00    +0.000 N 
ATOM      7  N   UNL     1      45.206   2.411   9.531  0.00  0.00    +0.000 NA
ATOM      8  C   UNL     1      45.827   1.901   8.434  0.00  0.00    +0.000 A 
ATOM      9  H   UNL     1      44.152   3.429  11.295  0.00  0.00    +0.000 HD
BRANCH   2  11
ATOM     10  N   UNL     1      47.787   2.839   5.446  0.00  0.00    +0.000 N 
ATOM     11  C   UNL     1      47.185   2.021   6.363  0.00  0.00    +0.000 C 
ATOM     12  O   UNL     1      47.247   0.801   6.266  0.00  0.00    +0.000 OA
ATOM     13  H   UNL     1      48.343   2.382   4.733  0.00  0.00    +0.000 HD
ATOM     14  H   UNL     1      47.972   3.816   5.624  0.00  0.00    +0.000 HD
ENDBRANCH   2  11
ENDBRANCH   1   6
BRANCH   1  15
ATOM     15  C   UNL     1      44.202   6.228  12.221  0.00  0.00    +0.000 C 
BRANCH  15  16
ATOM     16  C   UNL     1      45.094   7.432  12.030  0.00  0.00    +0.000 A 
ATOM     17  C   UNL     1      44.548   8.697  11.790  0.00  0.00    +0.000 A 
ATOM     18  C   UNL     1      45.381   9.808  11.692  0.00  0.00    +0.000 A 
ATOM     19  C   UNL     1      46.760   9.670  11.868  0.00  0.00    +0.000 A 
ATOM     20  C   UNL     1      47.340   8.425  12.171  0.00  0.00    +0.000 A 
ATOM     21  C   UNL     1      46.482   7.310  12.209  0.00  0.00    +0.000 A 
BRANCH  20  22
ATOM     22  C   UNL     1      48.766   8.299  12.556  0.00  0.00    +0.000 A 
ATOM     23  C   UNL     1      49.777   8.325  11.576  0.00  0.00    +0.000 A 
ATOM     24  C   UNL     1      51.131   8.338  11.920  0.00  0.00    +0.000 A 
ATOM     25  C   UNL     1      51.508   8.331  13.258  0.00  0.00    +0.000 A 
ATOM     26  C   UNL     1      50.532   8.280  14.249  0.00  0.00    +0.000 A 
ATOM     27  C   UNL     1      49.178   8.252  13.900  0.00  0.00    +0.000 A 
ENDBRANCH  20  22
ENDBRANCH  15  16
ENDBRANCH   1  15
TORSDOF 5
ENDMDL
MODEL 7
REMARK VINA RESULT:    -6.571      4.964      8.326
REMARK INTER + INTRA:          -9.470
REMARK INTER:                  -8.751
REMARK INTRA:                  -0.719
REMARK UNBOUND:                -0.979
REMARK  Name = 
REMARK  5 active torsions:
REMARK  status: ('A' for Active; 'I' for Inactive)
REMARK    1  A    between atoms: C_2  and  C_4
REMARK    2  A    between atoms: N_8  and  C_9
REMARK    3  A    between atoms: C_9  and  C_10
REMARK    4  A    between atoms: C_10  and  C_11
REMARK    5  A    between atoms: C_15  and  C_16
REMARK                            x       y       z     vdW  Elec       q    Type
REMARK                         _______ _______ _______ _____ _____    ______ ____
ROOT
ATOM      1  C   UNL     1      46.855   4.032  13.762  0.00  0.00    +0.000 C 
ENDROOT
BRANCH   1   6
ATOM      2  C   UNL     1      48.543   4.664  18.500  0.00  0.00    +0.000 A 
ATOM      3  C   UNL     1      48.401   3.502  17.751  0.00  0.00    +0.000 A 
ATOM      4  C   UNL     1      48.087   3.598  16.396  0.00  0.00    +0.000 A 
ATOM      5  C   UNL     1      47.894   4.848  15.815  0.00  0.00    +0.000 A 
ATOM      6  N   UNL     1      47.666   5.021  14.456  0.00  0.00    +0.000 N 
ATOM      7  N   UNL     1      47.992   5.981  16.538  0.00  0.00    +0.000 NA
ATOM      8  C   UNL     1      48.308   5.872  17.856  0.00  0.00    +0.000 A 
ATOM      9  H   UNL     1      47.402   5.994  14.322  0.00  0.00    +0.000 HD
BRANCH   2  11
ATOM     10  N   UNL     1      47.919   4.555  20.841  0.00  0.00    +0.000 N 
ATOM     11  C   UNL     1      48.929   4.651  19.923  0.00  0.00    +0.000 C 
ATOM     12  O   UNL     1      50.104   4.686  20.270  0.00  0.00    +0.000 OA
ATOM     13  H   UNL     1      48.201   4.441  21.807  0.00  0.00    +0.000 HD
ATOM     14  H   UNL     1      46.981   4.274  20.594  0.00  0.00    +0.000 HD
ENDBRANCH   2  11
ENDBRANCH   1   6
BRANCH   1  15
ATOM     15  C   UNL     1      45.361   4.335  13.919  0.00  0.00    +0.000 C 
BRANCH  15  16
ATOM     16  C   UNL     1      44.711   4.459  12.561  0.00  0.00    +0.000 A 
ATOM     17  C   UNL     1      43.689   5.386  12.337  0.00  0.00    +0.000 A 
ATOM     18  C   UNL     1      43.153   5.539  11.061  0.00  0.00    +0.000 A 
ATOM     19  C   UNL     1      43.659   4.793   9.994  0.00  0.00    +0.000 A 
ATOM     20  C   UNL     1      44.726   3.894  10.167  0.00  0.00    +0.000 A 
ATOM     21  C   UNL     1      45.211   3.719  11.477  0.00  0.00    +0.000 A 
BRANCH  20  22
ATOM     22  C   UNL     1      45.401   3.249   9.015  0.00  0.00    +0.000 A 
ATOM     23  C   UNL     1      45.971   4.028   7.991  0.00  0.00    +0.000 A 
ATOM     24  C   UNL     1      46.723   3.453   6.963  0.00  0.00    +0.000 A 
ATOM     25  C   UNL     1      46.927   2.078   6.938  0.00  0.00    +0.000 A 
ATOM     26  C   UNL     1      46.354   1.278   7.922  0.00  0.00    +0.000 A 
ATOM     27  C   UNL     1      45.589   1.856   8.941  0.00  0.00    +0.000 A 
ENDBRANCH  20  22
ENDBRANCH  15  16
ENDBRANCH   1  15
TORSDOF 5
ENDMDL
MODEL 8
REMARK VINA RESULT:    -6.548      4.075      6.603
REMARK INTER + INTRA:          -9.440
REMARK INTER:                  -8.087
REMARK INTRA:                  -1.354
REMARK UNBOUND:                -0.979
REMARK  Name = 
REMARK  5 active torsions:
REMARK  status: ('A' for Active; 'I' for Inactive)
REMARK    1  A    between atoms: C_2  and  C_4
REMARK    2  A    between atoms: N_8  and  C_9
REMARK    3  A    between atoms: C_9  and  C_10
REMARK    4  A    between atoms: C_10  and  C_11
REMARK    5  A    between atoms: C_15  and  C_16
REMARK                            x       y       z     vdW  Elec       q    Type
REMARK                         _______ _______ _______ _____ _____    ______ ____
ROOT
ATOM      1  C   UNL     1      48.380   8.864  14.082  0.00  0.00    +0.000 C 
ENDROOT
BRANCH   1   6
ATOM      2  C   UNL     1      45.507   5.064  12.349  0.00  0.00    +0.000 A 
ATOM      3  C   UNL     1      46.634   5.032  13.162  0.00  0.00    +0.000 A 
ATOM      4  C   UNL     1      47.150   6.228  13.661  0.00  0.00    +0.000 A 
ATOM      5  C   UNL     1      46.551   7.438  13.320  0.00  0.00    +0.000 A 
ATOM      6  N   UNL     1      46.958   8.655  13.849  0.00  0.00    +0.000 N 
ATOM      7  N   UNL     1      45.482   7.486  12.502  0.00  0.00    +0.000 NA
ATOM      8  C   UNL     1      44.984   6.311  12.032  0.00  0.00    +0.000 A 
ATOM      9  H   UNL     1      46.476   9.381  13.324  0.00  0.00    +0.000 HD
BRANCH   2  11
ATOM     10  N   UNL     1      45.055   2.690  12.541  0.00  0.00    +0.000 N 
ATOM     11  C   UNL     1      44.867   3.842  11.829  0.00  0.00    +0.000 C 
ATOM     12  O   UNL     1      44.165   3.863  10.825  0.00  0.00    +0.000 OA
ATOM     13  H   UNL     1      44.526   1.881  12.236  0.00  0.00    +0.000 HD
ATOM     14  H   UNL     1      45.406   2.684  13.488  0.00  0.00    +0.000 HD
ENDBRANCH   2  11
ENDBRANCH   1   6
BRANCH   1  15
ATOM     15  C   UNL     1      48.618   9.630  15.388  0.00  0.00    +0.000 C 
BRANCH  15  16
ATOM     16  C   UNL     1      48.508   8.692  16.567  0.00  0.00    +0.000 A 
ATOM     17  C   UNL     1      47.862   9.090  17.741  0.00  0.00    +0.000 A 
ATOM     18  C   UNL     1      47.704   8.189  18.790  0.00  0.00    +0.000 A 
ATOM     19  C   UNL     1      48.158   6.874  18.660  0.00  0.00    +0.000 A 
ATOM     20  C   UNL     1      48.759   6.420  17.473  0.00  0.00    +0.000 A 
ATOM     21  C   UNL     1      48.956   7.366  16.450  0.00  0.00    +0.000 A 
BRANCH  20  22
ATOM     22  C   UNL     1      49.063   4.986  17.248  0.00  0.00    +0.000 A 
ATOM     23  C   UNL     1      50.315   4.454  17.609  0.00  0.00    +0.000 A 
ATOM     24  C   UNL     1      50.582   3.085  17.528  0.00  0.00    +0.000 A 
ATOM     25  C   UNL     1      49.595   2.210  17.089  0.00  0.00    +0.000 A 
ATOM     26  C   UNL     1      48.355   2.708  16.701  0.00  0.00    +0.000 A 
ATOM     27  C   UNL     1      48.097   4.082  16.769  0.00  0.00    +0.000 A 
ENDBRANCH  20  22
ENDBRANCH  15  16
ENDBRANCH   1  15
TORSDOF 5
ENDMDL
MODEL 9
REMARK VINA RESULT:    -6.453      5.438      8.306
REMARK INTER + INTRA:          -9.318
REMARK INTER:                  -8.606
REMARK INTRA:                  -0.712
REMARK UNBOUND:                -0.979
REMARK  Name = 
REMARK  5 active torsions:
REMARK  status: ('A' for Active; 'I' for Inactive)
REMARK    1  A    between atoms: C_2  and  C_4
REMARK    2  A    between atoms: N_8  and  C_9
REMARK    3  A    between atoms: C_9  and  C_10
REMARK    4  A    between atoms: C_10  and  C_11
REMARK    5  A    between atoms: C_15  and  C_16
REMARK                            x       y       z     vdW  Elec       q    Type
REMARK                         _______ _______ _______ _____ _____    ______ ____
ROOT
ATOM      1  C   UNL     1      48.568   7.554  15.203  0.00  0.00    +0.000 C 
ENDROOT
BRANCH   1   6
ATOM      2  C   UNL     1      51.718   4.350  17.551  0.00  0.00    +0.000 A 
ATOM      3  C   UNL     1      51.938   5.644  17.094  0.00  0.00    +0.000 A 
ATOM      4  C   UNL     1      50.858   6.401  16.641  0.00  0.00    +0.000 A 
ATOM      5  C   UNL     1      49.580   5.848  16.626  0.00  0.00    +0.000 A 
ATOM      6  N   UNL     1      48.450   6.572  16.271  0.00  0.00    +0.000 N 
ATOM      7  N   UNL     1      49.358   4.583  17.032  0.00  0.00    +0.000 NA
ATOM      8  C   UNL     1      50.420   3.860  17.480  0.00  0.00    +0.000 A 
ATOM      9  H   UNL     1      47.686   5.905  16.188  0.00  0.00    +0.000 HD
BRANCH   2  11
ATOM     10  N   UNL     1      52.420   2.339  18.707  0.00  0.00    +0.000 N 
ATOM     11  C   UNL     1      52.794   3.506  18.099  0.00  0.00    +0.000 C 
ATOM     12  O   UNL     1      53.975   3.814  17.983  0.00  0.00    +0.000 OA
ATOM     13  H   UNL     1      53.171   1.717  18.985  0.00  0.00    +0.000 HD
ATOM     14  H   UNL     1      51.500   1.936  18.599  0.00  0.00    +0.000 HD
ENDBRANCH   2  11
ENDBRANCH   1   6
BRANCH   1  15
ATOM     15  C   UNL     1      48.600   6.874  13.830  0.00  0.00    +0.000 C 
BRANCH  15  16
ATOM     16  C   UNL     1      47.257   7.010  13.151  0.00  0.00    +0.000 A 
ATOM     17  C   UNL     1      46.547   8.214  13.203  0.00  0.00    +0.000 A 
ATOM     18  C   UNL     1      45.348   8.346  12.510  0.00  0.00    +0.000 A 
ATOM     19  C   UNL     1      44.867   7.290  11.730  0.00  0.00    +0.000 A 
ATOM     20  C   UNL     1      45.583   6.087  11.605  0.00  0.00    +0.000 A 
ATOM     21  C   UNL     1      46.764   5.960  12.361  0.00  0.00    +0.000 A 
BRANCH  20  22
ATOM     22  C   UNL     1      45.190   5.040  10.630  0.00  0.00    +0.000 A 
ATOM     23  C   UNL     1      45.609   5.118   9.289  0.00  0.00    +0.000 A 
ATOM     24  C   UNL     1      45.362   4.084   8.382  0.00  0.00    +0.000 A 
ATOM     25  C   UNL     1      44.692   2.940   8.799  0.00  0.00    +0.000 A 
ATOM     26  C   UNL     1      44.243   2.845  10.112  0.00  0.00    +0.000 A 
ATOM     27  C   UNL     1      44.479   3.889  11.014  0.00  0.00    +0.000 A 
ENDBRANCH  20  22
ENDBRANCH  15  16
ENDBRANCH   1  15
TORSDOF 5
ENDMDL
