MODEL 1
REMARK VINA RESULT:    -7.018      0.000      0.000
REMARK INTER + INTRA:         -10.551
REMARK INTER:                  -9.890
REMARK INTRA:                  -0.661
REMARK UNBOUND:                -0.661
REMARK  Name = 
REMARK  8 active torsions:
REMARK  status: ('A' for Active; 'I' for Inactive)
REMARK    1  A    between atoms: C_1  and  C_2
REMARK    2  A    between atoms: C_2  and  O_3
REMARK    3  A    between atoms: C_2  and  C_21
REMARK    4  A    between atoms: O_3  and  C_4
REMARK    5  A    between atoms: C_7  and  C_8
REMARK    6  A    between atoms: C_12  and  S_13
REMARK    7  A    between atoms: S_13  and  C_14
REMARK    8  A    between atoms: C_14  and  C_15
REMARK                            x       y       z     vdW  Elec       q    Type
REMARK                         _______ _______ _______ _____ _____    ______ ____
ROOT
ATOM      1  C   UNL     1      45.800   7.078  12.065  0.00  0.00    +0.000 A 
ATOM      2  C   UNL     1      47.018   7.155  12.709  0.00  0.00    +0.000 A 
ATOM      3  N   UNL     1      47.473   6.246  13.594  0.00  0.00    +0.000 NA
ATOM      4  C   UNL     1      46.661   5.200  13.825  0.00  0.00    +0.000 A 
ATOM      5  N   UNL     1      45.481   4.979  13.216  0.00  0.00    +0.000 NA
ATOM      6  C   UNL     1      45.065   5.921  12.328  0.00  0.00    +0.000 A 
ENDROOT
BRANCH   4   7
ATOM      7  C   UNL     1      47.099   4.208  14.884  0.00  0.00    +0.000 C 
ATOM      8  N   UNL     1      47.072   4.663  16.183  0.00  0.00    +0.000 N 
ATOM      9  O   UNL     1      47.472   3.062  14.640  0.00  0.00    +0.000 OA
ATOM     10  H   UNL     1      46.809   5.620  16.393  0.00  0.00    +0.000 HD
ATOM     11  H   UNL     1      47.399   4.053  16.920  0.00  0.00    +0.000 HD
ENDBRANCH   4   7
BRANCH   1  12
ATOM     12  O   UNL     1      45.317   8.031  11.214  0.00  0.00    +0.000 OA
BRANCH  12  14
ATOM     13  C   UNL     1      45.830  10.291  11.791  0.00  0.00    +0.000 C 
ATOM     14  C   UNL     1      44.727   9.229  11.759  0.00  0.00    +0.000 C 
BRANCH  14  15
ATOM     15  C   UNL     1      43.494   9.725  10.977  0.00  0.00    +0.000 C 
ATOM     16  F   UNL     1      42.627   8.733  10.679  0.00  0.00    +0.000 F 
ATOM     17  F   UNL     1      42.807  10.678  11.644  0.00  0.00    +0.000 F 
ATOM     18  F   UNL     1      43.895  10.271   9.804  0.00  0.00    +0.000 F 
ENDBRANCH  14  15
ENDBRANCH  12  14
ENDBRANCH   1  12
BRANCH   6  19
ATOM     19  S   UNL     1      43.439   5.548  11.668  0.00  0.00    +0.000 S 
BRANCH  19  20
ATOM     20  C   UNL     1      43.509   3.761  11.283  0.00  0.00    +0.000 C 
BRANCH  20  21
ATOM     21  C   UNL     1      44.367   3.459  10.072  0.00  0.00    +0.000 A 
ATOM     22  C   UNL     1      44.871   4.480   9.270  0.00  0.00    +0.000 A 
ATOM     23  C   UNL     1      45.653   4.146   8.164  0.00  0.00    +0.000 A 
ATOM     24  C   UNL     1      45.900   2.810   7.884  0.00  0.00    +0.000 A 
ATOM     25  C   UNL     1      45.353   1.853   8.719  0.00  0.00    +0.000 A 
ATOM     26  N   UNL     1      44.594   2.146   9.798  0.00  0.00    +0.000 NA
ENDBRANCH  20  21
ENDBRANCH  19  20
ENDBRANCH   6  19
TORSDOF 7
ENDMDL
MODEL 2
REMARK VINA RESULT:    -6.915      1.577      1.961
REMARK INTER + INTRA:         -10.406
REMARK INTER:                  -9.471
REMARK INTRA:                  -0.935
REMARK UNBOUND:                -0.661
REMARK  Name = 
REMARK  8 active torsions:
REMARK  status: ('A' for Active; 'I' for Inactive)
REMARK    1  A    between atoms: C_1  and  C_2
REMARK    2  A    between atoms: C_2  and  O_3
REMARK    3  A    between atoms: C_2  and  C_21
REMARK    4  A    between atoms: O_3  and  C_4
REMARK    5  A    between atoms: C_7  and  C_8
REMARK    6  A    between atoms: C_12  and  S_13
REMARK    7  A    between atoms: S_13  and  C_14
REMARK    8  A    between atoms: C_14  and  C_15
REMARK                            x       y       z     vdW  Elec       q    Type
REMARK                         _______ _______ _______ _____ _____    ______ ____
ROOT
ATOM      1  C   UNL     1      46.897   6.170  13.301  0.00  0.00    +0.000 A 
ATOM      2  C   UNL     1      48.051   6.134  14.058  0.00  0.00    +0.000 A 
ATOM      3  N   UNL     1      48.257   5.302  15.098  0.00  0.00    +0.000 NA
ATOM      4  C   UNL     1      47.252   4.453  15.374  0.00  0.00    +0.000 A 
ATOM      5  N   UNL     1      46.107   4.347  14.675  0.00  0.00    +0.000 NA
ATOM      6  C   UNL     1      45.945   5.204  13.632  0.00  0.00    +0.000 A 
ENDROOT
BRANCH   4   7
ATOM      7  C   UNL     1      47.413   3.569  16.595  0.00  0.00    +0.000 C 
ATOM      8  N   UNL     1      48.693   3.142  16.865  0.00  0.00    +0.000 N 
ATOM      9  O   UNL     1      46.481   3.224  17.320  0.00  0.00    +0.000 OA
ATOM     10  H   UNL     1      49.462   3.383  16.250  0.00  0.00    +0.000 HD
ATOM     11  H   UNL     1      48.842   2.513  17.643  0.00  0.00    +0.000 HD
ENDBRANCH   4   7
BRANCH   1  12
ATOM     12  O   UNL     1      46.668   7.054  12.287  0.00  0.00    +0.000 OA
BRANCH  12  14
ATOM     13  C   UNL     1      47.763   9.171  12.140  0.00  0.00    +0.000 C 
ATOM     14  C   UNL     1      46.491   8.452  12.597  0.00  0.00    +0.000 C 
BRANCH  14  15
ATOM     15  C   UNL     1      45.234   9.075  11.956  0.00  0.00    +0.000 C 
ATOM     16  F   UNL     1      45.525  10.018  11.034  0.00  0.00    +0.000 F 
ATOM     17  F   UNL     1      44.447   8.152  11.359  0.00  0.00    +0.000 F 
ATOM     18  F   UNL     1      44.488   9.671  12.917  0.00  0.00    +0.000 F 
ENDBRANCH  14  15
ENDBRANCH  12  14
ENDBRANCH   1  12
BRANCH   6  19
ATOM     19  S   UNL     1      44.339   5.017  12.854  0.00  0.00    +0.000 S 
BRANCH  19  20
ATOM     20  C   UNL     1      44.428   3.388  12.025  0.00  0.00    +0.000 C 
BRANCH  20  21
ATOM     21  C   UNL     1      44.832   3.497  10.570  0.00  0.00    +0.000 A 
ATOM     22  C   UNL     1      45.255   4.708  10.024  0.00  0.00    +0.000 A 
ATOM     23  C   UNL     1      45.613   4.753   8.677  0.00  0.00    +0.000 A 
ATOM     24  C   UNL     1      45.529   3.599   7.912  0.00  0.00    +0.000 A 
ATOM     25  C   UNL     1      45.087   2.440   8.521  0.00  0.00    +0.000 A 
ATOM     26  N   UNL     1      44.735   2.364   9.823  0.00  0.00    +0.000 NA
ENDBRANCH  20  21
ENDBRANCH  19  20
ENDBRANCH   6  19
TORSDOF 7
ENDMDL
MODEL 3
REMARK VINA RESULT:    -6.584      3.053      5.796
REMARK INTER + INTRA:          -9.940
REMARK INTER:                  -9.074
REMARK INTRA:                  -0.866
REMARK UNBOUND:                -0.661
REMARK  Name = 
REMARK  8 active torsions:
REMARK  status: ('A' for Active; 'I' for Inactive)
REMARK    1  A    between atoms: C_1  and  C_2
REMARK    2  A    between atoms: C_2  and  O_3
REMARK    3  A    between atoms: C_2  and  C_21
REMARK    4  A    between atoms: O_3  and  C_4
REMARK    5  A    between atoms: C_7  and  C_8
REMARK    6  A    between atoms: C_12  and  S_13
REMARK    7  A    between atoms: S_13  and  C_14
REMARK    8  A    between atoms: C_14  and  C_15
REMARK                            x       y       z     vdW  Elec       q    Type
REMARK                         _______ _______ _______ _____ _____    ______ ____
ROOT
ATOM      1  C   UNL     1      45.290   4.148  11.714  0.00  0.00    +0.000 A 
ATOM      2  C   UNL     1      45.741   3.110  12.504  0.00  0.00    +0.000 A 
ATOM      3  N   UNL     1      46.395   3.267  13.672  0.00  0.00    +0.000 NA
ATOM      4  C   UNL     1      46.586   4.537  14.068  0.00  0.00    +0.000 A 
ATOM      5  N   UNL     1      46.141   5.631  13.420  0.00  0.00    +0.000 NA
ATOM      6  C   UNL     1      45.485   5.423  12.248  0.00  0.00    +0.000 A 
ENDROOT
BRANCH   4   7
ATOM      7  C   UNL     1      47.400   4.752  15.328  0.00  0.00    +0.000 C 
ATOM      8  N   UNL     1      47.109   3.917  16.383  0.00  0.00    +0.000 N 
ATOM      9  O   UNL     1      48.270   5.613  15.446  0.00  0.00    +0.000 OA
ATOM     10  H   UNL     1      46.364   3.232  16.313  0.00  0.00    +0.000 HD
ATOM     11  H   UNL     1      47.594   4.052  17.260  0.00  0.00    +0.000 HD
ENDBRANCH   4   7
BRANCH   1  12
ATOM     12  O   UNL     1      44.681   3.986  10.504  0.00  0.00    +0.000 OA
BRANCH  12  14
ATOM     13  C   UNL     1      44.331   2.029   9.180  0.00  0.00    +0.000 C 
ATOM     14  C   UNL     1      45.312   3.160   9.502  0.00  0.00    +0.000 C 
BRANCH  14  15
ATOM     15  C   UNL     1      45.719   3.930   8.230  0.00  0.00    +0.000 C 
ATOM     16  F   UNL     1      45.993   5.231   8.467  0.00  0.00    +0.000 F 
ATOM     17  F   UNL     1      46.800   3.391   7.623  0.00  0.00    +0.000 F 
ATOM     18  F   UNL     1      44.701   3.892   7.336  0.00  0.00    +0.000 F 
ENDBRANCH  14  15
ENDBRANCH  12  14
ENDBRANCH   1  12
BRANCH   6  19
ATOM     19  S   UNL     1      45.036   6.965  11.449  0.00  0.00    +0.000 S 
BRANCH  19  20
ATOM     20  C   UNL     1      45.517   8.254  12.655  0.00  0.00    +0.000 C 
BRANCH  20  21
ATOM     21  C   UNL     1      46.659   9.117  12.161  0.00  0.00    +0.000 A 
ATOM     22  C   UNL     1      47.957   8.619  12.072  0.00  0.00    +0.000 A 
ATOM     23  C   UNL     1      48.973   9.458  11.613  0.00  0.00    +0.000 A 
ATOM     24  C   UNL     1      48.670  10.767  11.268  0.00  0.00    +0.000 A 
ATOM     25  C   UNL     1      47.361  11.192  11.397  0.00  0.00    +0.000 A 
ATOM     26  N   UNL     1      46.356  10.403  11.836  0.00  0.00    +0.000 NA
ENDBRANCH  20  21
ENDBRANCH  19  20
ENDBRANCH   6  19
TORSDOF 7
ENDMDL
MODEL 4
REMARK VINA RESULT:    -6.393      2.958      5.351
REMARK INTER + INTRA:          -9.671
REMARK INTER:                  -8.888
REMARK INTRA:                  -0.783
REMARK UNBOUND:                -0.661
REMARK  Name = 
REMARK  8 active torsions:
REMARK  status: ('A' for Active; 'I' for Inactive)
REMARK    1  A    between atoms: C_1  and  C_2
REMARK    2  A    between atoms: C_2  and  O_3
REMARK    3  A    between atoms: C_2  and  C_21
REMARK    4  A    between atoms: O_3  and  C_4
REMARK    5  A    between atoms: C_7  and  C_8
REMARK    6  A    between atoms: C_12  and  S_13
REMARK    7  A    between atoms: S_13  and  C_14
REMARK    8  A    between atoms: C_14  and  C_15
REMARK                            x       y       z     vdW  Elec       q    Type
REMARK                         _______ _______ _______ _____ _____    ______ ____
ROOT
ATOM      1  C   UNL     1      46.219   5.287  12.433  0.00  0.00    +0.000 A 
ATOM      2  C   UNL     1      45.764   4.278  13.258  0.00  0.00    +0.000 A 
ATOM      3  N   UNL     1      46.259   4.012  14.483  0.00  0.00    +0.000 NA
ATOM      4  C   UNL     1      47.252   4.817  14.899  0.00  0.00    +0.000 A 
ATOM      5  N   UNL     1      47.739   5.870  14.216  0.00  0.00    +0.000 NA
ATOM      6  C   UNL     1      47.206   6.102  12.987  0.00  0.00    +0.000 A 
ENDROOT
BRANCH   4   7
ATOM      7  C   UNL     1      47.895   4.487  16.231  0.00  0.00    +0.000 C 
ATOM      8  N   UNL     1      47.547   5.300  17.286  0.00  0.00    +0.000 N 
ATOM      9  O   UNL     1      48.691   3.565  16.399  0.00  0.00    +0.000 OA
ATOM     10  H   UNL     1      46.927   6.091  17.150  0.00  0.00    +0.000 HD
ATOM     11  H   UNL     1      47.986   5.147  18.184  0.00  0.00    +0.000 HD
ENDBRANCH   4   7
BRANCH   1  12
ATOM     12  O   UNL     1      45.754   5.516  11.170  0.00  0.00    +0.000 OA
BRANCH  12  14
ATOM     13  C   UNL     1      43.444   5.151  10.685  0.00  0.00    +0.000 C 
ATOM     14  C   UNL     1      44.853   4.563  10.567  0.00  0.00    +0.000 C 
BRANCH  14  15
ATOM     15  C   UNL     1      45.199   4.224   9.103  0.00  0.00    +0.000 C 
ATOM     16  F   UNL     1      44.137   4.323   8.274  0.00  0.00    +0.000 F 
ATOM     17  F   UNL     1      46.176   5.015   8.605  0.00  0.00    +0.000 F 
ATOM     18  F   UNL     1      45.646   2.947   9.030  0.00  0.00    +0.000 F 
ENDBRANCH  14  15
ENDBRANCH  12  14
ENDBRANCH   1  12
BRANCH   6  19
ATOM     19  S   UNL     1      48.014   7.471  12.154  0.00  0.00    +0.000 S 
BRANCH  19  20
ATOM     20  C   UNL     1      47.295   8.960  12.936  0.00  0.00    +0.000 C 
BRANCH  20  21
ATOM     21  C   UNL     1      46.189   9.578  12.106  0.00  0.00    +0.000 A 
ATOM     22  C   UNL     1      46.235  10.916  11.719  0.00  0.00    +0.000 A 
ATOM     23  C   UNL     1      45.188  11.436  10.958  0.00  0.00    +0.000 A 
ATOM     24  C   UNL     1      44.125  10.614  10.614  0.00  0.00    +0.000 A 
ATOM     25  C   UNL     1      44.144   9.302  11.047  0.00  0.00    +0.000 A 
ATOM     26  N   UNL     1      45.144   8.770  11.784  0.00  0.00    +0.000 NA
ENDBRANCH  20  21
ENDBRANCH  19  20
ENDBRANCH   6  19
TORSDOF 7
ENDMDL
MODEL 5
REMARK VINA RESULT:    -6.280      3.376      4.973
REMARK INTER + INTRA:          -9.511
REMARK INTER:                  -8.754
REMARK INTRA:                  -0.757
REMARK UNBOUND:                -0.661
REMARK  Name = 
REMARK  8 active torsions:
REMARK  status: ('A' for Active; 'I' for Inactive)
REMARK    1  A    between atoms: C_1  and  C_2
REMARK    2  A    between atoms: C_2  and  O_3
REMARK    3  A    between atoms: C_2  and  C_21
REMARK    4  A    between atoms: O_3  and  C_4
REMARK    5  A    between atoms: C_7  and  C_8
REMARK    6  A    between atoms: C_12  and  S_13
REMARK    7  A    between atoms: S_13  and  C_14
REMARK    8  A    between atoms: C_14  and  C_15
REMARK                            x       y       z     vdW  Elec       q    Type
REMARK                         _______ _______ _______ _____ _____    ______ ____
ROOT
ATOM      1  C   UNL     1      46.059   7.736  12.581  0.00  0.00    +0.000 A 
ATOM      2  C   UNL     1      45.888   9.106  12.561  0.00  0.00    +0.000 A 
ATOM      3  N   UNL     1      44.867   9.739  11.951  0.00  0.00    +0.000 NA
ATOM      4  C   UNL     1      43.966   8.946  11.347  0.00  0.00    +0.000 A 
ATOM      5  N   UNL     1      43.986   7.600  11.349  0.00  0.00    +0.000 NA
ATOM      6  C   UNL     1      45.034   7.006  11.979  0.00  0.00    +0.000 A 
ENDROOT
BRANCH   4   7
ATOM      7  C   UNL     1      42.857   9.629  10.571  0.00  0.00    +0.000 C 
ATOM      8  N   UNL     1      41.577   9.405  11.027  0.00  0.00    +0.000 N 
ATOM      9  O   UNL     1      43.045  10.340   9.586  0.00  0.00    +0.000 OA
ATOM     10  H   UNL     1      41.406   8.785  11.811  0.00  0.00    +0.000 HD
ATOM     11  H   UNL     1      40.801   9.802  10.514  0.00  0.00    +0.000 HD
ENDBRANCH   4   7
BRANCH   1  12
ATOM     12  O   UNL     1      47.126   7.102  13.149  0.00  0.00    +0.000 OA
BRANCH  12  14
ATOM     13  C   UNL     1      48.803   7.281  14.840  0.00  0.00    +0.000 C 
ATOM     14  C   UNL     1      48.285   7.874  13.527  0.00  0.00    +0.000 C 
BRANCH  14  15
ATOM     15  C   UNL     1      49.390   7.901  12.451  0.00  0.00    +0.000 C 
ATOM     16  F   UNL     1      49.774   6.667  12.058  0.00  0.00    +0.000 F 
ATOM     17  F   UNL     1      49.016   8.581  11.343  0.00  0.00    +0.000 F 
ATOM     18  F   UNL     1      50.486   8.523  12.947  0.00  0.00    +0.000 F 
ENDBRANCH  14  15
ENDBRANCH  12  14
ENDBRANCH   1  12
BRANCH   6  19
ATOM     19  S   UNL     1      44.984   5.219  11.821  0.00  0.00    +0.000 S 
BRANCH  19  20
ATOM     20  C   UNL     1      44.148   4.932  10.219  0.00  0.00    +0.000 C 
BRANCH  20  21
ATOM     21  C   UNL     1      44.928   4.002   9.313  0.00  0.00    +0.000 A 
ATOM     22  C   UNL     1      44.928   2.624   9.517  0.00  0.00    +0.000 A 
ATOM     23  C   UNL     1      45.667   1.814   8.655  0.00  0.00    +0.000 A 
ATOM     24  C   UNL     1      46.391   2.398   7.626  0.00  0.00    +0.000 A 
ATOM     25  C   UNL     1      46.352   3.774   7.496  0.00  0.00    +0.000 A 
ATOM     26  N   UNL     1      45.645   4.584   8.314  0.00  0.00    +0.000 NA
ENDBRANCH  20  21
ENDBRANCH  19  20
ENDBRANCH   6  19
TORSDOF 7
ENDMDL
MODEL 6
REMARK VINA RESULT:    -6.209      3.252      6.256
REMARK INTER + INTRA:          -9.411
REMARK INTER:                  -8.610
REMARK INTRA:                  -0.801
REMARK UNBOUND:                -0.661
REMARK  Name = 
REMARK  8 active torsions:
REMARK  status: ('A' for Active; 'I' for Inactive)
REMARK    1  A    between atoms: C_1  and  C_2
REMARK    2  A    between atoms: C_2  and  O_3
REMARK    3  A    between atoms: C_2  and  C_21
REMARK    4  A    between atoms: O_3  and  C_4
REMARK    5  A    between atoms: C_7  and  C_8
REMARK    6  A    between atoms: C_12  and  S_13
REMARK    7  A    between atoms: S_13  and  C_14
REMARK    8  A    between atoms: C_14  and  C_15
REMARK                            x       y       z     vdW  Elec       q    Type
REMARK                         _______ _______ _______ _____ _____    ______ ____
ROOT
ATOM      1  C   UNL     1      46.335   5.681  12.227  0.00  0.00    +0.000 A 
ATOM      2  C   UNL     1      46.456   6.975  11.762  0.00  0.00    +0.000 A 
ATOM      3  N   UNL     1      47.079   7.970  12.423  0.00  0.00    +0.000 NA
ATOM      4  C   UNL     1      47.622   7.634  13.606  0.00  0.00    +0.000 A 
ATOM      5  N   UNL     1      47.626   6.397  14.138  0.00  0.00    +0.000 NA
ATOM      6  C   UNL     1      46.989   5.425  13.434  0.00  0.00    +0.000 A 
ENDROOT
BRANCH   4   7
ATOM      7  C   UNL     1      48.247   8.749  14.419  0.00  0.00    +0.000 C 
ATOM      8  N   UNL     1      47.554   9.138  15.543  0.00  0.00    +0.000 N 
ATOM      9  O   UNL     1      49.303   9.306  14.123  0.00  0.00    +0.000 OA
ATOM     10  H   UNL     1      46.660   8.718  15.773  0.00  0.00    +0.000 HD
ATOM     11  H   UNL     1      47.909   9.910  16.092  0.00  0.00    +0.000 HD
ENDBRANCH   4   7
BRANCH   1  12
ATOM     12  O   UNL     1      45.653   4.691  11.582  0.00  0.00    +0.000 OA
BRANCH  12  14
ATOM     13  C   UNL     1      44.290   4.414   9.640  0.00  0.00    +0.000 C 
ATOM     14  C   UNL     1      44.332   4.965  11.068  0.00  0.00    +0.000 C 
BRANCH  14  15
ATOM     15  C   UNL     1      43.197   4.377  11.930  0.00  0.00    +0.000 C 
ATOM     16  F   UNL     1      42.878   3.110  11.588  0.00  0.00    +0.000 F 
ATOM     17  F   UNL     1      43.496   4.378  13.249  0.00  0.00    +0.000 F 
ATOM     18  F   UNL     1      42.080   5.127  11.776  0.00  0.00    +0.000 F 
ENDBRANCH  14  15
ENDBRANCH  12  14
ENDBRANCH   1  12
BRANCH   6  19
ATOM     19  S   UNL     1      46.990   3.856  14.304  0.00  0.00    +0.000 S 
BRANCH  19  20
ATOM     20  C   UNL     1      47.235   4.314  16.058  0.00  0.00    +0.000 C 
BRANCH  20  21
ATOM     21  C   UNL     1      48.572   3.852  16.600  0.00  0.00    +0.000 A 
ATOM     22  C   UNL     1      48.871   2.498  16.729  0.00  0.00    +0.000 A 
ATOM     23  C   UNL     1      50.116   2.127  17.237  0.00  0.00    +0.000 A 
ATOM     24  C   UNL     1      51.019   3.111  17.611  0.00  0.00    +0.000 A 
ATOM     25  C   UNL     1      50.644   4.434  17.466  0.00  0.00    +0.000 A 
ATOM     26  N   UNL     1      49.446   4.824  16.975  0.00  0.00    +0.000 NA
ENDBRANCH  20  21
ENDBRANCH  19  20
ENDBRANCH   6  19
TORSDOF 7
ENDMDL
MODEL 7
REMARK VINA RESULT:    -6.198      3.025      5.815
REMARK INTER + INTRA:          -9.396
REMARK INTER:                  -8.619
REMARK INTRA:                  -0.777
REMARK UNBOUND:                -0.661
REMARK  Name = 
REMARK  8 active torsions:
REMARK  status: ('A' for Active; 'I' for Inactive)
REMARK    1  A    between atoms: C_1  and  C_2
REMARK    2  A    between atoms: C_2  and  O_3
REMARK    3  A    between atoms: C_2  and  C_21
REMARK    4  A    between atoms: O_3  and  C_4
REMARK    5  A    between atoms: C_7  and  C_8
REMARK    6  A    between atoms: C_12  and  S_13
REMARK    7  A    between atoms: S_13  and  C_14
REMARK    8  A    between atoms: C_14  and  C_15
REMARK                            x       y       z     vdW  Elec       q    Type
REMARK                         _______ _______ _______ _____ _____    ______ ____
ROOT
ATOM      1  C   UNL     1      45.148   6.668  12.475  0.00  0.00    +0.000 A 
ATOM      2  C   UNL     1      44.080   6.518  11.614  0.00  0.00    +0.000 A 
ATOM      3  N   UNL     1      43.613   5.332  11.175  0.00  0.00    +0.000 NA
ATOM      4  C   UNL     1      44.248   4.245  11.645  0.00  0.00    +0.000 A 
ATOM      5  N   UNL     1      45.258   4.256  12.535  0.00  0.00    +0.000 NA
ATOM      6  C   UNL     1      45.693   5.475  12.952  0.00  0.00    +0.000 A 
ENDROOT
BRANCH   4   7
ATOM      7  C   UNL     1      43.810   2.901  11.099  0.00  0.00    +0.000 C 
ATOM      8  N   UNL     1      44.476   2.460   9.978  0.00  0.00    +0.000 N 
ATOM      9  O   UNL     1      42.913   2.219  11.592  0.00  0.00    +0.000 OA
ATOM     10  H   UNL     1      45.186   3.033   9.537  0.00  0.00    +0.000 HD
ATOM     11  H   UNL     1      44.187   1.590   9.550  0.00  0.00    +0.000 HD
ENDBRANCH   4   7
BRANCH   1  12
ATOM     12  O   UNL     1      45.655   7.872  12.871  0.00  0.00    +0.000 OA
BRANCH  12  14
ATOM     13  C   UNL     1      45.653  10.084  11.970  0.00  0.00    +0.000 C 
ATOM     14  C   UNL     1      46.322   8.708  11.903  0.00  0.00    +0.000 C 
BRANCH  14  15
ATOM     15  C   UNL     1      47.845   8.814  12.119  0.00  0.00    +0.000 C 
ATOM     16  F   UNL     1      48.219   8.514  13.382  0.00  0.00    +0.000 F 
ATOM     17  F   UNL     1      48.543   8.010  11.287  0.00  0.00    +0.000 F 
ATOM     18  F   UNL     1      48.247  10.084  11.874  0.00  0.00    +0.000 F 
ENDBRANCH  14  15
ENDBRANCH  12  14
ENDBRANCH   1  12
BRANCH   6  19
ATOM     19  S   UNL     1      47.101   5.342  14.057  0.00  0.00    +0.000 S 
BRANCH  19  20
ATOM     20  C   UNL     1      47.051   3.610  14.643  0.00  0.00    +0.000 C 
BRANCH  20  21
ATOM     21  C   UNL     1      47.769   3.421  15.963  0.00  0.00    +0.000 A 
ATOM     22  C   UNL     1      47.422   4.165  17.089  0.00  0.00    +0.000 A 
ATOM     23  C   UNL     1      48.118   3.954  18.280  0.00  0.00    +0.000 A 
ATOM     24  C   UNL     1      49.144   3.021  18.311  0.00  0.00    +0.000 A 
ATOM     25  C   UNL     1      49.440   2.332  17.149  0.00  0.00    +0.000 A 
ATOM     26  N   UNL     1      48.782   2.514  15.982  0.00  0.00    +0.000 NA
ENDBRANCH  20  21
ENDBRANCH  19  20
ENDBRANCH   6  19
TORSDOF 7
ENDMDL
MODEL 8
REMARK VINA RESULT:    -6.088      3.461      5.832
REMARK INTER + INTRA:          -9.241
REMARK INTER:                  -8.484
REMARK INTRA:                  -0.757
REMARK UNBOUND:                -0.661
REMARK  Name = 
REMARK  8 active torsions:
REMARK  status: ('A' for Active; 'I' for Inactive)
REMARK    1  A    between atoms: C_1  and  C_2
REMARK    2  A    between atoms: C_2  and  O_3
REMARK    3  A    between atoms: C_2  and  C_21
REMARK    4  A    between atoms: O_3  and  C_4
REMARK    5  A    between atoms: C_7  and  C_8
REMARK    6  A    between atoms: C_12  and  S_13
REMARK    7  A    between atoms: S_13  and  C_14
REMARK    8  A    between atoms: C_14  and  C_15
REMARK                            x       y       z     vdW  Elec       q    Type
REMARK                         _______ _______ _______ _____ _____    ______ ____
ROOT
ATOM      1  C   UNL     1      46.156   5.164  12.408  0.00  0.00    +0.000 A 
ATOM      2  C   UNL     1      45.967   3.963  13.061  0.00  0.00    +0.000 A 
ATOM      3  N   UNL     1      46.468   3.667  14.277  0.00  0.00    +0.000 NA
ATOM      4  C   UNL     1      47.180   4.642  14.867  0.00  0.00    +0.000 A 
ATOM      5  N   UNL     1      47.383   5.873  14.364  0.00  0.00    +0.000 NA
ATOM      6  C   UNL     1      46.856   6.127  13.136  0.00  0.00    +0.000 A 
ENDROOT
BRANCH   4   7
ATOM      7  C   UNL     1      47.837   4.309  16.193  0.00  0.00    +0.000 C 
ATOM      8  N   UNL     1      47.113   3.498  17.037  0.00  0.00    +0.000 N 
ATOM      9  O   UNL     1      48.942   4.726  16.535  0.00  0.00    +0.000 OA
ATOM     10  H   UNL     1      46.182   3.185  16.785  0.00  0.00    +0.000 HD
ATOM     11  H   UNL     1      47.490   3.287  17.951  0.00  0.00    +0.000 HD
ENDBRANCH   4   7
BRANCH   1  12
ATOM     12  O   UNL     1      45.697   5.438  11.152  0.00  0.00    +0.000 OA
BRANCH  12  14
ATOM     13  C   UNL     1      43.403   5.038  10.621  0.00  0.00    +0.000 C 
ATOM     14  C   UNL     1      44.828   4.491  10.497  0.00  0.00    +0.000 C 
BRANCH  14  15
ATOM     15  C   UNL     1      45.200   4.224   9.025  0.00  0.00    +0.000 C 
ATOM     16  F   UNL     1      46.117   5.093   8.547  0.00  0.00    +0.000 F 
ATOM     17  F   UNL     1      45.685   2.976   8.832  0.00  0.00    +0.000 F 
ATOM     18  F   UNL     1      44.094   4.344   8.252  0.00  0.00    +0.000 F 
ENDBRANCH  14  15
ENDBRANCH  12  14
ENDBRANCH   1  12
BRANCH   6  19
ATOM     19  S   UNL     1      47.285   7.768  12.549  0.00  0.00    +0.000 S 
BRANCH  19  20
ATOM     20  C   UNL     1      48.730   8.246  13.564  0.00  0.00    +0.000 C 
BRANCH  20  21
ATOM     21  C   UNL     1      50.026   8.220  12.781  0.00  0.00    +0.000 A 
ATOM     22  C   UNL     1      50.073   7.736  11.475  0.00  0.00    +0.000 A 
ATOM     23  C   UNL     1      51.294   7.731  10.800  0.00  0.00    +0.000 A 
ATOM     24  C   UNL     1      52.430   8.195  11.447  0.00  0.00    +0.000 A 
ATOM     25  C   UNL     1      52.306   8.646  12.748  0.00  0.00    +0.000 A 
ATOM     26  N   UNL     1      51.137   8.664  13.427  0.00  0.00    +0.000 NA
ENDBRANCH  20  21
ENDBRANCH  19  20
ENDBRANCH   6  19
TORSDOF 7
ENDMDL
MODEL 9
REMARK VINA RESULT:    -5.810      3.149      5.698
REMARK INTER + INTRA:          -8.849
REMARK INTER:                  -8.098
REMARK INTRA:                  -0.751
REMARK UNBOUND:                -0.661
REMARK  Name = 
REMARK  8 active torsions:
REMARK  status: ('A' for Active; 'I' for Inactive)
REMARK    1  A    between atoms: C_1  and  C_2
REMARK    2  A    between atoms: C_2  and  O_3
REMARK    3  A    between atoms: C_2  and  C_21
REMARK    4  A    between atoms: O_3  and  C_4
REMARK    5  A    between atoms: C_7  and  C_8
REMARK    6  A    between atoms: C_12  and  S_13
REMARK    7  A    between atoms: S_13  and  C_14
REMARK    8  A    between atoms: C_14  and  C_15
REMARK                            x       y       z     vdW  Elec       q    Type
REMARK                         _______ _______ _______ _____ _____    ______ ____
ROOT
ATOM      1  C   UNL     1      46.947   5.097  13.200  0.00  0.00    +0.000 A 
ATOM      2  C   UNL     1      46.758   3.770  13.530  0.00  0.00    +0.000 A 
ATOM      3  N   UNL     1      47.170   3.203  14.681  0.00  0.00    +0.000 NA
ATOM      4  C   UNL     1      47.789   4.024  15.547  0.00  0.00    +0.000 A 
ATOM      5  N   UNL     1      47.978   5.345  15.370  0.00  0.00    +0.000 NA
ATOM      6  C   UNL     1      47.542   5.873  14.195  0.00  0.00    +0.000 A 
ENDROOT
BRANCH   4   7
ATOM      7  C   UNL     1      48.348   3.399  16.809  0.00  0.00    +0.000 C 
ATOM      8  N   UNL     1      47.439   3.147  17.811  0.00  0.00    +0.000 N 
ATOM      9  O   UNL     1      49.537   3.127  16.972  0.00  0.00    +0.000 OA
ATOM     10  H   UNL     1      46.465   3.407  17.706  0.00  0.00    +0.000 HD
ATOM     11  H   UNL     1      47.773   2.773  18.689  0.00  0.00    +0.000 HD
ENDBRANCH   4   7
BRANCH   1  12
ATOM     12  O   UNL     1      46.581   5.654  12.008  0.00  0.00    +0.000 OA
BRANCH  12  14
ATOM     13  C   UNL     1      44.752   7.073  11.420  0.00  0.00    +0.000 C 
ATOM     14  C   UNL     1      45.194   5.619  11.612  0.00  0.00    +0.000 C 
BRANCH  14  15
ATOM     15  C   UNL     1      44.932   4.782  10.344  0.00  0.00    +0.000 C 
ATOM     16  F   UNL     1      45.641   5.207   9.276  0.00  0.00    +0.000 F 
ATOM     17  F   UNL     1      45.214   3.472  10.522  0.00  0.00    +0.000 F 
ATOM     18  F   UNL     1      43.621   4.865  10.012  0.00  0.00    +0.000 F 
ENDBRANCH  14  15
ENDBRANCH  12  14
ENDBRANCH   1  12
BRANCH   6  19
ATOM     19  S   UNL     1      47.945   7.616  14.054  0.00  0.00    +0.000 S 
BRANCH  19  20
ATOM     20  C   UNL     1      49.177   7.686  12.704  0.00  0.00    +0.000 C 
BRANCH  20  21
ATOM     21  C   UNL     1      49.180   9.020  11.987  0.00  0.00    +0.000 A 
ATOM     22  C   UNL     1      50.347   9.541  11.431  0.00  0.00    +0.000 A 
ATOM     23  C   UNL     1      50.294  10.776  10.785  0.00  0.00    +0.000 A 
ATOM     24  C   UNL     1      49.089  11.459  10.720  0.00  0.00    +0.000 A 
ATOM     25  C   UNL     1      47.977  10.884  11.307  0.00  0.00    +0.000 A 
ATOM     26  N   UNL     1      47.996   9.689  11.939  0.00  0.00    +0.000 NA
ENDBRANCH  20  21
ENDBRANCH  19  20
ENDBRANCH   6  19
TORSDOF 7
ENDMDL
