MODEL 1
REMARK VINA RESULT:    -8.374      0.000      0.000
REMARK INTER + INTRA:         -10.853
REMARK INTER:                 -10.333
REMARK INTRA:                  -0.520
REMARK UNBOUND:                -0.520
REMARK  Name = 
REMARK  4 active torsions:
REMARK  status: ('A' for Active; 'I' for Inactive)
REMARK    1  A    between atoms: C_2  and  C_4
REMARK    2  A    between atoms: N_8  and  C_9
REMARK    3  A    between atoms: C_9  and  C_10
REMARK    4  A    between atoms: C_14  and  N_15
REMARK                            x       y       z     vdW  Elec       q    Type
REMARK                         _______ _______ _______ _____ _____    ______ ____
ROOT
ATOM      1  C   UNL     1      46.564   2.635   7.334  0.00  0.00    +0.000 A 
ATOM      2  C   UNL     1      46.194   3.942   7.623  0.00  0.00    +0.000 A 
ATOM      3  C   UNL     1      45.312   4.183   8.675  0.00  0.00    +0.000 A 
ATOM      4  C   UNL     1      44.809   3.118   9.417  0.00  0.00    +0.000 A 
ATOM      5  N   UNL     1      43.978   3.274  10.491  0.00  0.00    +0.000 N 
ATOM      6  N   UNL     1      45.132   1.844   9.119  0.00  0.00    +0.000 NA
ATOM      7  C   UNL     1      45.994   1.625   8.090  0.00  0.00    +0.000 A 
ATOM      8  H   UNL     1      43.627   2.399  10.861  0.00  0.00    +0.000 HD
ENDROOT
BRANCH   1  10
ATOM      9  N   UNL     1      47.547   3.133   5.174  0.00  0.00    +0.000 N 
ATOM     10  C   UNL     1      47.513   2.298   6.257  0.00  0.00    +0.000 C 
ATOM     11  O   UNL     1      48.264   1.335   6.344  0.00  0.00    +0.000 OA
ATOM     12  H   UNL     1      48.271   2.952   4.489  0.00  0.00    +0.000 HD
ATOM     13  H   UNL     1      47.129   4.052   5.178  0.00  0.00    +0.000 HD
ENDBRANCH   1  10
BRANCH   5  14
ATOM     14  C   UNL     1      43.385   4.513  10.941  0.00  0.00    +0.000 C 
BRANCH  14  15
ATOM     15  C   UNL     1      44.344   5.449  11.628  0.00  0.00    +0.000 A 
ATOM     16  C   UNL     1      44.179   6.819  11.465  0.00  0.00    +0.000 A 
ATOM     17  N   UNL     1      44.955   7.751  12.051  0.00  0.00    +0.000 NA
ATOM     18  C   UNL     1      45.958   7.287  12.841  0.00  0.00    +0.000 A 
ATOM     19  C   UNL     1      46.251   5.944  13.091  0.00  0.00    +0.000 A 
ATOM     20  C   UNL     1      45.406   5.033  12.447  0.00  0.00    +0.000 A 
BRANCH  19  21
ATOM     21  N   UNL     1      47.279   5.536  13.911  0.00  0.00    +0.000 N 
ATOM     22  C   UNL     1      47.263   4.273  14.665  0.00  0.00    +0.000 C 
ATOM     23  C   UNL     1      47.478   4.551  16.160  0.00  0.00    +0.000 C 
ATOM     24  O   UNL     1      48.681   5.308  16.386  0.00  0.00    +0.000 OA
ATOM     25  C   UNL     1      48.615   6.567  15.694  0.00  0.00    +0.000 C 
ATOM     26  C   UNL     1      48.456   6.376  14.174  0.00  0.00    +0.000 C 
ENDBRANCH  19  21
ENDBRANCH  14  15
ENDBRANCH   5  14
TORSDOF 4
ENDMDL
MODEL 2
REMARK VINA RESULT:    -7.248      2.474      6.791
REMARK INTER + INTRA:          -9.463
REMARK INTER:                  -8.758
REMARK INTRA:                  -0.705
REMARK UNBOUND:                -0.520
REMARK  Name = 
REMARK  4 active torsions:
REMARK  status: ('A' for Active; 'I' for Inactive)
REMARK    1  A    between atoms: C_2  and  C_4
REMARK    2  A    between atoms: N_8  and  C_9
REMARK    3  A    between atoms: C_9  and  C_10
REMARK    4  A    between atoms: C_14  and  N_15
REMARK                            x       y       z     vdW  Elec       q    Type
REMARK                         _______ _______ _______ _____ _____    ______ ____
ROOT
ATOM      1  C   UNL     1      49.741   7.708  12.303  0.00  0.00    +0.000 A 
ATOM      2  C   UNL     1      48.691   7.816  11.399  0.00  0.00    +0.000 A 
ATOM      3  C   UNL     1      47.418   7.401  11.782  0.00  0.00    +0.000 A 
ATOM      4  C   UNL     1      47.210   6.883  13.057  0.00  0.00    +0.000 A 
ATOM      5  N   UNL     1      45.984   6.499  13.524  0.00  0.00    +0.000 N 
ATOM      6  N   UNL     1      48.229   6.740  13.927  0.00  0.00    +0.000 NA
ATOM      7  C   UNL     1      49.467   7.148  13.539  0.00  0.00    +0.000 A 
ATOM      8  H   UNL     1      46.019   6.056  14.435  0.00  0.00    +0.000 HD
ENDROOT
BRANCH   1  10
ATOM      9  N   UNL     1      51.808   7.408  11.072  0.00  0.00    +0.000 N 
ATOM     10  C   UNL     1      51.110   8.150  11.985  0.00  0.00    +0.000 C 
ATOM     11  O   UNL     1      51.592   9.158  12.489  0.00  0.00    +0.000 OA
ATOM     12  H   UNL     1      52.707   7.777  10.785  0.00  0.00    +0.000 HD
ATOM     13  H   UNL     1      51.368   6.731  10.466  0.00  0.00    +0.000 HD
ENDBRANCH   1  10
BRANCH   5  14
ATOM     14  C   UNL     1      44.759   6.434  12.760  0.00  0.00    +0.000 C 
BRANCH  14  15
ATOM     15  C   UNL     1      44.443   5.072  12.203  0.00  0.00    +0.000 A 
ATOM     16  C   UNL     1      43.766   4.159  13.002  0.00  0.00    +0.000 A 
ATOM     17  N   UNL     1      43.406   2.925  12.604  0.00  0.00    +0.000 NA
ATOM     18  C   UNL     1      43.745   2.579  11.336  0.00  0.00    +0.000 A 
ATOM     19  C   UNL     1      44.431   3.384  10.422  0.00  0.00    +0.000 A 
ATOM     20  C   UNL     1      44.777   4.651  10.906  0.00  0.00    +0.000 A 
BRANCH  19  21
ATOM     21  N   UNL     1      44.740   2.979   9.143  0.00  0.00    +0.000 N 
ATOM     22  C   UNL     1      45.003   1.578   8.777  0.00  0.00    +0.000 C 
ATOM     23  C   UNL     1      46.379   1.461   8.104  0.00  0.00    +0.000 C 
ATOM     24  O   UNL     1      46.490   2.351   6.978  0.00  0.00    +0.000 OA
ATOM     25  C   UNL     1      46.305   3.713   7.399  0.00  0.00    +0.000 C 
ATOM     26  C   UNL     1      44.920   3.931   8.038  0.00  0.00    +0.000 C 
ENDBRANCH  19  21
ENDBRANCH  14  15
ENDBRANCH   5  14
TORSDOF 4
ENDMDL
MODEL 3
REMARK VINA RESULT:    -7.231      2.501      8.478
REMARK INTER + INTRA:          -9.442
REMARK INTER:                  -9.037
REMARK INTRA:                  -0.404
REMARK UNBOUND:                -0.520
REMARK  Name = 
REMARK  4 active torsions:
REMARK  status: ('A' for Active; 'I' for Inactive)
REMARK    1  A    between atoms: C_2  and  C_4
REMARK    2  A    between atoms: N_8  and  C_9
REMARK    3  A    between atoms: C_9  and  C_10
REMARK    4  A    between atoms: C_14  and  N_15
REMARK                            x       y       z     vdW  Elec       q    Type
REMARK                         _______ _______ _______ _____ _____    ______ ____
ROOT
ATOM      1  C   UNL     1      48.556   4.499  18.471  0.00  0.00    +0.000 A 
ATOM      2  C   UNL     1      48.729   5.455  17.477  0.00  0.00    +0.000 A 
ATOM      3  C   UNL     1      48.018   5.334  16.286  0.00  0.00    +0.000 A 
ATOM      4  C   UNL     1      47.150   4.262  16.100  0.00  0.00    +0.000 A 
ATOM      5  N   UNL     1      46.382   4.099  14.981  0.00  0.00    +0.000 N 
ATOM      6  N   UNL     1      47.005   3.310  17.043  0.00  0.00    +0.000 NA
ATOM      7  C   UNL     1      47.706   3.441  18.201  0.00  0.00    +0.000 A 
ATOM      8  H   UNL     1      45.878   3.220  14.961  0.00  0.00    +0.000 HD
ENDROOT
BRANCH   1  10
ATOM      9  N   UNL     1      48.572   4.105  20.863  0.00  0.00    +0.000 N 
ATOM     10  C   UNL     1      49.249   4.570  19.770  0.00  0.00    +0.000 C 
ATOM     11  O   UNL     1      50.395   4.993  19.862  0.00  0.00    +0.000 OA
ATOM     12  H   UNL     1      49.093   4.063  21.731  0.00  0.00    +0.000 HD
ATOM     13  H   UNL     1      47.741   3.535  20.791  0.00  0.00    +0.000 HD
ENDBRANCH   1  10
BRANCH   5  14
ATOM     14  C   UNL     1      46.438   4.902  13.781  0.00  0.00    +0.000 C 
BRANCH  14  15
ATOM     15  C   UNL     1      45.337   4.624  12.793  0.00  0.00    +0.000 A 
ATOM     16  C   UNL     1      44.031   4.956  13.130  0.00  0.00    +0.000 A 
ATOM     17  N   UNL     1      42.970   4.781  12.319  0.00  0.00    +0.000 NA
ATOM     18  C   UNL     1      43.228   4.235  11.103  0.00  0.00    +0.000 A 
ATOM     19  C   UNL     1      44.482   3.843  10.629  0.00  0.00    +0.000 A 
ATOM     20  C   UNL     1      45.536   4.052  11.526  0.00  0.00    +0.000 A 
BRANCH  19  21
ATOM     21  N   UNL     1      44.681   3.303   9.379  0.00  0.00    +0.000 N 
ATOM     22  C   UNL     1      44.804   1.857   9.129  0.00  0.00    +0.000 C 
ATOM     23  C   UNL     1      46.123   1.560   8.402  0.00  0.00    +0.000 C 
ATOM     24  O   UNL     1      46.243   2.335   7.195  0.00  0.00    +0.000 OA
ATOM     25  C   UNL     1      46.199   3.740   7.499  0.00  0.00    +0.000 C 
ATOM     26  C   UNL     1      44.877   4.135   8.183  0.00  0.00    +0.000 C 
ENDBRANCH  19  21
ENDBRANCH  14  15
ENDBRANCH   5  14
TORSDOF 4
ENDMDL
MODEL 4
REMARK VINA RESULT:    -7.110      1.771      2.486
REMARK INTER + INTRA:          -9.292
REMARK INTER:                  -8.692
REMARK INTRA:                  -0.600
REMARK UNBOUND:                -0.520
REMARK  Name = 
REMARK  4 active torsions:
REMARK  status: ('A' for Active; 'I' for Inactive)
REMARK    1  A    between atoms: C_2  and  C_4
REMARK    2  A    between atoms: N_8  and  C_9
REMARK    3  A    between atoms: C_9  and  C_10
REMARK    4  A    between atoms: C_14  and  N_15
REMARK                            x       y       z     vdW  Elec       q    Type
REMARK                         _______ _______ _______ _____ _____    ______ ____
ROOT
ATOM      1  C   UNL     1      46.503   2.708   7.299  0.00  0.00    +0.000 A 
ATOM      2  C   UNL     1      46.483   3.998   7.813  0.00  0.00    +0.000 A 
ATOM      3  C   UNL     1      45.667   4.283   8.905  0.00  0.00    +0.000 A 
ATOM      4  C   UNL     1      44.879   3.281   9.464  0.00  0.00    +0.000 A 
ATOM      5  N   UNL     1      44.088   3.469  10.563  0.00  0.00    +0.000 N 
ATOM      6  N   UNL     1      44.863   2.036   8.948  0.00  0.00    +0.000 NA
ATOM      7  C   UNL     1      45.665   1.773   7.882  0.00  0.00    +0.000 A 
ATOM      8  H   UNL     1      43.508   2.668  10.786  0.00  0.00    +0.000 HD
ENDROOT
BRANCH   1  10
ATOM      9  N   UNL     1      47.291   3.091   5.038  0.00  0.00    +0.000 N 
ATOM     10  C   UNL     1      47.360   2.318   6.165  0.00  0.00    +0.000 C 
ATOM     11  O   UNL     1      48.127   1.366   6.239  0.00  0.00    +0.000 OA
ATOM     12  H   UNL     1      47.956   2.877   4.304  0.00  0.00    +0.000 HD
ATOM     13  H   UNL     1      46.865   4.006   5.027  0.00  0.00    +0.000 HD
ENDBRANCH   1  10
BRANCH   5  14
ATOM     14  C   UNL     1      43.832   4.726  11.228  0.00  0.00    +0.000 C 
BRANCH  14  15
ATOM     15  C   UNL     1      44.898   5.144  12.205  0.00  0.00    +0.000 A 
ATOM     16  C   UNL     1      45.147   4.342  13.312  0.00  0.00    +0.000 A 
ATOM     17  N   UNL     1      46.093   4.599  14.236  0.00  0.00    +0.000 NA
ATOM     18  C   UNL     1      46.828   5.725  14.047  0.00  0.00    +0.000 A 
ATOM     19  C   UNL     1      46.686   6.629  12.992  0.00  0.00    +0.000 A 
ATOM     20  C   UNL     1      45.683   6.300  12.072  0.00  0.00    +0.000 A 
BRANCH  19  21
ATOM     21  N   UNL     1      47.470   7.752  12.850  0.00  0.00    +0.000 N 
ATOM     22  C   UNL     1      48.394   7.960  11.723  0.00  0.00    +0.000 C 
ATOM     23  C   UNL     1      49.812   8.223  12.249  0.00  0.00    +0.000 C 
ATOM     24  O   UNL     1      49.832   9.318  13.182  0.00  0.00    +0.000 OA
ATOM     25  C   UNL     1      48.978   9.034  14.303  0.00  0.00    +0.000 C 
ATOM     26  C   UNL     1      47.518   8.812  13.867  0.00  0.00    +0.000 C 
ENDBRANCH  19  21
ENDBRANCH  14  15
ENDBRANCH   5  14
TORSDOF 4
ENDMDL
MODEL 5
REMARK VINA RESULT:    -6.715      4.209      8.534
REMARK INTER + INTRA:          -8.806
REMARK INTER:                  -8.243
REMARK INTRA:                  -0.563
REMARK UNBOUND:                -0.520
REMARK  Name = 
REMARK  4 active torsions:
REMARK  status: ('A' for Active; 'I' for Inactive)
REMARK    1  A    between atoms: C_2  and  C_4
REMARK    2  A    between atoms: N_8  and  C_9
REMARK    3  A    between atoms: C_9  and  C_10
REMARK    4  A    between atoms: C_14  and  N_15
REMARK                            x       y       z     vdW  Elec       q    Type
REMARK                         _______ _______ _______ _____ _____    ______ ____
ROOT
ATOM      1  C   UNL     1      52.216   2.504  17.959  0.00  0.00    +0.000 A 
ATOM      2  C   UNL     1      51.583   3.732  18.110  0.00  0.00    +0.000 A 
ATOM      3  C   UNL     1      50.260   3.871  17.693  0.00  0.00    +0.000 A 
ATOM      4  C   UNL     1      49.592   2.788  17.129  0.00  0.00    +0.000 A 
ATOM      5  N   UNL     1      48.283   2.830  16.740  0.00  0.00    +0.000 N 
ATOM      6  N   UNL     1      50.211   1.605  16.944  0.00  0.00    +0.000 NA
ATOM      7  C   UNL     1      51.502   1.484  17.355  0.00  0.00    +0.000 A 
ATOM      8  H   UNL     1      47.976   1.990  16.262  0.00  0.00    +0.000 HD
ENDROOT
BRANCH   1  10
ATOM      9  N   UNL     1      53.885   2.495  19.718  0.00  0.00    +0.000 N 
ATOM     10  C   UNL     1      53.603   2.268  18.399  0.00  0.00    +0.000 C 
ATOM     11  O   UNL     1      54.458   1.850  17.627  0.00  0.00    +0.000 OA
ATOM     12  H   UNL     1      54.812   2.233  20.032  0.00  0.00    +0.000 HD
ATOM     13  H   UNL     1      53.168   2.600  20.421  0.00  0.00    +0.000 HD
ENDBRANCH   1  10
BRANCH   5  14
ATOM     14  C   UNL     1      47.435   4.000  16.716  0.00  0.00    +0.000 C 
BRANCH  14  15
ATOM     15  C   UNL     1      47.335   4.670  15.372  0.00  0.00    +0.000 A 
ATOM     16  C   UNL     1      48.199   5.718  15.077  0.00  0.00    +0.000 A 
ATOM     17  N   UNL     1      48.222   6.374  13.901  0.00  0.00    +0.000 NA
ATOM     18  C   UNL     1      47.326   5.964  12.967  0.00  0.00    +0.000 A 
ATOM     19  C   UNL     1      46.392   4.936  13.122  0.00  0.00    +0.000 A 
ATOM     20  C   UNL     1      46.424   4.302  14.369  0.00  0.00    +0.000 A 
BRANCH  19  21
ATOM     21  N   UNL     1      45.513   4.560  12.132  0.00  0.00    +0.000 N 
ATOM     22  C   UNL     1      44.851   5.516  11.229  0.00  0.00    +0.000 C 
ATOM     23  C   UNL     1      43.327   5.338  11.303  0.00  0.00    +0.000 C 
ATOM     24  O   UNL     1      42.943   3.977  11.036  0.00  0.00    +0.000 OA
ATOM     25  C   UNL     1      43.550   3.091  11.992  0.00  0.00    +0.000 C 
ATOM     26  C   UNL     1      45.088   3.166  11.944  0.00  0.00    +0.000 C 
ENDBRANCH  19  21
ENDBRANCH  14  15
ENDBRANCH   5  14
TORSDOF 4
ENDMDL
MODEL 6
REMARK VINA RESULT:    -6.553      1.866      6.884
REMARK INTER + INTRA:          -8.606
REMARK INTER:                  -8.436
REMARK INTRA:                  -0.170
REMARK UNBOUND:                -0.520
REMARK  Name = 
REMARK  4 active torsions:
REMARK  status: ('A' for Active; 'I' for Inactive)
REMARK    1  A    between atoms: C_2  and  C_4
REMARK    2  A    between atoms: N_8  and  C_9
REMARK    3  A    between atoms: C_9  and  C_10
REMARK    4  A    between atoms: C_14  and  N_15
REMARK                            x       y       z     vdW  Elec       q    Type
REMARK                         _______ _______ _______ _____ _____    ______ ____
ROOT
ATOM      1  C   UNL     1      47.884   7.249  13.246  0.00  0.00    +0.000 A 
ATOM      2  C   UNL     1      47.005   6.192  13.445  0.00  0.00    +0.000 A 
ATOM      3  C   UNL     1      45.749   6.228  12.844  0.00  0.00    +0.000 A 
ATOM      4  C   UNL     1      45.386   7.319  12.059  0.00  0.00    +0.000 A 
ATOM      5  N   UNL     1      44.192   7.408  11.399  0.00  0.00    +0.000 N 
ATOM      6  N   UNL     1      46.217   8.367  11.892  0.00  0.00    +0.000 NA
ATOM      7  C   UNL     1      47.440   8.317  12.485  0.00  0.00    +0.000 A 
ATOM      8  H   UNL     1      44.044   8.305  10.951  0.00  0.00    +0.000 HD
ENDROOT
BRANCH   1  10
ATOM      9  N   UNL     1      50.178   8.030  13.176  0.00  0.00    +0.000 N 
ATOM     10  C   UNL     1      49.240   7.274  13.823  0.00  0.00    +0.000 C 
ATOM     11  O   UNL     1      49.508   6.673  14.857  0.00  0.00    +0.000 OA
ATOM     12  H   UNL     1      51.077   8.123  13.635  0.00  0.00    +0.000 HD
ATOM     13  H   UNL     1      49.939   8.720  12.478  0.00  0.00    +0.000 HD
ENDBRANCH   1  10
BRANCH   5  14
ATOM     14  C   UNL     1      43.084   6.487  11.507  0.00  0.00    +0.000 C 
BRANCH  14  15
ATOM     15  C   UNL     1      43.438   5.050  11.238  0.00  0.00    +0.000 A 
ATOM     16  C   UNL     1      43.187   4.100  12.220  0.00  0.00    +0.000 A 
ATOM     17  N   UNL     1      43.436   2.783  12.083  0.00  0.00    +0.000 NA
ATOM     18  C   UNL     1      43.973   2.394  10.898  0.00  0.00    +0.000 A 
ATOM     19  C   UNL     1      44.288   3.232   9.825  0.00  0.00    +0.000 A 
ATOM     20  C   UNL     1      44.006   4.586  10.040  0.00  0.00    +0.000 A 
BRANCH  19  21
ATOM     21  N   UNL     1      44.824   2.774   8.643  0.00  0.00    +0.000 N 
ATOM     22  C   UNL     1      45.212   1.373   8.416  0.00  0.00    +0.000 C 
ATOM     23  C   UNL     1      46.684   1.299   7.985  0.00  0.00    +0.000 C 
ATOM     24  O   UNL     1      46.938   2.129   6.837  0.00  0.00    +0.000 OA
ATOM     25  C   UNL     1      46.620   3.500   7.134  0.00  0.00    +0.000 C 
ATOM     26  C   UNL     1      45.139   3.672   7.522  0.00  0.00    +0.000 C 
ENDBRANCH  19  21
ENDBRANCH  14  15
ENDBRANCH   5  14
TORSDOF 4
ENDMDL
MODEL 7
REMARK VINA RESULT:    -6.155      3.026      5.290
REMARK INTER + INTRA:          -8.114
REMARK INTER:                  -7.539
REMARK INTRA:                  -0.575
REMARK UNBOUND:                -0.520
REMARK  Name = 
REMARK  4 active torsions:
REMARK  status: ('A' for Active; 'I' for Inactive)
REMARK    1  A    between atoms: C_2  and  C_4
REMARK    2  A    between atoms: N_8  and  C_9
REMARK    3  A    between atoms: C_9  and  C_10
REMARK    4  A    between atoms: C_14  and  N_15
REMARK                            x       y       z     vdW  Elec       q    Type
REMARK                         _______ _______ _______ _____ _____    ______ ____
ROOT
ATOM      1  C   UNL     1      44.768   5.079  11.002  0.00  0.00    +0.000 A 
ATOM      2  C   UNL     1      45.967   5.660  10.608  0.00  0.00    +0.000 A 
ATOM      3  C   UNL     1      46.667   6.455  11.513  0.00  0.00    +0.000 A 
ATOM      4  C   UNL     1      46.160   6.664  12.792  0.00  0.00    +0.000 A 
ATOM      5  N   UNL     1      46.808   7.391  13.751  0.00  0.00    +0.000 N 
ATOM      6  N   UNL     1      44.978   6.136  13.170  0.00  0.00    +0.000 NA
ATOM      7  C   UNL     1      44.306   5.361  12.276  0.00  0.00    +0.000 A 
ATOM      8  H   UNL     1      46.262   7.526  14.594  0.00  0.00    +0.000 HD
ENDROOT
BRANCH   1  10
ATOM      9  N   UNL     1      44.066   4.439   8.771  0.00  0.00    +0.000 N 
ATOM     10  C   UNL     1      43.982   4.202  10.115  0.00  0.00    +0.000 C 
ATOM     11  O   UNL     1      43.310   3.278  10.559  0.00  0.00    +0.000 OA
ATOM     12  H   UNL     1      43.604   3.770   8.166  0.00  0.00    +0.000 HD
ATOM     13  H   UNL     1      44.783   5.020   8.361  0.00  0.00    +0.000 HD
ENDBRANCH   1  10
BRANCH   5  14
ATOM     14  C   UNL     1      48.019   8.159  13.569  0.00  0.00    +0.000 C 
BRANCH  14  15
ATOM     15  C   UNL     1      49.170   7.721  14.434  0.00  0.00    +0.000 A 
ATOM     16  C   UNL     1      50.449   8.171  14.130  0.00  0.00    +0.000 A 
ATOM     17  N   UNL     1      51.549   7.869  14.846  0.00  0.00    +0.000 NA
ATOM     18  C   UNL     1      51.362   7.066  15.925  0.00  0.00    +0.000 A 
ATOM     19  C   UNL     1      50.143   6.531  16.347  0.00  0.00    +0.000 A 
ATOM     20  C   UNL     1      49.045   6.884  15.555  0.00  0.00    +0.000 A 
BRANCH  19  21
ATOM     21  N   UNL     1      50.016   5.728  17.458  0.00  0.00    +0.000 N 
ATOM     22  C   UNL     1      50.550   4.359  17.535  0.00  0.00    +0.000 C 
ATOM     23  C   UNL     1      49.426   3.377  17.897  0.00  0.00    +0.000 C 
ATOM     24  O   UNL     1      48.754   3.770  19.107  0.00  0.00    +0.000 OA
ATOM     25  C   UNL     1      48.181   5.080  18.955  0.00  0.00    +0.000 C 
ATOM     26  C   UNL     1      49.254   6.141  18.645  0.00  0.00    +0.000 C 
ENDBRANCH  19  21
ENDBRANCH  14  15
ENDBRANCH   5  14
TORSDOF 4
ENDMDL
MODEL 8
REMARK VINA RESULT:    -6.128      3.808      5.885
REMARK INTER + INTRA:          -8.081
REMARK INTER:                  -7.443
REMARK INTRA:                  -0.638
REMARK UNBOUND:                -0.520
REMARK  Name = 
REMARK  4 active torsions:
REMARK  status: ('A' for Active; 'I' for Inactive)
REMARK    1  A    between atoms: C_2  and  C_4
REMARK    2  A    between atoms: N_8  and  C_9
REMARK    3  A    between atoms: C_9  and  C_10
REMARK    4  A    between atoms: C_14  and  N_15
REMARK                            x       y       z     vdW  Elec       q    Type
REMARK                         _______ _______ _______ _____ _____    ______ ____
ROOT
ATOM      1  C   UNL     1      44.672   4.743  12.380  0.00  0.00    +0.000 A 
ATOM      2  C   UNL     1      45.964   4.469  12.812  0.00  0.00    +0.000 A 
ATOM      3  C   UNL     1      46.782   5.521  13.220  0.00  0.00    +0.000 A 
ATOM      4  C   UNL     1      46.303   6.827  13.186  0.00  0.00    +0.000 A 
ATOM      5  N   UNL     1      47.025   7.906  13.613  0.00  0.00    +0.000 N 
ATOM      6  N   UNL     1      45.064   7.106  12.733  0.00  0.00    +0.000 NA
ATOM      7  C   UNL     1      44.277   6.069  12.338  0.00  0.00    +0.000 A 
ATOM      8  H   UNL     1      46.570   8.794  13.434  0.00  0.00    +0.000 HD
ENDROOT
BRANCH   1  10
ATOM      9  N   UNL     1      43.871   2.461  12.553  0.00  0.00    +0.000 N 
ATOM     10  C   UNL     1      43.735   3.686  11.960  0.00  0.00    +0.000 C 
ATOM     11  O   UNL     1      42.850   3.903  11.141  0.00  0.00    +0.000 OA
ATOM     12  H   UNL     1      43.160   1.773  12.334  0.00  0.00    +0.000 HD
ATOM     13  H   UNL     1      44.416   2.316  13.391  0.00  0.00    +0.000 HD
ENDBRANCH   1  10
BRANCH   5  14
ATOM     14  C   UNL     1      48.410   7.899  14.026  0.00  0.00    +0.000 C 
BRANCH  14  15
ATOM     15  C   UNL     1      48.626   7.554  15.475  0.00  0.00    +0.000 A 
ATOM     16  C   UNL     1      48.496   8.553  16.432  0.00  0.00    +0.000 A 
ATOM     17  N   UNL     1      48.638   8.359  17.756  0.00  0.00    +0.000 NA
ATOM     18  C   UNL     1      48.935   7.093  18.149  0.00  0.00    +0.000 A 
ATOM     19  C   UNL     1      49.106   5.992  17.306  0.00  0.00    +0.000 A 
ATOM     20  C   UNL     1      48.947   6.270  15.943  0.00  0.00    +0.000 A 
BRANCH  19  21
ATOM     21  N   UNL     1      49.399   4.728  17.766  0.00  0.00    +0.000 N 
ATOM     22  C   UNL     1      50.704   4.352  18.333  0.00  0.00    +0.000 C 
ATOM     23  C   UNL     1      51.284   3.154  17.568  0.00  0.00    +0.000 C 
ATOM     24  O   UNL     1      50.360   2.050  17.544  0.00  0.00    +0.000 OA
ATOM     25  C   UNL     1      49.131   2.443  16.909  0.00  0.00    +0.000 C 
ATOM     26  C   UNL     1      48.452   3.609  17.650  0.00  0.00    +0.000 C 
ENDBRANCH  19  21
ENDBRANCH  14  15
ENDBRANCH   5  14
TORSDOF 4
ENDMDL
MODEL 9
REMARK VINA RESULT:    -5.921      3.146      8.541
REMARK INTER + INTRA:          -7.825
REMARK INTER:                  -7.404
REMARK INTRA:                  -0.421
REMARK UNBOUND:                -0.520
REMARK  Name = 
REMARK  4 active torsions:
REMARK  status: ('A' for Active; 'I' for Inactive)
REMARK    1  A    between atoms: C_2  and  C_4
REMARK    2  A    between atoms: N_8  and  C_9
REMARK    3  A    between atoms: C_9  and  C_10
REMARK    4  A    between atoms: C_14  and  N_15
REMARK                            x       y       z     vdW  Elec       q    Type
REMARK                         _______ _______ _______ _____ _____    ______ ____
ROOT
ATOM      1  C   UNL     1      50.122   5.055  18.767  0.00  0.00    +0.000 A 
ATOM      2  C   UNL     1      50.675   5.797  17.730  0.00  0.00    +0.000 A 
ATOM      3  C   UNL     1      49.905   6.064  16.599  0.00  0.00    +0.000 A 
ATOM      4  C   UNL     1      48.602   5.584  16.517  0.00  0.00    +0.000 A 
ATOM      5  N   UNL     1      47.769   5.842  15.464  0.00  0.00    +0.000 N 
ATOM      6  N   UNL     1      48.071   4.831  17.501  0.00  0.00    +0.000 NA
ATOM      7  C   UNL     1      48.834   4.579  18.598  0.00  0.00    +0.000 A 
ATOM      8  H   UNL     1      46.888   5.343  15.513  0.00  0.00    +0.000 HD
ENDROOT
BRANCH   1  10
ATOM      9  N   UNL     1      52.135   4.279  19.874  0.00  0.00    +0.000 N 
ATOM     10  C   UNL     1      50.859   4.754  20.007  0.00  0.00    +0.000 C 
ATOM     11  O   UNL     1      50.365   4.954  21.110  0.00  0.00    +0.000 OA
ATOM     12  H   UNL     1      52.667   4.172  20.729  0.00  0.00    +0.000 HD
ATOM     13  H   UNL     1      52.651   4.333  19.008  0.00  0.00    +0.000 HD
ENDBRANCH   1  10
BRANCH   5  14
ATOM     14  C   UNL     1      48.126   6.514  14.236  0.00  0.00    +0.000 C 
BRANCH  14  15
ATOM     15  C   UNL     1      46.969   6.773  13.308  0.00  0.00    +0.000 A 
ATOM     16  C   UNL     1      46.746   8.068  12.857  0.00  0.00    +0.000 A 
ATOM     17  N   UNL     1      45.762   8.415  12.005  0.00  0.00    +0.000 NA
ATOM     18  C   UNL     1      44.951   7.411  11.583  0.00  0.00    +0.000 A 
ATOM     19  C   UNL     1      45.046   6.068  11.956  0.00  0.00    +0.000 A 
ATOM     20  C   UNL     1      46.088   5.782  12.846  0.00  0.00    +0.000 A 
BRANCH  19  21
ATOM     21  N   UNL     1      44.196   5.093  11.487  0.00  0.00    +0.000 N 
ATOM     22  C   UNL     1      43.243   4.366  12.342  0.00  0.00    +0.000 C 
ATOM     23  C   UNL     1      43.478   2.853  12.221  0.00  0.00    +0.000 C 
ATOM     24  O   UNL     1      43.422   2.421  10.849  0.00  0.00    +0.000 OA
ATOM     25  C   UNL     1      44.423   3.099  10.071  0.00  0.00    +0.000 C 
ATOM     26  C   UNL     1      44.226   4.626  10.093  0.00  0.00    +0.000 C 
ENDBRANCH  19  21
ENDBRANCH  14  15
ENDBRANCH   5  14
TORSDOF 4
ENDMDL
