MODEL 1
REMARK VINA RESULT:    -8.262      0.000      0.000
REMARK INTER + INTRA:         -12.267
REMARK INTER:                 -11.160
REMARK INTRA:                  -1.107
REMARK UNBOUND:                -1.107
REMARK  Name = 
REMARK  6 active torsions:
REMARK  status: ('A' for Active; 'I' for Inactive)
REMARK    1  A    between atoms: C_2  and  C_25
REMARK    2  A    between atoms: N_3  and  C_4
REMARK    3  A    between atoms: C_4  and  C_5
REMARK    4  A    between atoms: C_8  and  C_9
REMARK    5  A    between atoms: C_9  and  N_10
REMARK    6  A    between atoms: C_11  and  C_13
REMARK                            x       y       z     vdW  Elec       q    Type
REMARK                         _______ _______ _______ _____ _____    ______ ____
ROOT
ATOM      1  C   UNL     1      45.077   5.435  10.749  0.00  0.00    +0.000 A 
ATOM      2  C   UNL     1      44.471   5.736  11.977  0.00  0.00    +0.000 A 
ATOM      3  C   UNL     1      45.083   6.612  12.881  0.00  0.00    +0.000 A 
ATOM      4  C   UNL     1      46.304   7.224  12.568  0.00  0.00    +0.000 A 
ATOM      5  C   UNL     1      46.902   6.935  11.335  0.00  0.00    +0.000 A 
ATOM      6  C   UNL     1      46.290   6.059  10.431  0.00  0.00    +0.000 A 
ENDROOT
BRANCH   1   7
ATOM      7  C   UNL     1      44.457   4.431   9.812  0.00  0.00    +0.000 C 
BRANCH   7  10
ATOM      8  O   UNL     1      45.207   1.846   9.191  0.00  0.00    +0.000 OA
ATOM      9  C   UNL     1      45.625   2.754   8.478  0.00  0.00    +0.000 C 
ATOM     10  N   UNL     1      45.322   4.076   8.715  0.00  0.00    +0.000 N 
ATOM     11  H   UNL     1      45.555   4.778   8.028  0.00  0.00    +0.000 HD
BRANCH   9  12
ATOM     12  C   UNL     1      46.453   2.500   7.330  0.00  0.00    +0.000 A 
ATOM     13  C   UNL     1      46.564   3.089   6.085  0.00  0.00    +0.000 A 
ATOM     14  C   UNL     1      47.584   2.376   5.427  0.00  0.00    +0.000 A 
ATOM     15  N   UNL     1      48.089   1.400   6.184  0.00  0.00    +0.000 NA
ATOM     16  N   UNL     1      47.397   1.504   7.332  0.00  0.00    +0.000 N 
ATOM     17  H   UNL     1      47.606   0.862   8.093  0.00  0.00    +0.000 HD
ENDBRANCH   9  12
ENDBRANCH   7  10
ENDBRANCH   1   7
BRANCH   4  18
ATOM     18  C   UNL     1      46.984   8.145  13.550  0.00  0.00    +0.000 C 
BRANCH  18  19
ATOM     19  N   UNL     1      47.444   7.432  14.718  0.00  0.00    +0.000 N 
ATOM     20  C   UNL     1      48.698   6.873  14.757  0.00  0.00    +0.000 C 
ATOM     21  O   UNL     1      49.488   6.988  13.825  0.00  0.00    +0.000 OA
ATOM     22  H   UNL     1      46.741   7.132  15.387  0.00  0.00    +0.000 HD
BRANCH  20  23
ATOM     23  C   UNL     1      49.076   6.182  15.998  0.00  0.00    +0.000 A 
ATOM     24  C   UNL     1      50.165   6.637  16.732  0.00  0.00    +0.000 A 
ATOM     25  S   UNL     1      50.437   5.763  18.170  0.00  0.00    +0.000 S 
ATOM     26  C   UNL     1      49.145   4.707  17.837  0.00  0.00    +0.000 A 
ATOM     27  N   UNL     1      48.843   3.684  18.681  0.00  0.00    +0.000 NA
ATOM     28  C   UNL     1      47.865   2.938  18.287  0.00  0.00    +0.000 A 
ATOM     29  N   UNL     1      47.159   3.128  17.127  0.00  0.00    +0.000 N 
ATOM     30  C   UNL     1      47.405   4.168  16.263  0.00  0.00    +0.000 A 
ATOM     31  O   UNL     1      46.724   4.335  15.257  0.00  0.00    +0.000 OA
ATOM     32  C   UNL     1      48.504   5.029  16.653  0.00  0.00    +0.000 A 
ATOM     33  H   UNL     1      46.399   2.511  16.879  0.00  0.00    +0.000 HD
ENDBRANCH  20  23
ENDBRANCH  18  19
ENDBRANCH   4  18
TORSDOF 6
ENDMDL
MODEL 2
REMARK VINA RESULT:    -7.436      4.613      9.508
REMARK INTER + INTRA:         -11.151
REMARK INTER:                 -10.385
REMARK INTRA:                  -0.766
REMARK UNBOUND:                -1.107
REMARK  Name = 
REMARK  6 active torsions:
REMARK  status: ('A' for Active; 'I' for Inactive)
REMARK    1  A    between atoms: C_2  and  C_25
REMARK    2  A    between atoms: N_3  and  C_4
REMARK    3  A    between atoms: C_4  and  C_5
REMARK    4  A    between atoms: C_8  and  C_9
REMARK    5  A    between atoms: C_9  and  N_10
REMARK    6  A    between atoms: C_11  and  C_13
REMARK                            x       y       z     vdW  Elec       q    Type
REMARK                         _______ _______ _______ _____ _____    ______ ____
ROOT
ATOM      1  C   UNL     1      51.465   2.971  17.700  0.00  0.00    +0.000 A 
ATOM      2  C   UNL     1      50.676   1.932  17.187  0.00  0.00    +0.000 A 
ATOM      3  C   UNL     1      49.316   2.131  16.922  0.00  0.00    +0.000 A 
ATOM      4  C   UNL     1      48.720   3.379  17.143  0.00  0.00    +0.000 A 
ATOM      5  C   UNL     1      49.511   4.422  17.641  0.00  0.00    +0.000 A 
ATOM      6  C   UNL     1      50.872   4.223  17.906  0.00  0.00    +0.000 A 
ENDROOT
BRANCH   1   7
ATOM      7  C   UNL     1      52.909   2.734  18.060  0.00  0.00    +0.000 C 
BRANCH   7  10
ATOM      8  O   UNL     1      54.360   0.751  16.799  0.00  0.00    +0.000 OA
ATOM      9  C   UNL     1      53.895   0.506  17.908  0.00  0.00    +0.000 C 
ATOM     10  N   UNL     1      53.143   1.422  18.610  0.00  0.00    +0.000 N 
ATOM     11  H   UNL     1      52.906   1.246  19.575  0.00  0.00    +0.000 HD
BRANCH   9  12
ATOM     12  C   UNL     1      54.114  -0.755  18.565  0.00  0.00    +0.000 A 
ATOM     13  C   UNL     1      55.247  -1.467  18.907  0.00  0.00    +0.000 A 
ATOM     14  C   UNL     1      54.775  -2.625  19.553  0.00  0.00    +0.000 A 
ATOM     15  N   UNL     1      53.444  -2.662  19.619  0.00  0.00    +0.000 NA
ATOM     16  N   UNL     1      53.069  -1.515  19.026  0.00  0.00    +0.000 N 
ATOM     17  H   UNL     1      52.078  -1.297  18.957  0.00  0.00    +0.000 HD
ENDBRANCH   9  12
ENDBRANCH   7  10
ENDBRANCH   1   7
BRANCH   4  18
ATOM     18  C   UNL     1      47.249   3.592  16.889  0.00  0.00    +0.000 C 
BRANCH  18  19
ATOM     19  N   UNL     1      47.022   4.600  15.881  0.00  0.00    +0.000 N 
ATOM     20  C   UNL     1      47.057   4.284  14.544  0.00  0.00    +0.000 C 
ATOM     21  O   UNL     1      47.240   3.133  14.156  0.00  0.00    +0.000 OA
ATOM     22  H   UNL     1      47.100   5.571  16.167  0.00  0.00    +0.000 HD
BRANCH  20  23
ATOM     23  C   UNL     1      46.798   5.377  13.597  0.00  0.00    +0.000 A 
ATOM     24  C   UNL     1      47.824   6.255  13.266  0.00  0.00    +0.000 A 
ATOM     25  S   UNL     1      47.377   7.430  12.114  0.00  0.00    +0.000 S 
ATOM     26  C   UNL     1      45.780   6.845  12.058  0.00  0.00    +0.000 A 
ATOM     27  N   UNL     1      44.847   7.437  11.264  0.00  0.00    +0.000 NA
ATOM     28  C   UNL     1      43.668   6.916  11.349  0.00  0.00    +0.000 A 
ATOM     29  N   UNL     1      43.340   5.854  12.150  0.00  0.00    +0.000 N 
ATOM     30  C   UNL     1      44.257   5.202  12.941  0.00  0.00    +0.000 A 
ATOM     31  O   UNL     1      43.941   4.225  13.612  0.00  0.00    +0.000 OA
ATOM     32  C   UNL     1      45.596   5.757  12.894  0.00  0.00    +0.000 A 
ATOM     33  H   UNL     1      42.399   5.489  12.165  0.00  0.00    +0.000 HD
ENDBRANCH  20  23
ENDBRANCH  18  19
ENDBRANCH   4  18
TORSDOF 6
ENDMDL
MODEL 3
REMARK VINA RESULT:    -7.367      1.807      2.028
REMARK INTER + INTRA:         -11.059
REMARK INTER:                 -10.281
REMARK INTRA:                  -0.777
REMARK UNBOUND:                -1.107
REMARK  Name = 
REMARK  6 active torsions:
REMARK  status: ('A' for Active; 'I' for Inactive)
REMARK    1  A    between atoms: C_2  and  C_25
REMARK    2  A    between atoms: N_3  and  C_4
REMARK    3  A    between atoms: C_4  and  C_5
REMARK    4  A    between atoms: C_8  and  C_9
REMARK    5  A    between atoms: C_9  and  N_10
REMARK    6  A    between atoms: C_11  and  C_13
REMARK                            x       y       z     vdW  Elec       q    Type
REMARK                         _______ _______ _______ _____ _____    ______ ____
ROOT
ATOM      1  C   UNL     1      45.325   4.599  11.883  0.00  0.00    +0.000 A 
ATOM      2  C   UNL     1      45.956   4.338  13.108  0.00  0.00    +0.000 A 
ATOM      3  C   UNL     1      46.805   5.286  13.691  0.00  0.00    +0.000 A 
ATOM      4  C   UNL     1      47.024   6.525  13.073  0.00  0.00    +0.000 A 
ATOM      5  C   UNL     1      46.383   6.791  11.857  0.00  0.00    +0.000 A 
ATOM      6  C   UNL     1      45.533   5.843  11.274  0.00  0.00    +0.000 A 
ENDROOT
BRANCH   1   7
ATOM      7  C   UNL     1      44.476   3.547  11.217  0.00  0.00    +0.000 C 
BRANCH   7  10
ATOM      8  O   UNL     1      44.467   4.099   8.511  0.00  0.00    +0.000 OA
ATOM      9  C   UNL     1      45.139   3.150   8.902  0.00  0.00    +0.000 C 
ATOM     10  N   UNL     1      45.196   2.784  10.228  0.00  0.00    +0.000 N 
ATOM     11  H   UNL     1      45.872   2.100  10.535  0.00  0.00    +0.000 HD
BRANCH   9  12
ATOM     12  C   UNL     1      45.933   2.357   8.002  0.00  0.00    +0.000 A 
ATOM     13  C   UNL     1      46.348   1.039   8.004  0.00  0.00    +0.000 A 
ATOM     14  C   UNL     1      47.090   0.882   6.819  0.00  0.00    +0.000 A 
ATOM     15  N   UNL     1      47.155   2.009   6.109  0.00  0.00    +0.000 NA
ATOM     16  N   UNL     1      46.439   2.882   6.839  0.00  0.00    +0.000 N 
ATOM     17  H   UNL     1      46.327   3.834   6.499  0.00  0.00    +0.000 HD
ENDBRANCH   9  12
ENDBRANCH   7  10
ENDBRANCH   1   7
BRANCH   4  18
ATOM     18  C   UNL     1      47.962   7.538  13.680  0.00  0.00    +0.000 C 
BRANCH  18  19
ATOM     19  N   UNL     1      47.943   7.486  15.122  0.00  0.00    +0.000 N 
ATOM     20  C   UNL     1      49.032   7.034  15.827  0.00  0.00    +0.000 C 
ATOM     21  O   UNL     1      50.072   6.698  15.268  0.00  0.00    +0.000 OA
ATOM     22  H   UNL     1      47.037   7.535  15.579  0.00  0.00    +0.000 HD
BRANCH  20  23
ATOM     23  C   UNL     1      48.919   7.034  17.293  0.00  0.00    +0.000 A 
ATOM     24  C   UNL     1      48.807   8.240  17.973  0.00  0.00    +0.000 A 
ATOM     25  S   UNL     1      48.628   8.064  19.659  0.00  0.00    +0.000 S 
ATOM     26  C   UNL     1      48.751   6.371  19.550  0.00  0.00    +0.000 A 
ATOM     27  N   UNL     1      48.699   5.593  20.664  0.00  0.00    +0.000 NA
ATOM     28  C   UNL     1      48.844   4.329  20.440  0.00  0.00    +0.000 A 
ATOM     29  N   UNL     1      49.030   3.774  19.201  0.00  0.00    +0.000 N 
ATOM     30  C   UNL     1      49.053   4.516  18.044  0.00  0.00    +0.000 A 
ATOM     31  O   UNL     1      49.175   3.983  16.946  0.00  0.00    +0.000 OA
ATOM     32  C   UNL     1      48.908   5.945  18.242  0.00  0.00    +0.000 A 
ATOM     33  H   UNL     1      49.130   2.775  19.092  0.00  0.00    +0.000 HD
ENDBRANCH  20  23
ENDBRANCH  18  19
ENDBRANCH   4  18
TORSDOF 6
ENDMDL
MODEL 4
REMARK VINA RESULT:    -7.087      4.574      9.367
REMARK INTER + INTRA:         -10.680
REMARK INTER:                  -9.612
REMARK INTRA:                  -1.067
REMARK UNBOUND:                -1.107
REMARK  Name = 
REMARK  6 active torsions:
REMARK  status: ('A' for Active; 'I' for Inactive)
REMARK    1  A    between atoms: C_2  and  C_25
REMARK    2  A    between atoms: N_3  and  C_4
REMARK    3  A    between atoms: C_4  and  C_5
REMARK    4  A    between atoms: C_8  and  C_9
REMARK    5  A    between atoms: C_9  and  N_10
REMARK    6  A    between atoms: C_11  and  C_13
REMARK                            x       y       z     vdW  Elec       q    Type
REMARK                         _______ _______ _______ _____ _____    ______ ____
ROOT
ATOM      1  C   UNL     1      51.344   2.959  17.752  0.00  0.00    +0.000 A 
ATOM      2  C   UNL     1      50.530   1.959  17.201  0.00  0.00    +0.000 A 
ATOM      3  C   UNL     1      49.189   2.217  16.895  0.00  0.00    +0.000 A 
ATOM      4  C   UNL     1      48.638   3.487  17.112  0.00  0.00    +0.000 A 
ATOM      5  C   UNL     1      49.454   4.490  17.648  0.00  0.00    +0.000 A 
ATOM      6  C   UNL     1      50.796   4.232  17.954  0.00  0.00    +0.000 A 
ENDROOT
BRANCH   1   7
ATOM      7  C   UNL     1      52.764   2.658  18.155  0.00  0.00    +0.000 C 
BRANCH   7  10
ATOM      8  O   UNL     1      54.572   1.039  16.836  0.00  0.00    +0.000 OA
ATOM      9  C   UNL     1      53.918   0.545  17.749  0.00  0.00    +0.000 C 
ATOM     10  N   UNL     1      52.980   1.264  18.456  0.00  0.00    +0.000 N 
ATOM     11  H   UNL     1      52.572   0.875  19.294  0.00  0.00    +0.000 HD
BRANCH   9  12
ATOM     12  C   UNL     1      54.095  -0.822  18.160  0.00  0.00    +0.000 A 
ATOM     13  C   UNL     1      55.082  -1.763  17.942  0.00  0.00    +0.000 A 
ATOM     14  C   UNL     1      54.662  -2.910  18.641  0.00  0.00    +0.000 A 
ATOM     15  N   UNL     1      53.493  -2.728  19.257  0.00  0.00    +0.000 NA
ATOM     16  N   UNL     1      53.178  -1.455  18.961  0.00  0.00    +0.000 N 
ATOM     17  H   UNL     1      52.315  -1.062  19.330  0.00  0.00    +0.000 HD
ENDBRANCH   9  12
ENDBRANCH   7  10
ENDBRANCH   1   7
BRANCH   4  18
ATOM     18  C   UNL     1      47.185   3.763  16.813  0.00  0.00    +0.000 C 
BRANCH  18  19
ATOM     19  N   UNL     1      47.034   4.738  15.760  0.00  0.00    +0.000 N 
ATOM     20  C   UNL     1      47.072   4.364  14.439  0.00  0.00    +0.000 C 
ATOM     21  O   UNL     1      47.194   3.189  14.102  0.00  0.00    +0.000 OA
ATOM     22  H   UNL     1      47.164   5.715  16.007  0.00  0.00    +0.000 HD
BRANCH  20  23
ATOM     23  C   UNL     1      46.893   5.429  13.443  0.00  0.00    +0.000 A 
ATOM     24  C   UNL     1      45.844   5.350  12.535  0.00  0.00    +0.000 A 
ATOM     25  S   UNL     1      45.741   6.690  11.485  0.00  0.00    +0.000 S 
ATOM     26  C   UNL     1      47.130   7.399  12.167  0.00  0.00    +0.000 A 
ATOM     27  N   UNL     1      47.613   8.580  11.698  0.00  0.00    +0.000 NA
ATOM     28  C   UNL     1      48.693   8.983  12.280  0.00  0.00    +0.000 A 
ATOM     29  N   UNL     1      49.330   8.313  13.292  0.00  0.00    +0.000 N 
ATOM     30  C   UNL     1      48.859   7.135  13.822  0.00  0.00    +0.000 A 
ATOM     31  O   UNL     1      49.427   6.584  14.759  0.00  0.00    +0.000 OA
ATOM     32  C   UNL     1      47.654   6.631  13.193  0.00  0.00    +0.000 A 
ATOM     33  H   UNL     1      50.170   8.686  13.710  0.00  0.00    +0.000 HD
ENDBRANCH  20  23
ENDBRANCH  18  19
ENDBRANCH   4  18
TORSDOF 6
ENDMDL
MODEL 5
REMARK VINA RESULT:    -6.897      3.681      4.524
REMARK INTER + INTRA:         -10.424
REMARK INTER:                  -9.396
REMARK INTRA:                  -1.028
REMARK UNBOUND:                -1.107
REMARK  Name = 
REMARK  6 active torsions:
REMARK  status: ('A' for Active; 'I' for Inactive)
REMARK    1  A    between atoms: C_2  and  C_25
REMARK    2  A    between atoms: N_3  and  C_4
REMARK    3  A    between atoms: C_4  and  C_5
REMARK    4  A    between atoms: C_8  and  C_9
REMARK    5  A    between atoms: C_9  and  N_10
REMARK    6  A    between atoms: C_11  and  C_13
REMARK                            x       y       z     vdW  Elec       q    Type
REMARK                         _______ _______ _______ _____ _____    ______ ____
ROOT
ATOM      1  C   UNL     1      44.652   5.069  10.531  0.00  0.00    +0.000 A 
ATOM      2  C   UNL     1      45.837   5.779  10.291  0.00  0.00    +0.000 A 
ATOM      3  C   UNL     1      46.245   6.803  11.156  0.00  0.00    +0.000 A 
ATOM      4  C   UNL     1      45.489   7.122  12.291  0.00  0.00    +0.000 A 
ATOM      5  C   UNL     1      44.313   6.403  12.539  0.00  0.00    +0.000 A 
ATOM      6  C   UNL     1      43.905   5.380  11.675  0.00  0.00    +0.000 A 
ENDROOT
BRANCH   1   7
ATOM      7  C   UNL     1      44.173   4.024   9.557  0.00  0.00    +0.000 C 
BRANCH   7  10
ATOM      8  O   UNL     1      45.625   1.706   9.173  0.00  0.00    +0.000 OA
ATOM      9  C   UNL     1      45.757   2.609   8.353  0.00  0.00    +0.000 C 
ATOM     10  N   UNL     1      45.090   3.809   8.466  0.00  0.00    +0.000 N 
ATOM     11  H   UNL     1      45.104   4.468   7.701  0.00  0.00    +0.000 HD
BRANCH   9  12
ATOM     12  C   UNL     1      46.609   2.475   7.202  0.00  0.00    +0.000 A 
ATOM     13  C   UNL     1      46.685   3.133   5.990  0.00  0.00    +0.000 A 
ATOM     14  C   UNL     1      47.758   2.530   5.308  0.00  0.00    +0.000 A 
ATOM     15  N   UNL     1      48.328   1.557   6.019  0.00  0.00    +0.000 NA
ATOM     16  N   UNL     1      47.623   1.552   7.164  0.00  0.00    +0.000 N 
ATOM     17  H   UNL     1      47.874   0.889   7.894  0.00  0.00    +0.000 HD
ENDBRANCH   9  12
ENDBRANCH   7  10
ENDBRANCH   1   7
BRANCH   4  18
ATOM     18  C   UNL     1      45.905   8.243  13.210  0.00  0.00    +0.000 C 
BRANCH  18  19
ATOM     19  N   UNL     1      47.210   8.757  12.866  0.00  0.00    +0.000 N 
ATOM     20  C   UNL     1      48.098   9.140  13.841  0.00  0.00    +0.000 C 
ATOM     21  O   UNL     1      47.838   9.024  15.036  0.00  0.00    +0.000 OA
ATOM     22  H   UNL     1      47.350   9.072  11.911  0.00  0.00    +0.000 HD
BRANCH  20  23
ATOM     23  C   UNL     1      49.406   9.636  13.389  0.00  0.00    +0.000 A 
ATOM     24  C   UNL     1      49.834  10.898  13.782  0.00  0.00    +0.000 A 
ATOM     25  S   UNL     1      51.393  11.300  13.220  0.00  0.00    +0.000 S 
ATOM     26  C   UNL     1      51.531   9.825  12.384  0.00  0.00    +0.000 A 
ATOM     27  N   UNL     1      52.642   9.535  11.655  0.00  0.00    +0.000 NA
ATOM     28  C   UNL     1      52.597   8.401  11.041  0.00  0.00    +0.000 A 
ATOM     29  N   UNL     1      51.542   7.527  11.095  0.00  0.00    +0.000 N 
ATOM     30  C   UNL     1      50.415   7.760  11.846  0.00  0.00    +0.000 A 
ATOM     31  O   UNL     1      49.509   6.936  11.909  0.00  0.00    +0.000 OA
ATOM     32  C   UNL     1      50.409   9.030  12.546  0.00  0.00    +0.000 A 
ATOM     33  H   UNL     1      51.572   6.650  10.595  0.00  0.00    +0.000 HD
ENDBRANCH  20  23
ENDBRANCH  18  19
ENDBRANCH   4  18
TORSDOF 6
ENDMDL
MODEL 6
REMARK VINA RESULT:    -6.852      3.702      8.283
REMARK INTER + INTRA:         -10.362
REMARK INTER:                  -9.499
REMARK INTRA:                  -0.863
REMARK UNBOUND:                -1.107
REMARK  Name = 
REMARK  6 active torsions:
REMARK  status: ('A' for Active; 'I' for Inactive)
REMARK    1  A    between atoms: C_2  and  C_25
REMARK    2  A    between atoms: N_3  and  C_4
REMARK    3  A    between atoms: C_4  and  C_5
REMARK    4  A    between atoms: C_8  and  C_9
REMARK    5  A    between atoms: C_9  and  N_10
REMARK    6  A    between atoms: C_11  and  C_13
REMARK                            x       y       z     vdW  Elec       q    Type
REMARK                         _______ _______ _______ _____ _____    ______ ____
ROOT
ATOM      1  C   UNL     1      50.342   7.093  15.672  0.00  0.00    +0.000 A 
ATOM      2  C   UNL     1      49.011   6.693  15.486  0.00  0.00    +0.000 A 
ATOM      3  C   UNL     1      48.327   7.012  14.306  0.00  0.00    +0.000 A 
ATOM      4  C   UNL     1      48.966   7.717  13.278  0.00  0.00    +0.000 A 
ATOM      5  C   UNL     1      50.301   8.103  13.458  0.00  0.00    +0.000 A 
ATOM      6  C   UNL     1      50.985   7.784  14.637  0.00  0.00    +0.000 A 
ENDROOT
BRANCH   1   7
ATOM      7  C   UNL     1      51.051   6.819  16.973  0.00  0.00    +0.000 C 
BRANCH   7  10
ATOM      8  O   UNL     1      49.909   4.781  18.447  0.00  0.00    +0.000 OA
ATOM      9  C   UNL     1      50.926   4.529  17.808  0.00  0.00    +0.000 C 
ATOM     10  N   UNL     1      51.579   5.480  17.056  0.00  0.00    +0.000 N 
ATOM     11  H   UNL     1      52.318   5.205  16.426  0.00  0.00    +0.000 HD
BRANCH   9  12
ATOM     12  C   UNL     1      51.503   3.211  17.784  0.00  0.00    +0.000 A 
ATOM     13  C   UNL     1      52.774   2.722  18.018  0.00  0.00    +0.000 A 
ATOM     14  C   UNL     1      52.671   1.329  17.849  0.00  0.00    +0.000 A 
ATOM     15  N   UNL     1      51.435   0.947  17.527  0.00  0.00    +0.000 NA
ATOM     16  N   UNL     1      50.746   2.101  17.505  0.00  0.00    +0.000 N 
ATOM     17  H   UNL     1      49.752   2.078  17.289  0.00  0.00    +0.000 HD
ENDBRANCH   9  12
ENDBRANCH   7  10
ENDBRANCH   1   7
BRANCH   4  18
ATOM     18  C   UNL     1      48.227   8.091  12.018  0.00  0.00    +0.000 C 
BRANCH  18  19
ATOM     19  N   UNL     1      47.543   6.956  11.445  0.00  0.00    +0.000 N 
ATOM     20  C   UNL     1      46.170   6.904  11.408  0.00  0.00    +0.000 C 
ATOM     21  O   UNL     1      45.475   7.829  11.818  0.00  0.00    +0.000 OA
ATOM     22  H   UNL     1      48.079   6.103  11.318  0.00  0.00    +0.000 HD
BRANCH  20  23
ATOM     23  C   UNL     1      45.570   5.713  10.790  0.00  0.00    +0.000 A 
ATOM     24  C   UNL     1      45.722   5.496   9.426  0.00  0.00    +0.000 A 
ATOM     25  S   UNL     1      45.015   4.045   8.878  0.00  0.00    +0.000 S 
ATOM     26  C   UNL     1      44.430   3.679  10.433  0.00  0.00    +0.000 A 
ATOM     27  N   UNL     1      43.698   2.555  10.658  0.00  0.00    +0.000 NA
ATOM     28  C   UNL     1      43.285   2.422  11.875  0.00  0.00    +0.000 A 
ATOM     29  N   UNL     1      43.543   3.309  12.887  0.00  0.00    +0.000 N 
ATOM     30  C   UNL     1      44.307   4.439  12.715  0.00  0.00    +0.000 A 
ATOM     31  O   UNL     1      44.557   5.189  13.652  0.00  0.00    +0.000 OA
ATOM     32  C   UNL     1      44.784   4.644  11.361  0.00  0.00    +0.000 A 
ATOM     33  H   UNL     1      43.195   3.143  13.820  0.00  0.00    +0.000 HD
ENDBRANCH  20  23
ENDBRANCH  18  19
ENDBRANCH   4  18
TORSDOF 6
ENDMDL
MODEL 7
REMARK VINA RESULT:    -6.235      3.089      8.558
REMARK INTER + INTRA:          -9.529
REMARK INTER:                  -8.724
REMARK INTRA:                  -0.805
REMARK UNBOUND:                -1.107
REMARK  Name = 
REMARK  6 active torsions:
REMARK  status: ('A' for Active; 'I' for Inactive)
REMARK    1  A    between atoms: C_2  and  C_25
REMARK    2  A    between atoms: N_3  and  C_4
REMARK    3  A    between atoms: C_4  and  C_5
REMARK    4  A    between atoms: C_8  and  C_9
REMARK    5  A    between atoms: C_9  and  N_10
REMARK    6  A    between atoms: C_11  and  C_13
REMARK                            x       y       z     vdW  Elec       q    Type
REMARK                         _______ _______ _______ _____ _____    ______ ____
ROOT
ATOM      1  C   UNL     1      49.894   8.119  15.263  0.00  0.00    +0.000 A 
ATOM      2  C   UNL     1      50.301   7.608  14.022  0.00  0.00    +0.000 A 
ATOM      3  C   UNL     1      49.425   7.601  12.929  0.00  0.00    +0.000 A 
ATOM      4  C   UNL     1      48.132   8.126  13.048  0.00  0.00    +0.000 A 
ATOM      5  C   UNL     1      47.730   8.651  14.283  0.00  0.00    +0.000 A 
ATOM      6  C   UNL     1      48.606   8.657  15.375  0.00  0.00    +0.000 A 
ENDROOT
BRANCH   1   7
ATOM      7  C   UNL     1      50.809   8.052  16.458  0.00  0.00    +0.000 C 
BRANCH   7  10
ATOM      8  O   UNL     1      49.400   6.083  17.787  0.00  0.00    +0.000 OA
ATOM      9  C   UNL     1      50.521   5.807  17.371  0.00  0.00    +0.000 C 
ATOM     10  N   UNL     1      51.309   6.723  16.711  0.00  0.00    +0.000 N 
ATOM     11  H   UNL     1      52.156   6.423  16.251  0.00  0.00    +0.000 HD
BRANCH   9  12
ATOM     12  C   UNL     1      51.090   4.495  17.528  0.00  0.00    +0.000 A 
ATOM     13  C   UNL     1      52.342   4.035  17.888  0.00  0.00    +0.000 A 
ATOM     14  C   UNL     1      52.239   2.631  17.871  0.00  0.00    +0.000 A 
ATOM     15  N   UNL     1      51.021   2.216  17.524  0.00  0.00    +0.000 NA
ATOM     16  N   UNL     1      50.342   3.361  17.333  0.00  0.00    +0.000 N 
ATOM     17  H   UNL     1      49.362   3.314  17.064  0.00  0.00    +0.000 HD
ENDBRANCH   9  12
ENDBRANCH   7  10
ENDBRANCH   1   7
BRANCH   4  18
ATOM     18  C   UNL     1      47.172   8.095  11.884  0.00  0.00    +0.000 C 
BRANCH  18  19
ATOM     19  N   UNL     1      46.580   6.789  11.717  0.00  0.00    +0.000 N 
ATOM     20  C   UNL     1      45.237   6.650  11.465  0.00  0.00    +0.000 C 
ATOM     21  O   UNL     1      44.498   7.622  11.332  0.00  0.00    +0.000 OA
ATOM     22  H   UNL     1      47.113   5.990  12.047  0.00  0.00    +0.000 HD
BRANCH  20  23
ATOM     23  C   UNL     1      44.734   5.279  11.296  0.00  0.00    +0.000 A 
ATOM     24  C   UNL     1      44.002   4.686  12.317  0.00  0.00    +0.000 A 
ATOM     25  S   UNL     1      43.444   3.119  11.942  0.00  0.00    +0.000 S 
ATOM     26  C   UNL     1      44.207   3.153  10.421  0.00  0.00    +0.000 A 
ATOM     27  N   UNL     1      44.141   2.085   9.582  0.00  0.00    +0.000 NA
ATOM     28  C   UNL     1      44.797   2.231   8.480  0.00  0.00    +0.000 A 
ATOM     29  N   UNL     1      45.508   3.352   8.139  0.00  0.00    +0.000 N 
ATOM     30  C   UNL     1      45.573   4.469   8.938  0.00  0.00    +0.000 A 
ATOM     31  O   UNL     1      46.181   5.473   8.583  0.00  0.00    +0.000 OA
ATOM     32  C   UNL     1      44.864   4.351  10.197  0.00  0.00    +0.000 A 
ATOM     33  H   UNL     1      45.995   3.406   7.256  0.00  0.00    +0.000 HD
ENDBRANCH  20  23
ENDBRANCH  18  19
ENDBRANCH   4  18
TORSDOF 6
ENDMDL
MODEL 8
REMARK VINA RESULT:    -6.190      1.879      2.597
REMARK INTER + INTRA:          -9.468
REMARK INTER:                  -8.644
REMARK INTRA:                  -0.824
REMARK UNBOUND:                -1.107
REMARK  Name = 
REMARK  6 active torsions:
REMARK  status: ('A' for Active; 'I' for Inactive)
REMARK    1  A    between atoms: C_2  and  C_25
REMARK    2  A    between atoms: N_3  and  C_4
REMARK    3  A    between atoms: C_4  and  C_5
REMARK    4  A    between atoms: C_8  and  C_9
REMARK    5  A    between atoms: C_9  and  N_10
REMARK    6  A    between atoms: C_11  and  C_13
REMARK                            x       y       z     vdW  Elec       q    Type
REMARK                         _______ _______ _______ _____ _____    ______ ____
ROOT
ATOM      1  C   UNL     1      45.697   7.054  12.395  0.00  0.00    +0.000 A 
ATOM      2  C   UNL     1      46.687   6.209  12.917  0.00  0.00    +0.000 A 
ATOM      3  C   UNL     1      47.751   6.730  13.663  0.00  0.00    +0.000 A 
ATOM      4  C   UNL     1      47.837   8.104  13.923  0.00  0.00    +0.000 A 
ATOM      5  C   UNL     1      46.840   8.946  13.414  0.00  0.00    +0.000 A 
ATOM      6  C   UNL     1      45.775   8.425  12.669  0.00  0.00    +0.000 A 
ENDROOT
BRANCH   1   7
ATOM      7  C   UNL     1      44.597   6.502  11.526  0.00  0.00    +0.000 C 
BRANCH   7  10
ATOM      8  O   UNL     1      43.452   4.022  11.116  0.00  0.00    +0.000 OA
ATOM      9  C   UNL     1      44.419   4.330  10.426  0.00  0.00    +0.000 C 
ATOM     10  N   UNL     1      45.069   5.536  10.566  0.00  0.00    +0.000 N 
ATOM     11  H   UNL     1      45.760   5.819   9.886  0.00  0.00    +0.000 HD
BRANCH   9  12
ATOM     12  C   UNL     1      44.935   3.458   9.406  0.00  0.00    +0.000 A 
ATOM     13  C   UNL     1      45.451   3.669   8.142  0.00  0.00    +0.000 A 
ATOM     14  C   UNL     1      45.798   2.391   7.665  0.00  0.00    +0.000 A 
ATOM     15  N   UNL     1      45.525   1.429   8.548  0.00  0.00    +0.000 NA
ATOM     16  N   UNL     1      45.015   2.101   9.595  0.00  0.00    +0.000 N 
ATOM     17  H   UNL     1      44.730   1.582  10.422  0.00  0.00    +0.000 HD
ENDBRANCH   9  12
ENDBRANCH   7  10
ENDBRANCH   1   7
BRANCH   4  18
ATOM     18  C   UNL     1      48.996   8.677  14.699  0.00  0.00    +0.000 C 
BRANCH  18  19
ATOM     19  N   UNL     1      48.993   8.227  16.070  0.00  0.00    +0.000 N 
ATOM     20  C   UNL     1      49.848   7.238  16.492  0.00  0.00    +0.000 C 
ATOM     21  O   UNL     1      50.672   6.728  15.737  0.00  0.00    +0.000 OA
ATOM     22  H   UNL     1      48.184   8.463  16.636  0.00  0.00    +0.000 HD
BRANCH  20  23
ATOM     23  C   UNL     1      49.778   6.862  17.911  0.00  0.00    +0.000 A 
ATOM     24  C   UNL     1      50.221   7.755  18.880  0.00  0.00    +0.000 A 
ATOM     25  S   UNL     1      50.020   7.191  20.476  0.00  0.00    +0.000 S 
ATOM     26  C   UNL     1      49.385   5.709  19.931  0.00  0.00    +0.000 A 
ATOM     27  N   UNL     1      49.022   4.738  20.810  0.00  0.00    +0.000 NA
ATOM     28  C   UNL     1      48.594   3.652  20.259  0.00  0.00    +0.000 A 
ATOM     29  N   UNL     1      48.491   3.452  18.907  0.00  0.00    +0.000 N 
ATOM     30  C   UNL     1      48.812   4.417  17.982  0.00  0.00    +0.000 A 
ATOM     31  O   UNL     1      48.665   4.222  16.780  0.00  0.00    +0.000 OA
ATOM     32  C   UNL     1      49.313   5.653  18.549  0.00  0.00    +0.000 A 
ATOM     33  H   UNL     1      48.141   2.579  18.539  0.00  0.00    +0.000 HD
ENDBRANCH  20  23
ENDBRANCH  18  19
ENDBRANCH   4  18
TORSDOF 6
ENDMDL
MODEL 9
REMARK VINA RESULT:    -6.183      3.477      4.931
REMARK INTER + INTRA:          -9.459
REMARK INTER:                  -8.565
REMARK INTRA:                  -0.894
REMARK UNBOUND:                -1.107
REMARK  Name = 
REMARK  6 active torsions:
REMARK  status: ('A' for Active; 'I' for Inactive)
REMARK    1  A    between atoms: C_2  and  C_25
REMARK    2  A    between atoms: N_3  and  C_4
REMARK    3  A    between atoms: C_4  and  C_5
REMARK    4  A    between atoms: C_8  and  C_9
REMARK    5  A    between atoms: C_9  and  N_10
REMARK    6  A    between atoms: C_11  and  C_13
REMARK                            x       y       z     vdW  Elec       q    Type
REMARK                         _______ _______ _______ _____ _____    ______ ____
ROOT
ATOM      1  C   UNL     1      45.807   5.504  11.585  0.00  0.00    +0.000 A 
ATOM      2  C   UNL     1      46.394   6.777  11.553  0.00  0.00    +0.000 A 
ATOM      3  C   UNL     1      47.225   7.209  12.593  0.00  0.00    +0.000 A 
ATOM      4  C   UNL     1      47.506   6.368  13.678  0.00  0.00    +0.000 A 
ATOM      5  C   UNL     1      46.932   5.090  13.704  0.00  0.00    +0.000 A 
ATOM      6  C   UNL     1      46.101   4.659  12.663  0.00  0.00    +0.000 A 
ENDROOT
BRANCH   1   7
ATOM      7  C   UNL     1      44.849   5.072  10.505  0.00  0.00    +0.000 C 
BRANCH   7  10
ATOM      8  O   UNL     1      44.734   2.400   9.817  0.00  0.00    +0.000 OA
ATOM      9  C   UNL     1      45.381   3.152   9.095  0.00  0.00    +0.000 C 
ATOM     10  N   UNL     1      45.513   4.496   9.362  0.00  0.00    +0.000 N 
ATOM     11  H   UNL     1      45.922   5.110   8.672  0.00  0.00    +0.000 HD
BRANCH   9  12
ATOM     12  C   UNL     1      46.038   2.685   7.904  0.00  0.00    +0.000 A 
ATOM     13  C   UNL     1      46.293   3.253   6.671  0.00  0.00    +0.000 A 
ATOM     14  C   UNL     1      46.998   2.271   5.949  0.00  0.00    +0.000 A 
ATOM     15  N   UNL     1      47.181   1.156   6.658  0.00  0.00    +0.000 NA
ATOM     16  N   UNL     1      46.602   1.436   7.838  0.00  0.00    +0.000 N 
ATOM     17  H   UNL     1      46.615   0.732   8.573  0.00  0.00    +0.000 HD
ENDBRANCH   9  12
ENDBRANCH   7  10
ENDBRANCH   1   7
BRANCH   4  18
ATOM     18  C   UNL     1      48.376   6.837  14.818  0.00  0.00    +0.000 C 
BRANCH  18  19
ATOM     19  N   UNL     1      49.747   7.012  14.404  0.00  0.00    +0.000 N 
ATOM     20  C   UNL     1      50.296   8.266  14.289  0.00  0.00    +0.000 C 
ATOM     21  O   UNL     1      49.661   9.279  14.569  0.00  0.00    +0.000 OA
ATOM     22  H   UNL     1      50.203   6.223  13.955  0.00  0.00    +0.000 HD
BRANCH  20  23
ATOM     23  C   UNL     1      51.705   8.337  13.875  0.00  0.00    +0.000 A 
ATOM     24  C   UNL     1      52.707   8.144  14.818  0.00  0.00    +0.000 A 
ATOM     25  S   UNL     1      54.282   8.203  14.168  0.00  0.00    +0.000 S 
ATOM     26  C   UNL     1      53.686   8.546  12.612  0.00  0.00    +0.000 A 
ATOM     27  N   UNL     1      54.533   8.742  11.566  0.00  0.00    +0.000 NA
ATOM     28  C   UNL     1      53.947   9.033  10.453  0.00  0.00    +0.000 A 
ATOM     29  N   UNL     1      52.590   9.138  10.290  0.00  0.00    +0.000 N 
ATOM     30  C   UNL     1      51.695   8.913  11.309  0.00  0.00    +0.000 A 
ATOM     31  O   UNL     1      50.484   8.971  11.119  0.00  0.00    +0.000 OA
ATOM     32  C   UNL     1      52.302   8.597  12.586  0.00  0.00    +0.000 A 
ATOM     33  H   UNL     1      52.194   9.363   9.389  0.00  0.00    +0.000 HD
ENDBRANCH  20  23
ENDBRANCH  18  19
ENDBRANCH   4  18
TORSDOF 6
ENDMDL
