MODEL 1
REMARK VINA RESULT:    -8.201      0.000      0.000
REMARK INTER + INTRA:         -12.619
REMARK INTER:                 -11.557
REMARK INTRA:                  -1.062
REMARK UNBOUND:                -1.062
REMARK  Name = 
REMARK  7 active torsions:
REMARK  status: ('A' for Active; 'I' for Inactive)
REMARK    1  A    between atoms: C_2  and  C_3
REMARK    2  A    between atoms: C_7  and  C_8
REMARK    3  A    between atoms: C_8  and  O_9
REMARK    4  A    between atoms: O_9  and  C_10
REMARK    5  A    between atoms: C_13  and  C_14
REMARK    6  A    between atoms: C_14  and  N_15
REMARK    7  A    between atoms: C_16  and  C_18
REMARK                            x       y       z     vdW  Elec       q    Type
REMARK                         _______ _______ _______ _____ _____    ______ ____
ROOT
ATOM      1  C   UNL     1      45.185   4.042  12.307  0.00  0.00    +0.000 A 
ATOM      2  C   UNL     1      45.041   5.413  12.082  0.00  0.00    +0.000 A 
ATOM      3  C   UNL     1      45.973   6.318  12.617  0.00  0.00    +0.000 A 
ATOM      4  C   UNL     1      47.049   5.856  13.389  0.00  0.00    +0.000 A 
ATOM      5  C   UNL     1      47.141   4.487  13.660  0.00  0.00    +0.000 A 
ATOM      6  C   UNL     1      46.216   3.592  13.131  0.00  0.00    +0.000 A 
ENDROOT
BRANCH   1   7
ATOM      7  O   UNL     1      44.288   3.206  11.695  0.00  0.00    +0.000 OA
BRANCH   7   8
ATOM      8  C   UNL     1      43.814   3.683  10.425  0.00  0.00    +0.000 C 
BRANCH   8  13
ATOM      9  C   UNL     1      46.150   1.781   8.098  0.00  0.00    +0.000 A 
ATOM     10  C   UNL     1      46.723   2.825   7.363  0.00  0.00    +0.000 A 
ATOM     11  C   UNL     1      46.356   4.145   7.617  0.00  0.00    +0.000 A 
ATOM     12  C   UNL     1      45.418   4.435   8.612  0.00  0.00    +0.000 A 
ATOM     13  C   UNL     1      44.846   3.400   9.365  0.00  0.00    +0.000 A 
ATOM     14  C   UNL     1      45.207   2.073   9.092  0.00  0.00    +0.000 A 
BRANCH   9  16
ATOM     15  N   UNL     1      46.820  -0.677   7.628  0.00  0.00    +0.000 NA
ATOM     16  C   UNL     1      46.521   0.422   7.839  0.00  0.00    +0.000 C 
ENDBRANCH   9  16
ENDBRANCH   8  13
ENDBRANCH   7   8
ENDBRANCH   1   7
BRANCH   4  17
ATOM     17  C   UNL     1      48.104   6.781  13.940  0.00  0.00    +0.000 C 
BRANCH  17  18
ATOM     18  N   UNL     1      48.093   6.827  15.380  0.00  0.00    +0.000 N 
ATOM     19  C   UNL     1      49.267   6.759  16.089  0.00  0.00    +0.000 C 
ATOM     20  O   UNL     1      50.359   6.675  15.532  0.00  0.00    +0.000 OA
ATOM     21  H   UNL     1      47.217   6.624  15.853  0.00  0.00    +0.000 HD
BRANCH  19  22
ATOM     22  C   UNL     1      49.164   6.850  17.550  0.00  0.00    +0.000 A 
ATOM     23  C   UNL     1      49.316   8.082  18.173  0.00  0.00    +0.000 A 
ATOM     24  S   UNL     1      49.178   8.011  19.872  0.00  0.00    +0.000 S 
ATOM     25  C   UNL     1      48.946   6.325  19.836  0.00  0.00    +0.000 A 
ATOM     26  N   UNL     1      48.808   5.614  20.987  0.00  0.00    +0.000 NA
ATOM     27  C   UNL     1      48.660   4.343  20.812  0.00  0.00    +0.000 A 
ATOM     28  N   UNL     1      48.619   3.721  19.591  0.00  0.00    +0.000 N 
ATOM     29  C   UNL     1      48.710   4.404  18.402  0.00  0.00    +0.000 A 
ATOM     30  O   UNL     1      48.590   3.832  17.324  0.00  0.00    +0.000 OA
ATOM     31  C   UNL     1      48.925   5.831  18.543  0.00  0.00    +0.000 A 
ATOM     32  H   UNL     1      48.468   2.726  19.524  0.00  0.00    +0.000 HD
ENDBRANCH  19  22
ENDBRANCH  17  18
ENDBRANCH   4  17
TORSDOF 7
ENDMDL
MODEL 2
REMARK VINA RESULT:    -7.947      2.072      2.524
REMARK INTER + INTRA:         -12.261
REMARK INTER:                 -11.140
REMARK INTRA:                  -1.120
REMARK UNBOUND:                -1.062
REMARK  Name = 
REMARK  7 active torsions:
REMARK  status: ('A' for Active; 'I' for Inactive)
REMARK    1  A    between atoms: C_2  and  C_3
REMARK    2  A    between atoms: C_7  and  C_8
REMARK    3  A    between atoms: C_8  and  O_9
REMARK    4  A    between atoms: O_9  and  C_10
REMARK    5  A    between atoms: C_13  and  C_14
REMARK    6  A    between atoms: C_14  and  N_15
REMARK    7  A    between atoms: C_16  and  C_18
REMARK                            x       y       z     vdW  Elec       q    Type
REMARK                         _______ _______ _______ _____ _____    ______ ____
ROOT
ATOM      1  C   UNL     1      45.585   4.228  12.189  0.00  0.00    +0.000 A 
ATOM      2  C   UNL     1      46.232   3.638  13.277  0.00  0.00    +0.000 A 
ATOM      3  C   UNL     1      47.016   4.420  14.141  0.00  0.00    +0.000 A 
ATOM      4  C   UNL     1      47.163   5.797  13.916  0.00  0.00    +0.000 A 
ATOM      5  C   UNL     1      46.562   6.359  12.785  0.00  0.00    +0.000 A 
ATOM      6  C   UNL     1      45.787   5.582  11.928  0.00  0.00    +0.000 A 
ENDROOT
BRANCH   1   7
ATOM      7  O   UNL     1      44.774   3.425  11.428  0.00  0.00    +0.000 OA
BRANCH   7   8
ATOM      8  C   UNL     1      44.367   4.016  10.183  0.00  0.00    +0.000 C 
BRANCH   8  13
ATOM      9  C   UNL     1      46.360   1.729   7.884  0.00  0.00    +0.000 A 
ATOM     10  C   UNL     1      46.951   2.653   7.015  0.00  0.00    +0.000 A 
ATOM     11  C   UNL     1      46.706   4.016   7.169  0.00  0.00    +0.000 A 
ATOM     12  C   UNL     1      45.874   4.469   8.196  0.00  0.00    +0.000 A 
ATOM     13  C   UNL     1      45.287   3.556   9.083  0.00  0.00    +0.000 A 
ATOM     14  C   UNL     1      45.524   2.185   8.911  0.00  0.00    +0.000 A 
BRANCH   9  16
ATOM     15  N   UNL     1      46.805  -0.808   7.602  0.00  0.00    +0.000 NA
ATOM     16  C   UNL     1      46.606   0.326   7.729  0.00  0.00    +0.000 C 
ENDBRANCH   9  16
ENDBRANCH   8  13
ENDBRANCH   7   8
ENDBRANCH   1   7
BRANCH   4  17
ATOM     17  C   UNL     1      47.948   6.688  14.844  0.00  0.00    +0.000 C 
BRANCH  17  18
ATOM     18  N   UNL     1      49.063   6.003  15.447  0.00  0.00    +0.000 N 
ATOM     19  C   UNL     1      49.180   5.931  16.813  0.00  0.00    +0.000 C 
ATOM     20  O   UNL     1      48.343   6.425  17.565  0.00  0.00    +0.000 OA
ATOM     21  H   UNL     1      49.881   5.834  14.870  0.00  0.00    +0.000 HD
BRANCH  19  22
ATOM     22  C   UNL     1      50.328   5.184  17.340  0.00  0.00    +0.000 A 
ATOM     23  C   UNL     1      51.376   5.870  17.939  0.00  0.00    +0.000 A 
ATOM     24  S   UNL     1      52.634   4.856  18.487  0.00  0.00    +0.000 S 
ATOM     25  C   UNL     1      51.838   3.468  17.909  0.00  0.00    +0.000 A 
ATOM     26  N   UNL     1      52.410   2.238  18.016  0.00  0.00    +0.000 NA
ATOM     27  C   UNL     1      51.705   1.278  17.518  0.00  0.00    +0.000 A 
ATOM     28  N   UNL     1      50.472   1.433  16.937  0.00  0.00    +0.000 N 
ATOM     29  C   UNL     1      49.837   2.648  16.847  0.00  0.00    +0.000 A 
ATOM     30  O   UNL     1      48.700   2.745  16.396  0.00  0.00    +0.000 OA
ATOM     31  C   UNL     1      50.608   3.768  17.350  0.00  0.00    +0.000 A 
ATOM     32  H   UNL     1      49.959   0.634  16.596  0.00  0.00    +0.000 HD
ENDBRANCH  19  22
ENDBRANCH  17  18
ENDBRANCH   4  17
TORSDOF 7
ENDMDL
MODEL 3
REMARK VINA RESULT:    -7.209      3.154      8.969
REMARK INTER + INTRA:         -11.220
REMARK INTER:                  -9.714
REMARK INTRA:                  -1.507
REMARK UNBOUND:                -1.062
REMARK  Name = 
REMARK  7 active torsions:
REMARK  status: ('A' for Active; 'I' for Inactive)
REMARK    1  A    between atoms: C_2  and  C_3
REMARK    2  A    between atoms: C_7  and  C_8
REMARK    3  A    between atoms: C_8  and  O_9
REMARK    4  A    between atoms: O_9  and  C_10
REMARK    5  A    between atoms: C_13  and  C_14
REMARK    6  A    between atoms: C_14  and  N_15
REMARK    7  A    between atoms: C_16  and  C_18
REMARK                            x       y       z     vdW  Elec       q    Type
REMARK                         _______ _______ _______ _____ _____    ______ ____
ROOT
ATOM      1  C   UNL     1      49.726   8.350  15.672  0.00  0.00    +0.000 A 
ATOM      2  C   UNL     1      50.321   7.577  14.673  0.00  0.00    +0.000 A 
ATOM      3  C   UNL     1      49.682   7.414  13.432  0.00  0.00    +0.000 A 
ATOM      4  C   UNL     1      48.439   8.018  13.189  0.00  0.00    +0.000 A 
ATOM      5  C   UNL     1      47.827   8.734  14.223  0.00  0.00    +0.000 A 
ATOM      6  C   UNL     1      48.461   8.892  15.453  0.00  0.00    +0.000 A 
ENDROOT
BRANCH   1   7
ATOM      7  O   UNL     1      50.435   8.532  16.832  0.00  0.00    +0.000 OA
BRANCH   7   8
ATOM      8  C   UNL     1      49.832   7.930  17.988  0.00  0.00    +0.000 C 
BRANCH   8  13
ATOM      9  C   UNL     1      48.782   4.290  17.619  0.00  0.00    +0.000 A 
ATOM     10  C   UNL     1      50.021   3.641  17.608  0.00  0.00    +0.000 A 
ATOM     11  C   UNL     1      51.199   4.378  17.718  0.00  0.00    +0.000 A 
ATOM     12  C   UNL     1      51.149   5.768  17.848  0.00  0.00    +0.000 A 
ATOM     13  C   UNL     1      49.913   6.430  17.875  0.00  0.00    +0.000 A 
ATOM     14  C   UNL     1      48.733   5.684  17.746  0.00  0.00    +0.000 A 
BRANCH   9  16
ATOM     15  N   UNL     1      46.586   2.931  17.407  0.00  0.00    +0.000 NA
ATOM     16  C   UNL     1      47.568   3.538  17.502  0.00  0.00    +0.000 C 
ENDBRANCH   9  16
ENDBRANCH   8  13
ENDBRANCH   7   8
ENDBRANCH   1   7
BRANCH   4  17
ATOM     17  C   UNL     1      47.739   7.918  11.858  0.00  0.00    +0.000 C 
BRANCH  17  18
ATOM     18  N   UNL     1      47.007   6.685  11.716  0.00  0.00    +0.000 N 
ATOM     19  C   UNL     1      45.643   6.662  11.877  0.00  0.00    +0.000 C 
ATOM     20  O   UNL     1      45.001   7.679  12.128  0.00  0.00    +0.000 OA
ATOM     21  H   UNL     1      47.528   5.816  11.781  0.00  0.00    +0.000 HD
BRANCH  19  22
ATOM     22  C   UNL     1      44.976   5.370  11.679  0.00  0.00    +0.000 A 
ATOM     23  C   UNL     1      44.256   4.804  12.723  0.00  0.00    +0.000 A 
ATOM     24  S   UNL     1      43.553   3.299  12.332  0.00  0.00    +0.000 S 
ATOM     25  C   UNL     1      44.217   3.336  10.766  0.00  0.00    +0.000 A 
ATOM     26  N   UNL     1      44.034   2.300   9.904  0.00  0.00    +0.000 NA
ATOM     27  C   UNL     1      44.610   2.452   8.759  0.00  0.00    +0.000 A 
ATOM     28  N   UNL     1      45.339   3.554   8.390  0.00  0.00    +0.000 N 
ATOM     29  C   UNL     1      45.512   4.642   9.211  0.00  0.00    +0.000 A 
ATOM     30  O   UNL     1      46.101   5.648   8.825  0.00  0.00    +0.000 OA
ATOM     31  C   UNL     1      44.924   4.502  10.528  0.00  0.00    +0.000 A 
ATOM     32  H   UNL     1      45.736   3.623   7.465  0.00  0.00    +0.000 HD
ENDBRANCH  19  22
ENDBRANCH  17  18
ENDBRANCH   4  17
TORSDOF 7
ENDMDL
MODEL 4
REMARK VINA RESULT:    -7.179      2.197      2.664
REMARK INTER + INTRA:         -11.178
REMARK INTER:                 -10.186
REMARK INTRA:                  -0.992
REMARK UNBOUND:                -1.062
REMARK  Name = 
REMARK  7 active torsions:
REMARK  status: ('A' for Active; 'I' for Inactive)
REMARK    1  A    between atoms: C_2  and  C_3
REMARK    2  A    between atoms: C_7  and  C_8
REMARK    3  A    between atoms: C_8  and  O_9
REMARK    4  A    between atoms: O_9  and  C_10
REMARK    5  A    between atoms: C_13  and  C_14
REMARK    6  A    between atoms: C_14  and  N_15
REMARK    7  A    between atoms: C_16  and  C_18
REMARK                            x       y       z     vdW  Elec       q    Type
REMARK                         _______ _______ _______ _____ _____    ______ ____
ROOT
ATOM      1  C   UNL     1      45.016   4.442  12.488  0.00  0.00    +0.000 A 
ATOM      2  C   UNL     1      46.336   4.226  12.890  0.00  0.00    +0.000 A 
ATOM      3  C   UNL     1      47.146   5.311  13.266  0.00  0.00    +0.000 A 
ATOM      4  C   UNL     1      46.641   6.619  13.233  0.00  0.00    +0.000 A 
ATOM      5  C   UNL     1      45.339   6.824  12.765  0.00  0.00    +0.000 A 
ATOM      6  C   UNL     1      44.538   5.748  12.390  0.00  0.00    +0.000 A 
ENDROOT
BRANCH   1   7
ATOM      7  O   UNL     1      44.255   3.337  12.207  0.00  0.00    +0.000 OA
BRANCH   7   8
ATOM      8  C   UNL     1      43.544   3.416  10.961  0.00  0.00    +0.000 C 
BRANCH   8  13
ATOM      9  C   UNL     1      45.917   2.021   8.334  0.00  0.00    +0.000 A 
ATOM     10  C   UNL     1      46.305   3.185   7.661  0.00  0.00    +0.000 A 
ATOM     11  C   UNL     1      45.800   4.423   8.054  0.00  0.00    +0.000 A 
ATOM     12  C   UNL     1      44.909   4.509   9.126  0.00  0.00    +0.000 A 
ATOM     13  C   UNL     1      44.522   3.353   9.818  0.00  0.00    +0.000 A 
ATOM     14  C   UNL     1      45.021   2.109   9.406  0.00  0.00    +0.000 A 
BRANCH   9  16
ATOM     15  N   UNL     1      46.846  -0.286   7.606  0.00  0.00    +0.000 NA
ATOM     16  C   UNL     1      46.431   0.745   7.931  0.00  0.00    +0.000 C 
ENDBRANCH   9  16
ENDBRANCH   8  13
ENDBRANCH   7   8
ENDBRANCH   1   7
BRANCH   4  17
ATOM     17  C   UNL     1      47.452   7.809  13.677  0.00  0.00    +0.000 C 
BRANCH  17  18
ATOM     18  N   UNL     1      48.780   7.441  14.095  0.00  0.00    +0.000 N 
ATOM     19  C   UNL     1      49.373   8.068  15.164  0.00  0.00    +0.000 C 
ATOM     20  O   UNL     1      48.797   8.942  15.807  0.00  0.00    +0.000 OA
ATOM     21  H   UNL     1      49.361   6.936  13.433  0.00  0.00    +0.000 HD
BRANCH  19  22
ATOM     22  C   UNL     1      50.714   7.604  15.541  0.00  0.00    +0.000 A 
ATOM     23  C   UNL     1      51.832   8.252  15.032  0.00  0.00    +0.000 A 
ATOM     24  S   UNL     1      53.310   7.583  15.560  0.00  0.00    +0.000 S 
ATOM     25  C   UNL     1      52.507   6.383  16.459  0.00  0.00    +0.000 A 
ATOM     26  N   UNL     1      53.205   5.429  17.132  0.00  0.00    +0.000 NA
ATOM     27  C   UNL     1      52.468   4.570  17.754  0.00  0.00    +0.000 A 
ATOM     28  N   UNL     1      51.097   4.588  17.779  0.00  0.00    +0.000 N 
ATOM     29  C   UNL     1      50.352   5.557  17.150  0.00  0.00    +0.000 A 
ATOM     30  O   UNL     1      49.130   5.594  17.256  0.00  0.00    +0.000 OA
ATOM     31  C   UNL     1      51.131   6.520  16.397  0.00  0.00    +0.000 A 
ATOM     32  H   UNL     1      50.582   3.904  18.312  0.00  0.00    +0.000 HD
ENDBRANCH  19  22
ENDBRANCH  17  18
ENDBRANCH   4  17
TORSDOF 7
ENDMDL
MODEL 5
REMARK VINA RESULT:    -7.096      1.969      2.498
REMARK INTER + INTRA:         -11.062
REMARK INTER:                 -10.051
REMARK INTRA:                  -1.011
REMARK UNBOUND:                -1.062
REMARK  Name = 
REMARK  7 active torsions:
REMARK  status: ('A' for Active; 'I' for Inactive)
REMARK    1  A    between atoms: C_2  and  C_3
REMARK    2  A    between atoms: C_7  and  C_8
REMARK    3  A    between atoms: C_8  and  O_9
REMARK    4  A    between atoms: O_9  and  C_10
REMARK    5  A    between atoms: C_13  and  C_14
REMARK    6  A    between atoms: C_14  and  N_15
REMARK    7  A    between atoms: C_16  and  C_18
REMARK                            x       y       z     vdW  Elec       q    Type
REMARK                         _______ _______ _______ _____ _____    ______ ____
ROOT
ATOM      1  C   UNL     1      45.542   6.349  11.574  0.00  0.00    +0.000 A 
ATOM      2  C   UNL     1      44.948   7.516  12.060  0.00  0.00    +0.000 A 
ATOM      3  C   UNL     1      45.672   8.381  12.897  0.00  0.00    +0.000 A 
ATOM      4  C   UNL     1      46.994   8.078  13.258  0.00  0.00    +0.000 A 
ATOM      5  C   UNL     1      47.550   6.873  12.816  0.00  0.00    +0.000 A 
ATOM      6  C   UNL     1      46.830   6.016  11.989  0.00  0.00    +0.000 A 
ENDROOT
BRANCH   1   7
ATOM      7  O   UNL     1      44.809   5.585  10.702  0.00  0.00    +0.000 OA
BRANCH   7   8
ATOM      8  C   UNL     1      45.362   5.513   9.378  0.00  0.00    +0.000 C 
BRANCH   8  13
ATOM      9  C   UNL     1      46.568   2.369   7.605  0.00  0.00    +0.000 A 
ATOM     10  C   UNL     1      45.749   1.391   8.183  0.00  0.00    +0.000 A 
ATOM     11  C   UNL     1      44.807   1.746   9.146  0.00  0.00    +0.000 A 
ATOM     12  C   UNL     1      44.669   3.080   9.537  0.00  0.00    +0.000 A 
ATOM     13  C   UNL     1      45.473   4.071   8.957  0.00  0.00    +0.000 A 
ATOM     14  C   UNL     1      46.430   3.705   8.001  0.00  0.00    +0.000 A 
BRANCH   9  16
ATOM     15  N   UNL     1      48.326   1.719   5.817  0.00  0.00    +0.000 NA
ATOM     16  C   UNL     1      47.541   2.010   6.617  0.00  0.00    +0.000 C 
ENDBRANCH   9  16
ENDBRANCH   8  13
ENDBRANCH   7   8
ENDBRANCH   1   7
BRANCH   4  17
ATOM     17  C   UNL     1      47.830   9.000  14.108  0.00  0.00    +0.000 C 
BRANCH  17  18
ATOM     18  N   UNL     1      47.574   8.829  15.516  0.00  0.00    +0.000 N 
ATOM     19  C   UNL     1      48.271   9.561  16.445  0.00  0.00    +0.000 C 
ATOM     20  O   UNL     1      49.117  10.390  16.118  0.00  0.00    +0.000 OA
ATOM     21  H   UNL     1      47.095   7.983  15.809  0.00  0.00    +0.000 HD
BRANCH  19  22
ATOM     22  C   UNL     1      47.919   9.348  17.853  0.00  0.00    +0.000 A 
ATOM     23  C   UNL     1      47.527  10.429  18.633  0.00  0.00    +0.000 A 
ATOM     24  S   UNL     1      47.163  10.013  20.247  0.00  0.00    +0.000 S 
ATOM     25  C   UNL     1      47.553   8.380  19.969  0.00  0.00    +0.000 A 
ATOM     26  N   UNL     1      47.501   7.468  20.977  0.00  0.00    +0.000 NA
ATOM     27  C   UNL     1      47.841   6.271  20.630  0.00  0.00    +0.000 A 
ATOM     28  N   UNL     1      48.213   5.901  19.363  0.00  0.00    +0.000 N 
ATOM     29  C   UNL     1      48.236   6.778  18.305  0.00  0.00    +0.000 A 
ATOM     30  O   UNL     1      48.495   6.402  17.166  0.00  0.00    +0.000 OA
ATOM     31  C   UNL     1      47.908   8.147  18.652  0.00  0.00    +0.000 A 
ATOM     32  H   UNL     1      48.436   4.940  19.152  0.00  0.00    +0.000 HD
ENDBRANCH  19  22
ENDBRANCH  17  18
ENDBRANCH   4  17
TORSDOF 7
ENDMDL
MODEL 6
REMARK VINA RESULT:    -7.017      3.830      8.163
REMARK INTER + INTRA:         -10.951
REMARK INTER:                  -8.915
REMARK INTRA:                  -2.036
REMARK UNBOUND:                -1.062
REMARK  Name = 
REMARK  7 active torsions:
REMARK  status: ('A' for Active; 'I' for Inactive)
REMARK    1  A    between atoms: C_2  and  C_3
REMARK    2  A    between atoms: C_7  and  C_8
REMARK    3  A    between atoms: C_8  and  O_9
REMARK    4  A    between atoms: O_9  and  C_10
REMARK    5  A    between atoms: C_13  and  C_14
REMARK    6  A    between atoms: C_14  and  N_15
REMARK    7  A    between atoms: C_16  and  C_18
REMARK                            x       y       z     vdW  Elec       q    Type
REMARK                         _______ _______ _______ _____ _____    ______ ____
ROOT
ATOM      1  C   UNL     1      51.526   6.922  17.399  0.00  0.00    +0.000 A 
ATOM      2  C   UNL     1      50.711   7.732  18.193  0.00  0.00    +0.000 A 
ATOM      3  C   UNL     1      49.694   8.502  17.604  0.00  0.00    +0.000 A 
ATOM      4  C   UNL     1      49.492   8.470  16.217  0.00  0.00    +0.000 A 
ATOM      5  C   UNL     1      50.359   7.705  15.430  0.00  0.00    +0.000 A 
ATOM      6  C   UNL     1      51.368   6.944  16.014  0.00  0.00    +0.000 A 
ENDROOT
BRANCH   1   7
ATOM      7  O   UNL     1      52.450   6.138  18.041  0.00  0.00    +0.000 OA
BRANCH   7   8
ATOM      8  C   UNL     1      51.889   5.259  19.028  0.00  0.00    +0.000 C 
BRANCH   8  13
ATOM      9  C   UNL     1      49.194   3.118  17.401  0.00  0.00    +0.000 A 
ATOM     10  C   UNL     1      49.926   1.987  17.024  0.00  0.00    +0.000 A 
ATOM     11  C   UNL     1      51.292   1.913  17.293  0.00  0.00    +0.000 A 
ATOM     12  C   UNL     1      51.936   2.966  17.947  0.00  0.00    +0.000 A 
ATOM     13  C   UNL     1      51.213   4.099  18.344  0.00  0.00    +0.000 A 
ATOM     14  C   UNL     1      49.844   4.174  18.054  0.00  0.00    +0.000 A 
BRANCH   9  16
ATOM     15  N   UNL     1      46.657   3.269  16.900  0.00  0.00    +0.000 NA
ATOM     16  C   UNL     1      47.791   3.201  17.124  0.00  0.00    +0.000 C 
ENDBRANCH   9  16
ENDBRANCH   8  13
ENDBRANCH   7   8
ENDBRANCH   1   7
BRANCH   4  17
ATOM     17  C   UNL     1      48.381   9.235  15.545  0.00  0.00    +0.000 C 
BRANCH  17  18
ATOM     18  N   UNL     1      47.456   8.368  14.859  0.00  0.00    +0.000 N 
ATOM     19  C   UNL     1      47.322   8.431  13.494  0.00  0.00    +0.000 C 
ATOM     20  O   UNL     1      47.987   9.205  12.811  0.00  0.00    +0.000 OA
ATOM     21  H   UNL     1      46.722   7.931  15.410  0.00  0.00    +0.000 HD
BRANCH  19  22
ATOM     22  C   UNL     1      46.383   7.487  12.878  0.00  0.00    +0.000 A 
ATOM     23  C   UNL     1      45.379   7.964  12.044  0.00  0.00    +0.000 A 
ATOM     24  S   UNL     1      44.369   6.739  11.419  0.00  0.00    +0.000 S 
ATOM     25  C   UNL     1      45.216   5.533  12.270  0.00  0.00    +0.000 A 
ATOM     26  N   UNL     1      44.826   4.231  12.212  0.00  0.00    +0.000 NA
ATOM     27  C   UNL     1      45.545   3.427  12.922  0.00  0.00    +0.000 A 
ATOM     28  N   UNL     1      46.630   3.804  13.672  0.00  0.00    +0.000 N 
ATOM     29  C   UNL     1      47.086   5.100  13.725  0.00  0.00    +0.000 A 
ATOM     30  O   UNL     1      48.107   5.394  14.340  0.00  0.00    +0.000 OA
ATOM     31  C   UNL     1      46.284   6.051  12.982  0.00  0.00    +0.000 A 
ATOM     32  H   UNL     1      47.169   3.119  14.179  0.00  0.00    +0.000 HD
ENDBRANCH  19  22
ENDBRANCH  17  18
ENDBRANCH   4  17
TORSDOF 7
ENDMDL
MODEL 7
REMARK VINA RESULT:    -6.835      2.660      3.552
REMARK INTER + INTRA:         -10.694
REMARK INTER:                  -9.717
REMARK INTRA:                  -0.976
REMARK UNBOUND:                -1.062
REMARK  Name = 
REMARK  7 active torsions:
REMARK  status: ('A' for Active; 'I' for Inactive)
REMARK    1  A    between atoms: C_2  and  C_3
REMARK    2  A    between atoms: C_7  and  C_8
REMARK    3  A    between atoms: C_8  and  O_9
REMARK    4  A    between atoms: O_9  and  C_10
REMARK    5  A    between atoms: C_13  and  C_14
REMARK    6  A    between atoms: C_14  and  N_15
REMARK    7  A    between atoms: C_16  and  C_18
REMARK                            x       y       z     vdW  Elec       q    Type
REMARK                         _______ _______ _______ _____ _____    ______ ____
ROOT
ATOM      1  C   UNL     1      47.371   6.839  12.530  0.00  0.00    +0.000 A 
ATOM      2  C   UNL     1      47.732   8.163  12.791  0.00  0.00    +0.000 A 
ATOM      3  C   UNL     1      48.296   8.509  14.030  0.00  0.00    +0.000 A 
ATOM      4  C   UNL     1      48.495   7.534  15.018  0.00  0.00    +0.000 A 
ATOM      5  C   UNL     1      48.068   6.226  14.764  0.00  0.00    +0.000 A 
ATOM      6  C   UNL     1      47.506   5.884  13.537  0.00  0.00    +0.000 A 
ENDROOT
BRANCH   1   7
ATOM      7  O   UNL     1      46.896   6.551  11.276  0.00  0.00    +0.000 OA
BRANCH   7   8
ATOM      8  C   UNL     1      45.471   6.389  11.213  0.00  0.00    +0.000 C 
BRANCH   8  13
ATOM      9  C   UNL     1      45.425   3.675   8.544  0.00  0.00    +0.000 A 
ATOM     10  C   UNL     1      44.599   2.713   9.138  0.00  0.00    +0.000 A 
ATOM     11  C   UNL     1      44.056   2.939  10.401  0.00  0.00    +0.000 A 
ATOM     12  C   UNL     1      44.328   4.130  11.080  0.00  0.00    +0.000 A 
ATOM     13  C   UNL     1      45.142   5.108  10.492  0.00  0.00    +0.000 A 
ATOM     14  C   UNL     1      45.699   4.866   9.228  0.00  0.00    +0.000 A 
BRANCH   9  16
ATOM     15  N   UNL     1      46.446   3.261   6.199  0.00  0.00    +0.000 NA
ATOM     16  C   UNL     1      45.989   3.446   7.247  0.00  0.00    +0.000 C 
ENDBRANCH   9  16
ENDBRANCH   8  13
ENDBRANCH   7   8
ENDBRANCH   1   7
BRANCH   4  17
ATOM     17  C   UNL     1      49.145   7.844  16.341  0.00  0.00    +0.000 C 
BRANCH  17  18
ATOM     18  N   UNL     1      50.167   6.889  16.688  0.00  0.00    +0.000 N 
ATOM     19  C   UNL     1      49.983   6.021  17.736  0.00  0.00    +0.000 C 
ATOM     20  O   UNL     1      48.949   6.013  18.400  0.00  0.00    +0.000 OA
ATOM     21  H   UNL     1      51.107   7.057  16.342  0.00  0.00    +0.000 HD
BRANCH  19  22
ATOM     22  C   UNL     1      51.060   5.059  17.994  0.00  0.00    +0.000 A 
ATOM     23  C   UNL     1      52.243   5.494  18.578  0.00  0.00    +0.000 A 
ATOM     24  S   UNL     1      53.394   4.255  18.799  0.00  0.00    +0.000 S 
ATOM     25  C   UNL     1      52.365   3.100  18.089  0.00  0.00    +0.000 A 
ATOM     26  N   UNL     1      52.770   1.812  17.922  0.00  0.00    +0.000 NA
ATOM     27  C   UNL     1      51.897   1.050  17.352  0.00  0.00    +0.000 A 
ATOM     28  N   UNL     1      50.650   1.454  16.950  0.00  0.00    +0.000 N 
ATOM     29  C   UNL     1      50.182   2.733  17.140  0.00  0.00    +0.000 A 
ATOM     30  O   UNL     1      49.033   3.045  16.843  0.00  0.00    +0.000 OA
ATOM     31  C   UNL     1      51.142   3.642  17.733  0.00  0.00    +0.000 A 
ATOM     32  H   UNL     1      50.003   0.798  16.539  0.00  0.00    +0.000 HD
ENDBRANCH  19  22
ENDBRANCH  17  18
ENDBRANCH   4  17
TORSDOF 7
ENDMDL
MODEL 8
REMARK VINA RESULT:    -6.714      3.864      8.673
REMARK INTER + INTRA:         -10.523
REMARK INTER:                  -9.110
REMARK INTRA:                  -1.413
REMARK UNBOUND:                -1.062
REMARK  Name = 
REMARK  7 active torsions:
REMARK  status: ('A' for Active; 'I' for Inactive)
REMARK    1  A    between atoms: C_2  and  C_3
REMARK    2  A    between atoms: C_7  and  C_8
REMARK    3  A    between atoms: C_8  and  O_9
REMARK    4  A    between atoms: O_9  and  C_10
REMARK    5  A    between atoms: C_13  and  C_14
REMARK    6  A    between atoms: C_14  and  N_15
REMARK    7  A    between atoms: C_16  and  C_18
REMARK                            x       y       z     vdW  Elec       q    Type
REMARK                         _______ _______ _______ _____ _____    ______ ____
ROOT
ATOM      1  C   UNL     1      51.610   6.914  17.443  0.00  0.00    +0.000 A 
ATOM      2  C   UNL     1      50.612   7.722  17.992  0.00  0.00    +0.000 A 
ATOM      3  C   UNL     1      49.650   8.318  17.160  0.00  0.00    +0.000 A 
ATOM      4  C   UNL     1      49.687   8.116  15.772  0.00  0.00    +0.000 A 
ATOM      5  C   UNL     1      50.732   7.359  15.233  0.00  0.00    +0.000 A 
ATOM      6  C   UNL     1      51.686   6.770  16.058  0.00  0.00    +0.000 A 
ENDROOT
BRANCH   1   7
ATOM      7  O   UNL     1      52.473   6.300  18.314  0.00  0.00    +0.000 OA
BRANCH   7   8
ATOM      8  C   UNL     1      51.829   5.443  19.270  0.00  0.00    +0.000 C 
BRANCH   8  13
ATOM      9  C   UNL     1      49.246   3.124  17.709  0.00  0.00    +0.000 A 
ATOM     10  C   UNL     1      50.058   2.106  17.195  0.00  0.00    +0.000 A 
ATOM     11  C   UNL     1      51.442   2.168  17.351  0.00  0.00    +0.000 A 
ATOM     12  C   UNL     1      52.026   3.242  18.027  0.00  0.00    +0.000 A 
ATOM     13  C   UNL     1      51.224   4.261  18.559  0.00  0.00    +0.000 A 
ATOM     14  C   UNL     1      49.834   4.202  18.383  0.00  0.00    +0.000 A 
BRANCH   9  16
ATOM     15  N   UNL     1      46.674   3.021  17.420  0.00  0.00    +0.000 NA
ATOM     16  C   UNL     1      47.824   3.067  17.549  0.00  0.00    +0.000 C 
ENDBRANCH   9  16
ENDBRANCH   8  13
ENDBRANCH   7   8
ENDBRANCH   1   7
BRANCH   4  17
ATOM     17  C   UNL     1      48.647   8.689  14.844  0.00  0.00    +0.000 C 
BRANCH  17  18
ATOM     18  N   UNL     1      47.648   7.719  14.475  0.00  0.00    +0.000 N 
ATOM     19  C   UNL     1      47.678   7.123  13.238  0.00  0.00    +0.000 C 
ATOM     20  O   UNL     1      48.554   7.377  12.416  0.00  0.00    +0.000 OA
ATOM     21  H   UNL     1      46.787   7.700  15.013  0.00  0.00    +0.000 HD
BRANCH  19  22
ATOM     22  C   UNL     1      46.642   6.121  12.962  0.00  0.00    +0.000 A 
ATOM     23  C   UNL     1      46.864   4.793  13.305  0.00  0.00    +0.000 A 
ATOM     24  S   UNL     1      45.568   3.758  12.907  0.00  0.00    +0.000 S 
ATOM     25  C   UNL     1      44.681   5.042  12.229  0.00  0.00    +0.000 A 
ATOM     26  N   UNL     1      43.469   4.826  11.650  0.00  0.00    +0.000 NA
ATOM     27  C   UNL     1      42.917   5.885  11.158  0.00  0.00    +0.000 A 
ATOM     28  N   UNL     1      43.460   7.144  11.207  0.00  0.00    +0.000 N 
ATOM     29  C   UNL     1      44.659   7.416  11.821  0.00  0.00    +0.000 A 
ATOM     30  O   UNL     1      45.081   8.564  11.921  0.00  0.00    +0.000 OA
ATOM     31  C   UNL     1      45.343   6.252  12.348  0.00  0.00    +0.000 A 
ATOM     32  H   UNL     1      42.960   7.936  10.832  0.00  0.00    +0.000 HD
ENDBRANCH  19  22
ENDBRANCH  17  18
ENDBRANCH   4  17
TORSDOF 7
ENDMDL
MODEL 9
REMARK VINA RESULT:    -6.189      5.871      8.449
REMARK INTER + INTRA:          -9.784
REMARK INTER:                  -8.666
REMARK INTRA:                  -1.118
REMARK UNBOUND:                -1.062
REMARK  Name = 
REMARK  7 active torsions:
REMARK  status: ('A' for Active; 'I' for Inactive)
REMARK    1  A    between atoms: C_2  and  C_3
REMARK    2  A    between atoms: C_7  and  C_8
REMARK    3  A    between atoms: C_8  and  O_9
REMARK    4  A    between atoms: O_9  and  C_10
REMARK    5  A    between atoms: C_13  and  C_14
REMARK    6  A    between atoms: C_14  and  N_15
REMARK    7  A    between atoms: C_16  and  C_18
REMARK                            x       y       z     vdW  Elec       q    Type
REMARK                         _______ _______ _______ _____ _____    ______ ____
ROOT
ATOM      1  C   UNL     1      47.864   7.469  13.165  0.00  0.00    +0.000 A 
ATOM      2  C   UNL     1      48.093   7.749  11.816  0.00  0.00    +0.000 A 
ATOM      3  C   UNL     1      49.388   8.063  11.370  0.00  0.00    +0.000 A 
ATOM      4  C   UNL     1      50.460   8.106  12.275  0.00  0.00    +0.000 A 
ATOM      5  C   UNL     1      50.200   7.888  13.632  0.00  0.00    +0.000 A 
ATOM      6  C   UNL     1      48.916   7.580  14.073  0.00  0.00    +0.000 A 
ENDROOT
BRANCH   1   7
ATOM      7  O   UNL     1      46.594   7.097  13.523  0.00  0.00    +0.000 OA
BRANCH   7   8
ATOM      8  C   UNL     1      46.381   5.676  13.535  0.00  0.00    +0.000 C 
BRANCH   8  13
ATOM      9  C   UNL     1      44.703   4.649  10.277  0.00  0.00    +0.000 A 
ATOM     10  C   UNL     1      43.358   4.598  10.659  0.00  0.00    +0.000 A 
ATOM     11  C   UNL     1      42.990   4.895  11.970  0.00  0.00    +0.000 A 
ATOM     12  C   UNL     1      43.962   5.251  12.908  0.00  0.00    +0.000 A 
ATOM     13  C   UNL     1      45.311   5.319  12.536  0.00  0.00    +0.000 A 
ATOM     14  C   UNL     1      45.676   5.002  11.220  0.00  0.00    +0.000 A 
BRANCH   9  16
ATOM     15  N   UNL     1      45.398   4.093   7.843  0.00  0.00    +0.000 NA
ATOM     16  C   UNL     1      45.088   4.341   8.931  0.00  0.00    +0.000 C 
ENDBRANCH   9  16
ENDBRANCH   8  13
ENDBRANCH   7   8
ENDBRANCH   1   7
BRANCH   4  17
ATOM     17  C   UNL     1      51.875   8.384  11.838  0.00  0.00    +0.000 C 
BRANCH  17  18
ATOM     18  N   UNL     1      52.126   7.950  10.488  0.00  0.00    +0.000 N 
ATOM     19  C   UNL     1      53.014   8.631   9.690  0.00  0.00    +0.000 C 
ATOM     20  O   UNL     1      53.632   9.611  10.096  0.00  0.00    +0.000 OA
ATOM     21  H   UNL     1      51.446   7.332  10.056  0.00  0.00    +0.000 HD
BRANCH  19  22
ATOM     22  C   UNL     1      53.234   8.096   8.341  0.00  0.00    +0.000 A 
ATOM     23  C   UNL     1      53.160   8.948   7.246  0.00  0.00    +0.000 A 
ATOM     24  S   UNL     1      53.430   8.168   5.754  0.00  0.00    +0.000 S 
ATOM     25  C   UNL     1      53.620   6.658   6.516  0.00  0.00    +0.000 A 
ATOM     26  N   UNL     1      53.832   5.529   5.788  0.00  0.00    +0.000 NA
ATOM     27  C   UNL     1      53.938   4.453   6.494  0.00  0.00    +0.000 A 
ATOM     28  N   UNL     1      53.867   4.405   7.863  0.00  0.00    +0.000 N 
ATOM     29  C   UNL     1      53.699   5.526   8.641  0.00  0.00    +0.000 A 
ATOM     30  O   UNL     1      53.720   5.464   9.866  0.00  0.00    +0.000 OA
ATOM     31  C   UNL     1      53.527   6.756   7.894  0.00  0.00    +0.000 A 
ATOM     32  H   UNL     1      53.990   3.534   8.355  0.00  0.00    +0.000 HD
ENDBRANCH  19  22
ENDBRANCH  17  18
ENDBRANCH   4  17
TORSDOF 7
ENDMDL
