MODEL 1
REMARK VINA RESULT:    -8.380      0.000      0.000
REMARK INTER + INTRA:         -13.679
REMARK INTER:                 -12.299
REMARK INTRA:                  -1.380
REMARK UNBOUND:                -1.380
REMARK  Name = 
REMARK  9 active torsions:
REMARK  status: ('A' for Active; 'I' for Inactive)
REMARK    1  A    between atoms: C_1  and  O_2
REMARK    2  A    between atoms: O_2  and  C_3
REMARK    3  A    between atoms: C_10  and  C_11
REMARK    4  A    between atoms: N_13  and  C_14
REMARK    5  A    between atoms: C_14  and  C_15
REMARK    6  A    between atoms: C_18  and  C_19
REMARK    7  A    between atoms: C_19  and  O_20
REMARK    8  A    between atoms: O_20  and  C_21
REMARK    9  A    between atoms: C_21  and  C_22
REMARK                            x       y       z     vdW  Elec       q    Type
REMARK                         _______ _______ _______ _____ _____    ______ ____
ROOT
ATOM      1  C   UNL     1      47.873   6.937  13.183  0.00  0.00    +0.000 C 
ENDROOT
BRANCH   1   2
ATOM      2  C   UNL     1      46.767   6.056  12.670  0.00  0.00    +0.000 A 
ATOM      3  C   UNL     1      46.435   4.867  13.333  0.00  0.00    +0.000 A 
ATOM      4  C   UNL     1      45.444   4.025  12.823  0.00  0.00    +0.000 A 
ATOM      5  C   UNL     1      44.773   4.356  11.637  0.00  0.00    +0.000 A 
ATOM      6  C   UNL     1      45.105   5.544  10.975  0.00  0.00    +0.000 A 
ATOM      7  C   UNL     1      46.096   6.383  11.484  0.00  0.00    +0.000 A 
BRANCH   5   8
ATOM      8  C   UNL     1      43.683   3.462  11.101  0.00  0.00    +0.000 C 
BRANCH   8   9
ATOM      9  O   UNL     1      43.817   3.241   9.698  0.00  0.00    +0.000 OA
BRANCH   9  10
ATOM     10  C   UNL     1      44.552   2.053   9.392  0.00  0.00    +0.000 C 
BRANCH  10  11
ATOM     11  C   UNL     1      45.604   2.345   8.358  0.00  0.00    +0.000 A 
ATOM     12  C   UNL     1      45.894   3.651   7.939  0.00  0.00    +0.000 A 
ATOM     13  C   UNL     1      46.916   3.891   7.019  0.00  0.00    +0.000 A 
ATOM     14  C   UNL     1      47.671   2.832   6.518  0.00  0.00    +0.000 A 
ATOM     15  C   UNL     1      47.405   1.530   6.939  0.00  0.00    +0.000 A 
ATOM     16  C   UNL     1      46.383   1.299   7.855  0.00  0.00    +0.000 A 
ATOM     17  F   UNL     1      46.155   0.041   8.263  0.00  0.00    +0.000 F 
ENDBRANCH  10  11
ENDBRANCH   9  10
ENDBRANCH   8   9
ENDBRANCH   5   8
ENDBRANCH   1   2
BRANCH   1  20
ATOM     18  C   UNL     1      49.004   7.015  15.359  0.00  0.00    +0.000 C 
ATOM     19  O   UNL     1      50.104   6.972  14.812  0.00  0.00    +0.000 OA
ATOM     20  N   UNL     1      47.852   6.996  14.627  0.00  0.00    +0.000 N 
ATOM     21  H   UNL     1      46.948   6.982  15.086  0.00  0.00    +0.000 HD
BRANCH  18  29
ATOM     22  C   UNL     1      48.839   4.637  17.854  0.00  0.00    +0.000 A 
ATOM     23  N   UNL     1      48.758   3.943  19.007  0.00  0.00    +0.000 NA
ATOM     24  C   UNL     1      48.640   4.627  20.148  0.00  0.00    +0.000 A 
ATOM     25  N   UNL     1      48.590   5.948  20.286  0.00  0.00    +0.000 NA
ATOM     26  C   UNL     1      48.681   6.603  19.116  0.00  0.00    +0.000 A 
ATOM     27  S   UNL     1      48.633   8.299  19.104  0.00  0.00    +0.000 S 
ATOM     28  C   UNL     1      48.785   8.340  17.414  0.00  0.00    +0.000 A 
ATOM     29  C   UNL     1      48.880   7.084  16.825  0.00  0.00    +0.000 A 
ATOM     30  C   UNL     1      48.816   6.043  17.848  0.00  0.00    +0.000 A 
BRANCH  22  32
ATOM     31  C   UNL     1      47.819   3.214  16.309  0.00  0.00    +0.000 C 
ATOM     32  O   UNL     1      48.998   3.926  16.682  0.00  0.00    +0.000 OA
ENDBRANCH  22  32
ENDBRANCH  18  29
ENDBRANCH   1  20
TORSDOF 8
ENDMDL
MODEL 2
REMARK VINA RESULT:    -7.788      1.468      1.903
REMARK INTER + INTRA:         -12.810
REMARK INTER:                 -11.802
REMARK INTRA:                  -1.008
REMARK UNBOUND:                -1.380
REMARK  Name = 
REMARK  9 active torsions:
REMARK  status: ('A' for Active; 'I' for Inactive)
REMARK    1  A    between atoms: C_1  and  O_2
REMARK    2  A    between atoms: O_2  and  C_3
REMARK    3  A    between atoms: C_10  and  C_11
REMARK    4  A    between atoms: N_13  and  C_14
REMARK    5  A    between atoms: C_14  and  C_15
REMARK    6  A    between atoms: C_18  and  C_19
REMARK    7  A    between atoms: C_19  and  O_20
REMARK    8  A    between atoms: O_20  and  C_21
REMARK    9  A    between atoms: C_21  and  C_22
REMARK                            x       y       z     vdW  Elec       q    Type
REMARK                         _______ _______ _______ _____ _____    ______ ____
ROOT
ATOM      1  C   UNL     1      47.501   8.593  13.729  0.00  0.00    +0.000 C 
ENDROOT
BRANCH   1   2
ATOM      2  C   UNL     1      46.597   7.750  12.870  0.00  0.00    +0.000 A 
ATOM      3  C   UNL     1      45.343   8.229  12.467  0.00  0.00    +0.000 A 
ATOM      4  C   UNL     1      44.486   7.423  11.715  0.00  0.00    +0.000 A 
ATOM      5  C   UNL     1      44.866   6.122  11.358  0.00  0.00    +0.000 A 
ATOM      6  C   UNL     1      46.119   5.644  11.761  0.00  0.00    +0.000 A 
ATOM      7  C   UNL     1      46.974   6.449  12.513  0.00  0.00    +0.000 A 
BRANCH   5   8
ATOM      8  C   UNL     1      43.953   5.261  10.522  0.00  0.00    +0.000 C 
BRANCH   8   9
ATOM      9  O   UNL     1      44.639   4.140   9.966  0.00  0.00    +0.000 OA
BRANCH   9  10
ATOM     10  C   UNL     1      44.523   4.071   8.542  0.00  0.00    +0.000 C 
BRANCH  10  11
ATOM     11  C   UNL     1      45.591   3.175   7.977  0.00  0.00    +0.000 A 
ATOM     12  C   UNL     1      46.647   3.674   7.202  0.00  0.00    +0.000 A 
ATOM     13  C   UNL     1      47.653   2.823   6.740  0.00  0.00    +0.000 A 
ATOM     14  C   UNL     1      47.623   1.466   7.058  0.00  0.00    +0.000 A 
ATOM     15  C   UNL     1      46.588   0.960   7.842  0.00  0.00    +0.000 A 
ATOM     16  C   UNL     1      45.587   1.815   8.297  0.00  0.00    +0.000 A 
ATOM     17  F   UNL     1      44.610   1.313   9.066  0.00  0.00    +0.000 F 
ENDBRANCH  10  11
ENDBRANCH   9  10
ENDBRANCH   8   9
ENDBRANCH   5   8
ENDBRANCH   1   2
BRANCH   1  20
ATOM     18  C   UNL     1      49.083   7.206  14.990  0.00  0.00    +0.000 C 
ATOM     19  O   UNL     1      49.860   7.189  14.038  0.00  0.00    +0.000 OA
ATOM     20  N   UNL     1      47.894   7.872  14.918  0.00  0.00    +0.000 N 
ATOM     21  H   UNL     1      47.237   7.841  15.689  0.00  0.00    +0.000 HD
BRANCH  18  29
ATOM     22  C   UNL     1      47.777   4.431  16.572  0.00  0.00    +0.000 A 
ATOM     23  N   UNL     1      47.474   3.404  17.392  0.00  0.00    +0.000 NA
ATOM     24  C   UNL     1      48.179   3.267  18.517  0.00  0.00    +0.000 A 
ATOM     25  N   UNL     1      49.172   4.044  18.937  0.00  0.00    +0.000 NA
ATOM     26  C   UNL     1      49.448   5.050  18.090  0.00  0.00    +0.000 A 
ATOM     27  S   UNL     1      50.688   6.144  18.470  0.00  0.00    +0.000 S 
ATOM     28  C   UNL     1      50.420   7.019  17.040  0.00  0.00    +0.000 A 
ATOM     29  C   UNL     1      49.399   6.506  16.247  0.00  0.00    +0.000 A 
ATOM     30  C   UNL     1      48.816   5.327  16.880  0.00  0.00    +0.000 A 
BRANCH  22  32
ATOM     31  C   UNL     1      47.197   3.393  14.562  0.00  0.00    +0.000 C 
ATOM     32  O   UNL     1      47.069   4.546  15.393  0.00  0.00    +0.000 OA
ENDBRANCH  22  32
ENDBRANCH  18  29
ENDBRANCH   1  20
TORSDOF 8
ENDMDL
MODEL 3
REMARK VINA RESULT:    -6.753      4.189      8.243
REMARK INTER + INTRA:         -11.292
REMARK INTER:                  -9.566
REMARK INTRA:                  -1.726
REMARK UNBOUND:                -1.380
REMARK  Name = 
REMARK  9 active torsions:
REMARK  status: ('A' for Active; 'I' for Inactive)
REMARK    1  A    between atoms: C_1  and  O_2
REMARK    2  A    between atoms: O_2  and  C_3
REMARK    3  A    between atoms: C_10  and  C_11
REMARK    4  A    between atoms: N_13  and  C_14
REMARK    5  A    between atoms: C_14  and  C_15
REMARK    6  A    between atoms: C_18  and  C_19
REMARK    7  A    between atoms: C_19  and  O_20
REMARK    8  A    between atoms: O_20  and  C_21
REMARK    9  A    between atoms: C_21  and  C_22
REMARK                            x       y       z     vdW  Elec       q    Type
REMARK                         _______ _______ _______ _____ _____    ______ ____
ROOT
ATOM      1  C   UNL     1      48.410   8.072  11.922  0.00  0.00    +0.000 C 
ENDROOT
BRANCH   1   2
ATOM      2  C   UNL     1      48.558   7.943  13.414  0.00  0.00    +0.000 A 
ATOM      3  C   UNL     1      48.939   6.724  13.990  0.00  0.00    +0.000 A 
ATOM      4  C   UNL     1      49.024   6.594  15.378  0.00  0.00    +0.000 A 
ATOM      5  C   UNL     1      48.723   7.679  16.213  0.00  0.00    +0.000 A 
ATOM      6  C   UNL     1      48.342   8.897  15.636  0.00  0.00    +0.000 A 
ATOM      7  C   UNL     1      48.257   9.025  14.250  0.00  0.00    +0.000 A 
BRANCH   5   8
ATOM      8  C   UNL     1      48.841   7.548  17.711  0.00  0.00    +0.000 C 
BRANCH   8   9
ATOM      9  O   UNL     1      47.946   6.569  18.233  0.00  0.00    +0.000 OA
BRANCH   9  10
ATOM     10  C   UNL     1      48.603   5.599  19.053  0.00  0.00    +0.000 C 
BRANCH  10  11
ATOM     11  C   UNL     1      49.018   4.413  18.226  0.00  0.00    +0.000 A 
ATOM     12  C   UNL     1      50.342   3.954  18.195  0.00  0.00    +0.000 A 
ATOM     13  C   UNL     1      50.682   2.816  17.462  0.00  0.00    +0.000 A 
ATOM     14  C   UNL     1      49.701   2.114  16.761  0.00  0.00    +0.000 A 
ATOM     15  C   UNL     1      48.378   2.551  16.796  0.00  0.00    +0.000 A 
ATOM     16  C   UNL     1      48.047   3.688  17.529  0.00  0.00    +0.000 A 
ATOM     17  F   UNL     1      46.766   4.081  17.567  0.00  0.00    +0.000 F 
ENDBRANCH  10  11
ENDBRANCH   9  10
ENDBRANCH   8   9
ENDBRANCH   5   8
ENDBRANCH   1   2
BRANCH   1  20
ATOM     18  C   UNL     1      46.319   6.924  11.349  0.00  0.00    +0.000 C 
ATOM     19  O   UNL     1      45.658   7.862  11.791  0.00  0.00    +0.000 OA
ATOM     20  N   UNL     1      47.683   6.946  11.381  0.00  0.00    +0.000 N 
ATOM     21  H   UNL     1      48.220   6.149  11.060  0.00  0.00    +0.000 HD
BRANCH  18  29
ATOM     22  C   UNL     1      44.508   4.308  12.685  0.00  0.00    +0.000 A 
ATOM     23  N   UNL     1      43.782   3.197  12.926  0.00  0.00    +0.000 NA
ATOM     24  C   UNL     1      43.463   2.416  11.891  0.00  0.00    +0.000 A 
ATOM     25  N   UNL     1      43.783   2.609  10.615  0.00  0.00    +0.000 NA
ATOM     26  C   UNL     1      44.498   3.730  10.417  0.00  0.00    +0.000 A 
ATOM     27  S   UNL     1      44.997   4.132   8.845  0.00  0.00    +0.000 S 
ATOM     28  C   UNL     1      45.771   5.538   9.399  0.00  0.00    +0.000 A 
ATOM     29  C   UNL     1      45.667   5.736  10.771  0.00  0.00    +0.000 A 
ATOM     30  C   UNL     1      44.906   4.649  11.380  0.00  0.00    +0.000 A 
BRANCH  22  32
ATOM     31  C   UNL     1      46.050   4.804  14.367  0.00  0.00    +0.000 C 
ATOM     32  O   UNL     1      44.804   5.130  13.753  0.00  0.00    +0.000 OA
ENDBRANCH  22  32
ENDBRANCH  18  29
ENDBRANCH   1  20
TORSDOF 8
ENDMDL
MODEL 4
REMARK VINA RESULT:    -6.558      4.429      9.099
REMARK INTER + INTRA:         -11.005
REMARK INTER:                  -9.070
REMARK INTRA:                  -1.935
REMARK UNBOUND:                -1.380
REMARK  Name = 
REMARK  9 active torsions:
REMARK  status: ('A' for Active; 'I' for Inactive)
REMARK    1  A    between atoms: C_1  and  O_2
REMARK    2  A    between atoms: O_2  and  C_3
REMARK    3  A    between atoms: C_10  and  C_11
REMARK    4  A    between atoms: N_13  and  C_14
REMARK    5  A    between atoms: C_14  and  C_15
REMARK    6  A    between atoms: C_18  and  C_19
REMARK    7  A    between atoms: C_19  and  O_20
REMARK    8  A    between atoms: O_20  and  C_21
REMARK    9  A    between atoms: C_21  and  C_22
REMARK                            x       y       z     vdW  Elec       q    Type
REMARK                         _______ _______ _______ _____ _____    ______ ____
ROOT
ATOM      1  C   UNL     1      47.235   3.327  16.807  0.00  0.00    +0.000 C 
ENDROOT
BRANCH   1   2
ATOM      2  C   UNL     1      48.511   3.697  17.512  0.00  0.00    +0.000 A 
ATOM      3  C   UNL     1      49.728   3.110  17.141  0.00  0.00    +0.000 A 
ATOM      4  C   UNL     1      50.901   3.417  17.834  0.00  0.00    +0.000 A 
ATOM      5  C   UNL     1      50.876   4.312  18.913  0.00  0.00    +0.000 A 
ATOM      6  C   UNL     1      49.660   4.898  19.283  0.00  0.00    +0.000 A 
ATOM      7  C   UNL     1      48.488   4.590  18.591  0.00  0.00    +0.000 A 
BRANCH   5   8
ATOM      8  C   UNL     1      52.147   4.666  19.643  0.00  0.00    +0.000 C 
BRANCH   8   9
ATOM      9  O   UNL     1      52.332   6.076  19.739  0.00  0.00    +0.000 OA
BRANCH   9  10
ATOM     10  C   UNL     1      52.852   6.650  18.536  0.00  0.00    +0.000 C 
BRANCH  10  11
ATOM     11  C   UNL     1      51.728   7.157  17.674  0.00  0.00    +0.000 A 
ATOM     12  C   UNL     1      51.471   6.629  16.401  0.00  0.00    +0.000 A 
ATOM     13  C   UNL     1      50.385   7.083  15.650  0.00  0.00    +0.000 A 
ATOM     14  C   UNL     1      49.535   8.060  16.167  0.00  0.00    +0.000 A 
ATOM     15  C   UNL     1      49.770   8.582  17.438  0.00  0.00    +0.000 A 
ATOM     16  C   UNL     1      50.856   8.125  18.180  0.00  0.00    +0.000 A 
ATOM     17  F   UNL     1      51.055   8.625  19.408  0.00  0.00    +0.000 F 
ENDBRANCH  10  11
ENDBRANCH   9  10
ENDBRANCH   8   9
ENDBRANCH   5   8
ENDBRANCH   1   2
BRANCH   1  20
ATOM     18  C   UNL     1      46.899   4.222  14.547  0.00  0.00    +0.000 C 
ATOM     19  O   UNL     1      47.324   3.181  14.050  0.00  0.00    +0.000 OA
ATOM     20  N   UNL     1      46.827   4.377  15.902  0.00  0.00    +0.000 N 
ATOM     21  H   UNL     1      46.522   5.255  16.305  0.00  0.00    +0.000 HD
BRANCH  18  29
ATOM     22  C   UNL     1      44.081   4.809  12.645  0.00  0.00    +0.000 A 
ATOM     23  N   UNL     1      43.111   5.296  11.844  0.00  0.00    +0.000 NA
ATOM     24  C   UNL     1      43.291   6.502  11.299  0.00  0.00    +0.000 A 
ATOM     25  N   UNL     1      44.341   7.301  11.456  0.00  0.00    +0.000 NA
ATOM     26  C   UNL     1      45.280   6.783  12.266  0.00  0.00    +0.000 A 
ATOM     27  S   UNL     1      46.694   7.670  12.577  0.00  0.00    +0.000 S 
ATOM     28  C   UNL     1      47.300   6.442  13.580  0.00  0.00    +0.000 A 
ATOM     29  C   UNL     1      46.454   5.346  13.706  0.00  0.00    +0.000 A 
ATOM     30  C   UNL     1      45.244   5.552  12.915  0.00  0.00    +0.000 A 
BRANCH  22  32
ATOM     31  C   UNL     1      43.533   2.567  12.286  0.00  0.00    +0.000 C 
ATOM     32  O   UNL     1      43.873   3.578  13.234  0.00  0.00    +0.000 OA
ENDBRANCH  22  32
ENDBRANCH  18  29
ENDBRANCH   1  20
TORSDOF 8
ENDMDL
MODEL 5
REMARK VINA RESULT:    -6.514      4.334      8.647
REMARK INTER + INTRA:         -10.941
REMARK INTER:                  -8.675
REMARK INTRA:                  -2.266
REMARK UNBOUND:                -1.380
REMARK  Name = 
REMARK  9 active torsions:
REMARK  status: ('A' for Active; 'I' for Inactive)
REMARK    1  A    between atoms: C_1  and  O_2
REMARK    2  A    between atoms: O_2  and  C_3
REMARK    3  A    between atoms: C_10  and  C_11
REMARK    4  A    between atoms: N_13  and  C_14
REMARK    5  A    between atoms: C_14  and  C_15
REMARK    6  A    between atoms: C_18  and  C_19
REMARK    7  A    between atoms: C_19  and  O_20
REMARK    8  A    between atoms: O_20  and  C_21
REMARK    9  A    between atoms: C_21  and  C_22
REMARK                            x       y       z     vdW  Elec       q    Type
REMARK                         _______ _______ _______ _____ _____    ______ ____
ROOT
ATOM      1  C   UNL     1      48.703   8.263  14.606  0.00  0.00    +0.000 C 
ENDROOT
BRANCH   1   2
ATOM      2  C   UNL     1      49.174   7.828  15.967  0.00  0.00    +0.000 A 
ATOM      3  C   UNL     1      48.585   8.349  17.127  0.00  0.00    +0.000 A 
ATOM      4  C   UNL     1      49.061   7.983  18.388  0.00  0.00    +0.000 A 
ATOM      5  C   UNL     1      50.139   7.095  18.510  0.00  0.00    +0.000 A 
ATOM      6  C   UNL     1      50.727   6.575  17.350  0.00  0.00    +0.000 A 
ATOM      7  C   UNL     1      50.252   6.942  16.092  0.00  0.00    +0.000 A 
BRANCH   5   8
ATOM      8  C   UNL     1      50.636   6.677  19.871  0.00  0.00    +0.000 C 
BRANCH   8   9
ATOM      9  O   UNL     1      50.527   5.269  20.069  0.00  0.00    +0.000 OA
BRANCH   9  10
ATOM     10  C   UNL     1      49.169   4.821  20.121  0.00  0.00    +0.000 C 
BRANCH  10  11
ATOM     11  C   UNL     1      48.773   4.209  18.806  0.00  0.00    +0.000 A 
ATOM     12  C   UNL     1      49.520   3.184  18.207  0.00  0.00    +0.000 A 
ATOM     13  C   UNL     1      49.093   2.598  17.014  0.00  0.00    +0.000 A 
ATOM     14  C   UNL     1      47.908   3.018  16.411  0.00  0.00    +0.000 A 
ATOM     15  C   UNL     1      47.147   4.025  17.005  0.00  0.00    +0.000 A 
ATOM     16  C   UNL     1      47.581   4.605  18.194  0.00  0.00    +0.000 A 
ATOM     17  F   UNL     1      46.825   5.558  18.759  0.00  0.00    +0.000 F 
ENDBRANCH  10  11
ENDBRANCH   9  10
ENDBRANCH   8   9
ENDBRANCH   5   8
ENDBRANCH   1   2
BRANCH   1  20
ATOM     18  C   UNL     1      47.822   6.365  13.324  0.00  0.00    +0.000 C 
ATOM     19  O   UNL     1      48.950   6.084  12.926  0.00  0.00    +0.000 OA
ATOM     20  N   UNL     1      47.612   7.430  14.152  0.00  0.00    +0.000 N 
ATOM     21  H   UNL     1      46.674   7.686  14.437  0.00  0.00    +0.000 HD
BRANCH  18  29
ATOM     22  C   UNL     1      44.857   7.125  11.730  0.00  0.00    +0.000 A 
ATOM     23  N   UNL     1      43.645   7.133  11.138  0.00  0.00    +0.000 NA
ATOM     24  C   UNL     1      42.972   5.982  11.066  0.00  0.00    +0.000 A 
ATOM     25  N   UNL     1      43.365   4.796  11.520  0.00  0.00    +0.000 NA
ATOM     26  C   UNL     1      44.579   4.829  12.094  0.00  0.00    +0.000 A 
ATOM     27  S   UNL     1      45.238   3.401  12.733  0.00  0.00    +0.000 S 
ATOM     28  C   UNL     1      46.643   4.214  13.229  0.00  0.00    +0.000 A 
ATOM     29  C   UNL     1      46.649   5.571  12.922  0.00  0.00    +0.000 A 
ATOM     30  C   UNL     1      45.409   5.938  12.244  0.00  0.00    +0.000 A 
BRANCH  22  32
ATOM     31  C   UNL     1      44.908   9.313  12.543  0.00  0.00    +0.000 C 
ATOM     32  O   UNL     1      45.564   8.310  11.770  0.00  0.00    +0.000 OA
ENDBRANCH  22  32
ENDBRANCH  18  29
ENDBRANCH   1  20
TORSDOF 8
ENDMDL
MODEL 6
REMARK VINA RESULT:    -6.499      4.494      8.354
REMARK INTER + INTRA:         -10.918
REMARK INTER:                  -9.080
REMARK INTRA:                  -1.837
REMARK UNBOUND:                -1.380
REMARK  Name = 
REMARK  9 active torsions:
REMARK  status: ('A' for Active; 'I' for Inactive)
REMARK    1  A    between atoms: C_1  and  O_2
REMARK    2  A    between atoms: O_2  and  C_3
REMARK    3  A    between atoms: C_10  and  C_11
REMARK    4  A    between atoms: N_13  and  C_14
REMARK    5  A    between atoms: C_14  and  C_15
REMARK    6  A    between atoms: C_18  and  C_19
REMARK    7  A    between atoms: C_19  and  O_20
REMARK    8  A    between atoms: O_20  and  C_21
REMARK    9  A    between atoms: C_21  and  C_22
REMARK                            x       y       z     vdW  Elec       q    Type
REMARK                         _______ _______ _______ _____ _____    ______ ____
ROOT
ATOM      1  C   UNL     1      47.888   8.984  13.901  0.00  0.00    +0.000 C 
ENDROOT
BRANCH   1   2
ATOM      2  C   UNL     1      48.384   8.509  15.239  0.00  0.00    +0.000 A 
ATOM      3  C   UNL     1      48.112   9.240  16.403  0.00  0.00    +0.000 A 
ATOM      4  C   UNL     1      48.620   8.824  17.635  0.00  0.00    +0.000 A 
ATOM      5  C   UNL     1      49.415   7.672  17.723  0.00  0.00    +0.000 A 
ATOM      6  C   UNL     1      49.687   6.942  16.560  0.00  0.00    +0.000 A 
ATOM      7  C   UNL     1      49.180   7.359  15.330  0.00  0.00    +0.000 A 
BRANCH   5   8
ATOM      8  C   UNL     1      49.940   7.206  19.058  0.00  0.00    +0.000 C 
BRANCH   8   9
ATOM      9  O   UNL     1      50.935   6.194  18.915  0.00  0.00    +0.000 OA
BRANCH   9  10
ATOM     10  C   UNL     1      50.574   4.968  19.557  0.00  0.00    +0.000 C 
BRANCH  10  11
ATOM     11  C   UNL     1      50.087   3.972  18.540  0.00  0.00    +0.000 A 
ATOM     12  C   UNL     1      50.965   3.127  17.847  0.00  0.00    +0.000 A 
ATOM     13  C   UNL     1      50.475   2.175  16.951  0.00  0.00    +0.000 A 
ATOM     14  C   UNL     1      49.102   2.045  16.748  0.00  0.00    +0.000 A 
ATOM     15  C   UNL     1      48.217   2.867  17.444  0.00  0.00    +0.000 A 
ATOM     16  C   UNL     1      48.714   3.816  18.334  0.00  0.00    +0.000 A 
ATOM     17  F   UNL     1      47.846   4.584  19.009  0.00  0.00    +0.000 F 
ENDBRANCH  10  11
ENDBRANCH   9  10
ENDBRANCH   8   9
ENDBRANCH   5   8
ENDBRANCH   1   2
BRANCH   1  20
ATOM     18  C   UNL     1      46.700   7.428  12.422  0.00  0.00    +0.000 C 
ATOM     19  O   UNL     1      47.706   7.281  11.732  0.00  0.00    +0.000 OA
ATOM     20  N   UNL     1      46.703   8.256  13.507  0.00  0.00    +0.000 N 
ATOM     21  H   UNL     1      45.856   8.410  14.042  0.00  0.00    +0.000 HD
BRANCH  18  29
ATOM     22  C   UNL     1      45.653   4.156  12.748  0.00  0.00    +0.000 A 
ATOM     23  N   UNL     1      44.993   2.980  12.760  0.00  0.00    +0.000 NA
ATOM     24  C   UNL     1      43.746   2.952  12.283  0.00  0.00    +0.000 A 
ATOM     25  N   UNL     1      43.059   3.975  11.783  0.00  0.00    +0.000 NA
ATOM     26  C   UNL     1      43.749   5.128  11.796  0.00  0.00    +0.000 A 
ATOM     27  S   UNL     1      43.024   6.539  11.191  0.00  0.00    +0.000 S 
ATOM     28  C   UNL     1      44.413   7.454  11.528  0.00  0.00    +0.000 A 
ATOM     29  C   UNL     1      45.446   6.723  12.104  0.00  0.00    +0.000 A 
ATOM     30  C   UNL     1      45.046   5.328  12.262  0.00  0.00    +0.000 A 
BRANCH  22  32
ATOM     31  C   UNL     1      46.939   4.509  14.665  0.00  0.00    +0.000 C 
ATOM     32  O   UNL     1      46.928   4.186  13.275  0.00  0.00    +0.000 OA
ENDBRANCH  22  32
ENDBRANCH  18  29
ENDBRANCH   1  20
TORSDOF 8
ENDMDL
MODEL 7
REMARK VINA RESULT:    -6.370      3.817      5.046
REMARK INTER + INTRA:         -10.730
REMARK INTER:                 -10.192
REMARK INTRA:                  -0.538
REMARK UNBOUND:                -1.380
REMARK  Name = 
REMARK  9 active torsions:
REMARK  status: ('A' for Active; 'I' for Inactive)
REMARK    1  A    between atoms: C_1  and  O_2
REMARK    2  A    between atoms: O_2  and  C_3
REMARK    3  A    between atoms: C_10  and  C_11
REMARK    4  A    between atoms: N_13  and  C_14
REMARK    5  A    between atoms: C_14  and  C_15
REMARK    6  A    between atoms: C_18  and  C_19
REMARK    7  A    between atoms: C_19  and  O_20
REMARK    8  A    between atoms: O_20  and  C_21
REMARK    9  A    between atoms: C_21  and  C_22
REMARK                            x       y       z     vdW  Elec       q    Type
REMARK                         _______ _______ _______ _____ _____    ______ ____
ROOT
ATOM      1  C   UNL     1      46.414   8.383  13.150  0.00  0.00    +0.000 C 
ENDROOT
BRANCH   1   2
ATOM      2  C   UNL     1      45.733   7.125  12.686  0.00  0.00    +0.000 A 
ATOM      3  C   UNL     1      46.140   5.873  13.167  0.00  0.00    +0.000 A 
ATOM      4  C   UNL     1      45.541   4.704  12.694  0.00  0.00    +0.000 A 
ATOM      5  C   UNL     1      44.528   4.767  11.726  0.00  0.00    +0.000 A 
ATOM      6  C   UNL     1      44.122   6.017  11.246  0.00  0.00    +0.000 A 
ATOM      7  C   UNL     1      44.722   7.184  11.718  0.00  0.00    +0.000 A 
BRANCH   5   8
ATOM      8  C   UNL     1      43.861   3.507  11.235  0.00  0.00    +0.000 C 
BRANCH   8   9
ATOM      9  O   UNL     1      43.974   3.360   9.821  0.00  0.00    +0.000 OA
BRANCH   9  10
ATOM     10  C   UNL     1      44.474   2.076   9.436  0.00  0.00    +0.000 C 
BRANCH  10  11
ATOM     11  C   UNL     1      45.592   2.229   8.442  0.00  0.00    +0.000 A 
ATOM     12  C   UNL     1      46.402   1.150   8.061  0.00  0.00    +0.000 A 
ATOM     13  C   UNL     1      47.395   1.315   7.093  0.00  0.00    +0.000 A 
ATOM     14  C   UNL     1      47.581   2.555   6.484  0.00  0.00    +0.000 A 
ATOM     15  C   UNL     1      46.771   3.631   6.841  0.00  0.00    +0.000 A 
ATOM     16  C   UNL     1      45.785   3.460   7.808  0.00  0.00    +0.000 A 
ATOM     17  F   UNL     1      45.003   4.503   8.125  0.00  0.00    +0.000 F 
ENDBRANCH  10  11
ENDBRANCH   9  10
ENDBRANCH   8   9
ENDBRANCH   5   8
ENDBRANCH   1   2
BRANCH   1  20
ATOM     18  C   UNL     1      48.859   8.224  13.270  0.00  0.00    +0.000 C 
ATOM     19  O   UNL     1      48.800   7.872  14.447  0.00  0.00    +0.000 OA
ATOM     20  N   UNL     1      47.728   8.501  12.559  0.00  0.00    +0.000 N 
ATOM     21  H   UNL     1      47.787   8.837  11.605  0.00  0.00    +0.000 HD
BRANCH  18  29
ATOM     22  C   UNL     1      51.720  10.046  13.908  0.00  0.00    +0.000 A 
ATOM     23  N   UNL     1      52.936  10.629  13.911  0.00  0.00    +0.000 NA
ATOM     24  C   UNL     1      53.772  10.348  12.908  0.00  0.00    +0.000 A 
ATOM     25  N   UNL     1      53.542   9.539  11.879  0.00  0.00    +0.000 NA
ATOM     26  C   UNL     1      52.324   8.972  11.918  0.00  0.00    +0.000 A 
ATOM     27  S   UNL     1      51.859   7.910  10.678  0.00  0.00    +0.000 S 
ATOM     28  C   UNL     1      50.341   7.661  11.395  0.00  0.00    +0.000 A 
ATOM     29  C   UNL     1      50.153   8.365  12.580  0.00  0.00    +0.000 A 
ATOM     30  C   UNL     1      51.343   9.152  12.890  0.00  0.00    +0.000 A 
BRANCH  22  32
ATOM     31  C   UNL     1      51.365   9.797  16.203  0.00  0.00    +0.000 C 
ATOM     32  O   UNL     1      50.874  10.312  14.966  0.00  0.00    +0.000 OA
ENDBRANCH  22  32
ENDBRANCH  18  29
ENDBRANCH   1  20
TORSDOF 8
ENDMDL
MODEL 8
REMARK VINA RESULT:    -6.319      1.696      2.273
REMARK INTER + INTRA:         -10.655
REMARK INTER:                  -9.358
REMARK INTRA:                  -1.297
REMARK UNBOUND:                -1.380
REMARK  Name = 
REMARK  9 active torsions:
REMARK  status: ('A' for Active; 'I' for Inactive)
REMARK    1  A    between atoms: C_1  and  O_2
REMARK    2  A    between atoms: O_2  and  C_3
REMARK    3  A    between atoms: C_10  and  C_11
REMARK    4  A    between atoms: N_13  and  C_14
REMARK    5  A    between atoms: C_14  and  C_15
REMARK    6  A    between atoms: C_18  and  C_19
REMARK    7  A    between atoms: C_19  and  O_20
REMARK    8  A    between atoms: O_20  and  C_21
REMARK    9  A    between atoms: C_21  and  C_22
REMARK                            x       y       z     vdW  Elec       q    Type
REMARK                         _______ _______ _______ _____ _____    ______ ____
ROOT
ATOM      1  C   UNL     1      49.232   8.214  13.963  0.00  0.00    +0.000 C 
ENDROOT
BRANCH   1   2
ATOM      2  C   UNL     1      47.970   7.611  13.409  0.00  0.00    +0.000 A 
ATOM      3  C   UNL     1      47.924   6.259  13.043  0.00  0.00    +0.000 A 
ATOM      4  C   UNL     1      46.766   5.718  12.480  0.00  0.00    +0.000 A 
ATOM      5  C   UNL     1      45.637   6.521  12.267  0.00  0.00    +0.000 A 
ATOM      6  C   UNL     1      45.683   7.872  12.633  0.00  0.00    +0.000 A 
ATOM      7  C   UNL     1      46.841   8.412  13.194  0.00  0.00    +0.000 A 
BRANCH   5   8
ATOM      8  C   UNL     1      44.377   5.931  11.686  0.00  0.00    +0.000 C 
BRANCH   8   9
ATOM      9  O   UNL     1      44.495   4.526  11.473  0.00  0.00    +0.000 OA
BRANCH   9  10
ATOM     10  C   UNL     1      43.841   4.089  10.278  0.00  0.00    +0.000 C 
BRANCH  10  11
ATOM     11  C   UNL     1      44.831   3.439   9.351  0.00  0.00    +0.000 A 
ATOM     12  C   UNL     1      44.897   2.048   9.191  0.00  0.00    +0.000 A 
ATOM     13  C   UNL     1      45.788   1.479   8.279  0.00  0.00    +0.000 A 
ATOM     14  C   UNL     1      46.615   2.294   7.507  0.00  0.00    +0.000 A 
ATOM     15  C   UNL     1      46.548   3.679   7.644  0.00  0.00    +0.000 A 
ATOM     16  C   UNL     1      45.657   4.238   8.556  0.00  0.00    +0.000 A 
ATOM     17  F   UNL     1      45.593   5.574   8.660  0.00  0.00    +0.000 F 
ENDBRANCH  10  11
ENDBRANCH   9  10
ENDBRANCH   8   9
ENDBRANCH   5   8
ENDBRANCH   1   2
BRANCH   1  20
ATOM     18  C   UNL     1      50.022   7.409  16.141  0.00  0.00    +0.000 C 
ATOM     19  O   UNL     1      50.806   6.635  15.595  0.00  0.00    +0.000 OA
ATOM     20  N   UNL     1      49.205   8.219  15.408  0.00  0.00    +0.000 N 
ATOM     21  H   UNL     1      48.527   8.819  15.864  0.00  0.00    +0.000 HD
BRANCH  18  29
ATOM     22  C   UNL     1      48.012   5.881  18.493  0.00  0.00    +0.000 A 
ATOM     23  N   UNL     1      47.385   5.443  19.604  0.00  0.00    +0.000 NA
ATOM     24  C   UNL     1      47.771   5.937  20.783  0.00  0.00    +0.000 A 
ATOM     25  N   UNL     1      48.727   6.835  20.997  0.00  0.00    +0.000 NA
ATOM     26  C   UNL     1      49.332   7.240  19.868  0.00  0.00    +0.000 A 
ATOM     27  S   UNL     1      50.579   8.388  19.955  0.00  0.00    +0.000 S 
ATOM     28  C   UNL     1      50.785   8.363  18.271  0.00  0.00    +0.000 A 
ATOM     29  C   UNL     1      49.928   7.491  17.609  0.00  0.00    +0.000 A 
ATOM     30  C   UNL     1      49.056   6.820  18.569  0.00  0.00    +0.000 A 
BRANCH  22  32
ATOM     31  C   UNL     1      48.158   4.028  17.079  0.00  0.00    +0.000 C 
ATOM     32  O   UNL     1      47.633   5.339  17.282  0.00  0.00    +0.000 OA
ENDBRANCH  22  32
ENDBRANCH  18  29
ENDBRANCH   1  20
TORSDOF 8
ENDMDL
MODEL 9
REMARK VINA RESULT:    -6.045      4.424      5.611
REMARK INTER + INTRA:         -10.252
REMARK INTER:                  -8.852
REMARK INTRA:                  -1.400
REMARK UNBOUND:                -1.380
REMARK  Name = 
REMARK  9 active torsions:
REMARK  status: ('A' for Active; 'I' for Inactive)
REMARK    1  A    between atoms: C_1  and  O_2
REMARK    2  A    between atoms: O_2  and  C_3
REMARK    3  A    between atoms: C_10  and  C_11
REMARK    4  A    between atoms: N_13  and  C_14
REMARK    5  A    between atoms: C_14  and  C_15
REMARK    6  A    between atoms: C_18  and  C_19
REMARK    7  A    between atoms: C_19  and  O_20
REMARK    8  A    between atoms: O_20  and  C_21
REMARK    9  A    between atoms: C_21  and  C_22
REMARK                            x       y       z     vdW  Elec       q    Type
REMARK                         _______ _______ _______ _____ _____    ______ ____
ROOT
ATOM      1  C   UNL     1      48.150   8.874  12.080  0.00  0.00    +0.000 C 
ENDROOT
BRANCH   1   2
ATOM      2  C   UNL     1      47.224   7.705  12.285  0.00  0.00    +0.000 A 
ATOM      3  C   UNL     1      47.725   6.460  12.689  0.00  0.00    +0.000 A 
ATOM      4  C   UNL     1      46.870   5.365  12.827  0.00  0.00    +0.000 A 
ATOM      5  C   UNL     1      45.500   5.494  12.555  0.00  0.00    +0.000 A 
ATOM      6  C   UNL     1      45.001   6.739  12.151  0.00  0.00    +0.000 A 
ATOM      7  C   UNL     1      45.856   7.832  12.013  0.00  0.00    +0.000 A 
BRANCH   5   8
ATOM      8  C   UNL     1      44.571   4.320  12.730  0.00  0.00    +0.000 C 
BRANCH   8   9
ATOM      9  O   UNL     1      44.850   3.276  11.799  0.00  0.00    +0.000 OA
BRANCH   9  10
ATOM     10  C   UNL     1      44.167   3.448  10.554  0.00  0.00    +0.000 C 
BRANCH  10  11
ATOM     11  C   UNL     1      45.102   3.178   9.406  0.00  0.00    +0.000 A 
ATOM     12  C   UNL     1      45.366   1.879   8.952  0.00  0.00    +0.000 A 
ATOM     13  C   UNL     1      46.194   1.667   7.848  0.00  0.00    +0.000 A 
ATOM     14  C   UNL     1      46.756   2.751   7.176  0.00  0.00    +0.000 A 
ATOM     15  C   UNL     1      46.488   4.049   7.606  0.00  0.00    +0.000 A 
ATOM     16  C   UNL     1      45.663   4.252   8.709  0.00  0.00    +0.000 A 
ATOM     17  F   UNL     1      45.401   5.509   9.097  0.00  0.00    +0.000 F 
ENDBRANCH  10  11
ENDBRANCH   9  10
ENDBRANCH   8   9
ENDBRANCH   5   8
ENDBRANCH   1   2
BRANCH   1  20
ATOM     18  C   UNL     1      50.581   9.162  11.923  0.00  0.00    +0.000 C 
ATOM     19  O   UNL     1      50.511  10.246  12.498  0.00  0.00    +0.000 OA
ATOM     20  N   UNL     1      49.461   8.423  11.672  0.00  0.00    +0.000 N 
ATOM     21  H   UNL     1      49.520   7.554  11.155  0.00  0.00    +0.000 HD
BRANCH  18  29
ATOM     22  C   UNL     1      53.489   8.273  13.553  0.00  0.00    +0.000 A 
ATOM     23  N   UNL     1      54.718   7.853  13.919  0.00  0.00    +0.000 NA
ATOM     24  C   UNL     1      55.549   7.428  12.965  0.00  0.00    +0.000 A 
ATOM     25  N   UNL     1      55.303   7.368  11.660  0.00  0.00    +0.000 NA
ATOM     26  C   UNL     1      54.068   7.787  11.338  0.00  0.00    +0.000 A 
ATOM     27  S   UNL     1      53.583   7.781   9.711  0.00  0.00    +0.000 S 
ATOM     28  C   UNL     1      52.054   8.397  10.114  0.00  0.00    +0.000 A 
ATOM     29  C   UNL     1      51.874   8.615  11.475  0.00  0.00    +0.000 A 
ATOM     30  C   UNL     1      53.084   8.251  12.207  0.00  0.00    +0.000 A 
BRANCH  22  32
ATOM     31  C   UNL     1      53.303   9.135  15.716  0.00  0.00    +0.000 C 
ATOM     32  O   UNL     1      52.622   8.677  14.548  0.00  0.00    +0.000 OA
ENDBRANCH  22  32
ENDBRANCH  18  29
ENDBRANCH   1  20
TORSDOF 8
ENDMDL
