MODEL 1
REMARK VINA RESULT:    -6.931      0.000      0.000
REMARK INTER + INTRA:          -9.163
REMARK INTER:                  -8.754
REMARK INTRA:                  -0.408
REMARK UNBOUND:                -0.408
REMARK  Name = 
REMARK  5 active torsions:
REMARK  status: ('A' for Active; 'I' for Inactive)
REMARK    1  A    between atoms: N_1  and  C_2
REMARK    2  A    between atoms: C_2  and  C_3
REMARK    3  A    between atoms: C_6  and  O_7
REMARK    4  A    between atoms: O_7  and  C_8
REMARK    5  A    between atoms: C_8  and  C_9
REMARK                            x       y       z     vdW  Elec       q    Type
REMARK                         _______ _______ _______ _____ _____    ______ ____
ROOT
ATOM      1  C   UNL     1      46.074   4.582  13.087  0.00  0.00    +0.000 A 
ATOM      2  C   UNL     1      45.352   3.530  12.525  0.00  0.00    +0.000 A 
ATOM      3  C   UNL     1      44.946   3.627  11.194  0.00  0.00    +0.000 A 
ATOM      4  C   UNL     1      45.292   4.750  10.452  0.00  0.00    +0.000 A 
ATOM      5  C   UNL     1      45.967   5.771  11.108  0.00  0.00    +0.000 A 
ATOM      6  N   UNL     1      46.376   5.711  12.397  0.00  0.00    +0.000 NA
ENDROOT
BRANCH   1   7
ATOM      7  C   UNL     1      46.655   4.469  14.478  0.00  0.00    +0.000 C 
BRANCH   7   8
ATOM      8  N   UNL     1      47.471   3.261  14.621  0.00  0.00    +0.000 NA
ATOM      9  H   UNL     1      46.856   2.465  14.772  0.00  0.00    +0.000 HD
ATOM     10  H   UNL     1      48.009   3.363  15.486  0.00  0.00    +0.000 HD
ENDBRANCH   7   8
ENDBRANCH   1   7
BRANCH   4  11
ATOM     11  O   UNL     1      44.946   4.740   9.129  0.00  0.00    +0.000 OA
BRANCH  11  12
ATOM     12  C   UNL     1      44.577   3.452   8.623  0.00  0.00    +0.000 C 
BRANCH  12  13
ATOM     13  C   UNL     1      45.756   2.770   7.976  0.00  0.00    +0.000 A 
ATOM     14  C   UNL     1      46.682   3.472   7.201  0.00  0.00    +0.000 A 
ATOM     15  C   UNL     1      47.755   2.780   6.660  0.00  0.00    +0.000 A 
ATOM     16  N   UNL     1      47.971   1.461   6.847  0.00  0.00    +0.000 NA
ATOM     17  C   UNL     1      47.074   0.802   7.610  0.00  0.00    +0.000 A 
ATOM     18  C   UNL     1      45.970   1.405   8.191  0.00  0.00    +0.000 A 
ENDBRANCH  12  13
ENDBRANCH  11  12
ENDBRANCH   4  11
TORSDOF 5
ENDMDL
MODEL 2
REMARK VINA RESULT:    -6.924      1.335      5.799
REMARK INTER + INTRA:          -9.153
REMARK INTER:                  -8.794
REMARK INTRA:                  -0.360
REMARK UNBOUND:                -0.408
REMARK  Name = 
REMARK  5 active torsions:
REMARK  status: ('A' for Active; 'I' for Inactive)
REMARK    1  A    between atoms: N_1  and  C_2
REMARK    2  A    between atoms: C_2  and  C_3
REMARK    3  A    between atoms: C_6  and  O_7
REMARK    4  A    between atoms: O_7  and  C_8
REMARK    5  A    between atoms: C_8  and  C_9
REMARK                            x       y       z     vdW  Elec       q    Type
REMARK                         _______ _______ _______ _____ _____    ______ ____
ROOT
ATOM      1  C   UNL     1      46.594   2.742   6.848  0.00  0.00    +0.000 A 
ATOM      2  C   UNL     1      46.445   1.624   7.666  0.00  0.00    +0.000 A 
ATOM      3  C   UNL     1      45.586   1.701   8.762  0.00  0.00    +0.000 A 
ATOM      4  C   UNL     1      44.880   2.875   8.998  0.00  0.00    +0.000 A 
ATOM      5  C   UNL     1      45.130   3.955   8.162  0.00  0.00    +0.000 A 
ATOM      6  N   UNL     1      45.956   3.915   7.090  0.00  0.00    +0.000 NA
ENDROOT
BRANCH   1   7
ATOM      7  C   UNL     1      47.403   2.669   5.573  0.00  0.00    +0.000 C 
BRANCH   7   8
ATOM      8  N   UNL     1      48.580   1.811   5.733  0.00  0.00    +0.000 NA
ATOM      9  H   UNL     1      48.942   1.924   6.677  0.00  0.00    +0.000 HD
ATOM     10  H   UNL     1      49.307   2.179   5.113  0.00  0.00    +0.000 HD
ENDBRANCH   7   8
ENDBRANCH   1   7
BRANCH   4  11
ATOM     11  O   UNL     1      43.984   2.853  10.031  0.00  0.00    +0.000 OA
BRANCH  11  12
ATOM     12  C   UNL     1      43.739   4.131  10.629  0.00  0.00    +0.000 C 
BRANCH  12  13
ATOM     13  C   UNL     1      44.858   4.511  11.565  0.00  0.00    +0.000 A 
ATOM     14  C   UNL     1      45.347   3.626  12.530  0.00  0.00    +0.000 A 
ATOM     15  C   UNL     1      46.396   4.038  13.337  0.00  0.00    +0.000 A 
ATOM     16  N   UNL     1      46.990   5.247  13.240  0.00  0.00    +0.000 NA
ATOM     17  C   UNL     1      46.514   6.082  12.295  0.00  0.00    +0.000 A 
ATOM     18  C   UNL     1      45.469   5.763  11.442  0.00  0.00    +0.000 A 
ENDBRANCH  12  13
ENDBRANCH  11  12
ENDBRANCH   4  11
TORSDOF 5
ENDMDL
MODEL 3
REMARK VINA RESULT:    -6.852      1.240      5.621
REMARK INTER + INTRA:          -9.063
REMARK INTER:                  -8.606
REMARK INTRA:                  -0.457
REMARK UNBOUND:                -0.408
REMARK  Name = 
REMARK  5 active torsions:
REMARK  status: ('A' for Active; 'I' for Inactive)
REMARK    1  A    between atoms: N_1  and  C_2
REMARK    2  A    between atoms: C_2  and  C_3
REMARK    3  A    between atoms: C_6  and  O_7
REMARK    4  A    between atoms: O_7  and  C_8
REMARK    5  A    between atoms: C_8  and  C_9
REMARK                            x       y       z     vdW  Elec       q    Type
REMARK                         _______ _______ _______ _____ _____    ______ ____
ROOT
ATOM      1  C   UNL     1      46.456   1.973   7.736  0.00  0.00    +0.000 A 
ATOM      2  C   UNL     1      46.379   3.331   7.429  0.00  0.00    +0.000 A 
ATOM      3  C   UNL     1      45.445   4.121   8.099  0.00  0.00    +0.000 A 
ATOM      4  C   UNL     1      44.633   3.549   9.071  0.00  0.00    +0.000 A 
ATOM      5  C   UNL     1      44.743   2.179   9.274  0.00  0.00    +0.000 A 
ATOM      6  N   UNL     1      45.637   1.383   8.644  0.00  0.00    +0.000 NA
ENDROOT
BRANCH   1   7
ATOM      7  C   UNL     1      47.540   1.103   7.143  0.00  0.00    +0.000 C 
BRANCH   7   8
ATOM      8  N   UNL     1      48.388   1.859   6.218  0.00  0.00    +0.000 NA
ATOM      9  H   UNL     1      48.754   1.223   5.515  0.00  0.00    +0.000 HD
ATOM     10  H   UNL     1      49.201   2.181   6.751  0.00  0.00    +0.000 HD
ENDBRANCH   7   8
ENDBRANCH   1   7
BRANCH   4  11
ATOM     11  O   UNL     1      43.807   4.396   9.756  0.00  0.00    +0.000 OA
BRANCH  11  12
ATOM     12  C   UNL     1      43.758   4.162  11.168  0.00  0.00    +0.000 C 
BRANCH  12  13
ATOM     13  C   UNL     1      44.977   4.730  11.850  0.00  0.00    +0.000 A 
ATOM     14  C   UNL     1      45.498   5.981  11.512  0.00  0.00    +0.000 A 
ATOM     15  C   UNL     1      46.606   6.447  12.202  0.00  0.00    +0.000 A 
ATOM     16  N   UNL     1      47.211   5.768  13.200  0.00  0.00    +0.000 NA
ATOM     17  C   UNL     1      46.686   4.569  13.523  0.00  0.00    +0.000 A 
ATOM     18  C   UNL     1      45.583   4.018  12.890  0.00  0.00    +0.000 A 
ENDBRANCH  12  13
ENDBRANCH  11  12
ENDBRANCH   4  11
TORSDOF 5
ENDMDL
MODEL 4
REMARK VINA RESULT:    -6.393      1.320      2.460
REMARK INTER + INTRA:          -8.484
REMARK INTER:                  -8.096
REMARK INTRA:                  -0.388
REMARK UNBOUND:                -0.408
REMARK  Name = 
REMARK  5 active torsions:
REMARK  status: ('A' for Active; 'I' for Inactive)
REMARK    1  A    between atoms: N_1  and  C_2
REMARK    2  A    between atoms: C_2  and  C_3
REMARK    3  A    between atoms: C_6  and  O_7
REMARK    4  A    between atoms: O_7  and  C_8
REMARK    5  A    between atoms: C_8  and  C_9
REMARK                            x       y       z     vdW  Elec       q    Type
REMARK                         _______ _______ _______ _____ _____    ______ ____
ROOT
ATOM      1  C   UNL     1      45.758   6.168  12.230  0.00  0.00    +0.000 A 
ATOM      2  C   UNL     1      45.628   6.347  10.854  0.00  0.00    +0.000 A 
ATOM      3  C   UNL     1      45.219   5.268  10.070  0.00  0.00    +0.000 A 
ATOM      4  C   UNL     1      44.926   4.052  10.675  0.00  0.00    +0.000 A 
ATOM      5  C   UNL     1      45.134   3.950  12.045  0.00  0.00    +0.000 A 
ATOM      6  N   UNL     1      45.528   4.975  12.836  0.00  0.00    +0.000 NA
ENDROOT
BRANCH   1   7
ATOM      7  C   UNL     1      46.062   7.336  13.140  0.00  0.00    +0.000 C 
BRANCH   7   8
ATOM      8  N   UNL     1      45.176   8.471  12.870  0.00  0.00    +0.000 NA
ATOM      9  H   UNL     1      45.431   8.880  11.974  0.00  0.00    +0.000 HD
ATOM     10  H   UNL     1      45.384   9.188  13.570  0.00  0.00    +0.000 HD
ENDBRANCH   7   8
ENDBRANCH   1   7
BRANCH   4  11
ATOM     11  O   UNL     1      44.440   3.065   9.864  0.00  0.00    +0.000 OA
BRANCH  11  12
ATOM     12  C   UNL     1      44.575   3.331   8.463  0.00  0.00    +0.000 C 
BRANCH  12  13
ATOM     13  C   UNL     1      45.786   2.632   7.897  0.00  0.00    +0.000 A 
ATOM     14  C   UNL     1      46.049   1.285   8.153  0.00  0.00    +0.000 A 
ATOM     15  C   UNL     1      47.168   0.706   7.576  0.00  0.00    +0.000 A 
ATOM     16  N   UNL     1      48.021   1.364   6.762  0.00  0.00    +0.000 NA
ATOM     17  C   UNL     1      47.744   2.660   6.515  0.00  0.00    +0.000 A 
ATOM     18  C   UNL     1      46.652   3.327   7.046  0.00  0.00    +0.000 A 
ENDBRANCH  12  13
ENDBRANCH  11  12
ENDBRANCH   4  11
TORSDOF 5
ENDMDL
MODEL 5
REMARK VINA RESULT:    -6.123      1.337      1.778
REMARK INTER + INTRA:          -8.142
REMARK INTER:                  -7.791
REMARK INTRA:                  -0.351
REMARK UNBOUND:                -0.408
REMARK  Name = 
REMARK  5 active torsions:
REMARK  status: ('A' for Active; 'I' for Inactive)
REMARK    1  A    between atoms: N_1  and  C_2
REMARK    2  A    between atoms: C_2  and  C_3
REMARK    3  A    between atoms: C_6  and  O_7
REMARK    4  A    between atoms: O_7  and  C_8
REMARK    5  A    between atoms: C_8  and  C_9
REMARK                            x       y       z     vdW  Elec       q    Type
REMARK                         _______ _______ _______ _____ _____    ______ ____
ROOT
ATOM      1  C   UNL     1      46.319   5.852  12.514  0.00  0.00    +0.000 A 
ATOM      2  C   UNL     1      45.557   4.738  12.860  0.00  0.00    +0.000 A 
ATOM      3  C   UNL     1      44.803   4.104  11.873  0.00  0.00    +0.000 A 
ATOM      4  C   UNL     1      44.847   4.578  10.567  0.00  0.00    +0.000 A 
ATOM      5  C   UNL     1      45.591   5.725  10.325  0.00  0.00    +0.000 A 
ATOM      6  N   UNL     1      46.335   6.364  11.257  0.00  0.00    +0.000 NA
ENDROOT
BRANCH   1   7
ATOM      7  C   UNL     1      47.259   6.490  13.511  0.00  0.00    +0.000 C 
BRANCH   7   8
ATOM      8  N   UNL     1      48.653   6.126  13.242  0.00  0.00    +0.000 NA
ATOM      9  H   UNL     1      48.694   5.609  12.368  0.00  0.00    +0.000 HD
ATOM     10  H   UNL     1      48.936   5.463  13.969  0.00  0.00    +0.000 HD
ENDBRANCH   7   8
ENDBRANCH   1   7
BRANCH   4  11
ATOM     11  O   UNL     1      44.160   3.856   9.630  0.00  0.00    +0.000 OA
BRANCH  11  12
ATOM     12  C   UNL     1      44.620   2.509   9.468  0.00  0.00    +0.000 C 
BRANCH  12  13
ATOM     13  C   UNL     1      45.598   2.408   8.325  0.00  0.00    +0.000 A 
ATOM     14  C   UNL     1      46.397   1.278   8.132  0.00  0.00    +0.000 A 
ATOM     15  C   UNL     1      47.253   1.249   7.043  0.00  0.00    +0.000 A 
ATOM     16  N   UNL     1      47.356   2.247   6.140  0.00  0.00    +0.000 NA
ATOM     17  C   UNL     1      46.568   3.324   6.333  0.00  0.00    +0.000 A 
ATOM     18  C   UNL     1      45.682   3.447   7.392  0.00  0.00    +0.000 A 
ENDBRANCH  12  13
ENDBRANCH  11  12
ENDBRANCH   4  11
TORSDOF 5
ENDMDL
MODEL 6
REMARK VINA RESULT:    -6.077      2.237      3.077
REMARK INTER + INTRA:          -8.084
REMARK INTER:                  -7.696
REMARK INTRA:                  -0.388
REMARK UNBOUND:                -0.408
REMARK  Name = 
REMARK  5 active torsions:
REMARK  status: ('A' for Active; 'I' for Inactive)
REMARK    1  A    between atoms: N_1  and  C_2
REMARK    2  A    between atoms: C_2  and  C_3
REMARK    3  A    between atoms: C_6  and  O_7
REMARK    4  A    between atoms: O_7  and  C_8
REMARK    5  A    between atoms: C_8  and  C_9
REMARK                            x       y       z     vdW  Elec       q    Type
REMARK                         _______ _______ _______ _____ _____    ______ ____
ROOT
ATOM      1  C   UNL     1      44.521   7.320  11.385  0.00  0.00    +0.000 A 
ATOM      2  C   UNL     1      45.781   6.724  11.389  0.00  0.00    +0.000 A 
ATOM      3  C   UNL     1      45.885   5.367  11.083  0.00  0.00    +0.000 A 
ATOM      4  C   UNL     1      44.741   4.648  10.756  0.00  0.00    +0.000 A 
ATOM      5  C   UNL     1      43.523   5.312  10.828  0.00  0.00    +0.000 A 
ATOM      6  N   UNL     1      43.386   6.626  11.121  0.00  0.00    +0.000 NA
ENDROOT
BRANCH   1   7
ATOM      7  C   UNL     1      44.368   8.812  11.573  0.00  0.00    +0.000 C 
BRANCH   7   8
ATOM      8  N   UNL     1      43.086   9.290  11.050  0.00  0.00    +0.000 NA
ATOM      9  H   UNL     1      42.587   9.771  11.794  0.00  0.00    +0.000 HD
ATOM     10  H   UNL     1      42.523   8.463  10.831  0.00  0.00    +0.000 HD
ENDBRANCH   7   8
ENDBRANCH   1   7
BRANCH   4  11
ATOM     11  O   UNL     1      44.924   3.348  10.374  0.00  0.00    +0.000 OA
BRANCH  11  12
ATOM     12  C   UNL     1      44.530   3.067   9.026  0.00  0.00    +0.000 C 
BRANCH  12  13
ATOM     13  C   UNL     1      45.690   2.527   8.228  0.00  0.00    +0.000 A 
ATOM     14  C   UNL     1      46.543   3.364   7.504  0.00  0.00    +0.000 A 
ATOM     15  C   UNL     1      47.604   2.795   6.817  0.00  0.00    +0.000 A 
ATOM     16  N   UNL     1      47.876   1.473   6.813  0.00  0.00    +0.000 NA
ATOM     17  C   UNL     1      47.051   0.682   7.528  0.00  0.00    +0.000 A 
ATOM     18  C   UNL     1      45.964   1.156   8.246  0.00  0.00    +0.000 A 
ENDBRANCH  12  13
ENDBRANCH  11  12
ENDBRANCH   4  11
TORSDOF 5
ENDMDL
MODEL 7
REMARK VINA RESULT:    -5.795      2.237      6.173
REMARK INTER + INTRA:          -7.728
REMARK INTER:                  -7.403
REMARK INTRA:                  -0.325
REMARK UNBOUND:                -0.408
REMARK  Name = 
REMARK  5 active torsions:
REMARK  status: ('A' for Active; 'I' for Inactive)
REMARK    1  A    between atoms: N_1  and  C_2
REMARK    2  A    between atoms: C_2  and  C_3
REMARK    3  A    between atoms: C_6  and  O_7
REMARK    4  A    between atoms: O_7  and  C_8
REMARK    5  A    between atoms: C_8  and  C_9
REMARK                            x       y       z     vdW  Elec       q    Type
REMARK                         _______ _______ _______ _____ _____    ______ ____
ROOT
ATOM      1  C   UNL     1      46.346   2.941   7.515  0.00  0.00    +0.000 A 
ATOM      2  C   UNL     1      45.737   2.095   8.441  0.00  0.00    +0.000 A 
ATOM      3  C   UNL     1      45.078   2.657   9.534  0.00  0.00    +0.000 A 
ATOM      4  C   UNL     1      45.018   4.039   9.663  0.00  0.00    +0.000 A 
ATOM      5  C   UNL     1      45.697   4.802   8.721  0.00  0.00    +0.000 A 
ATOM      6  N   UNL     1      46.345   4.291   7.649  0.00  0.00    +0.000 NA
ENDROOT
BRANCH   1   7
ATOM      7  C   UNL     1      46.952   2.392   6.243  0.00  0.00    +0.000 C 
BRANCH   7   8
ATOM      8  N   UNL     1      48.095   1.521   6.527  0.00  0.00    +0.000 NA
ATOM      9  H   UNL     1      48.735   1.552   5.737  0.00  0.00    +0.000 HD
ATOM     10  H   UNL     1      47.741   0.560   6.558  0.00  0.00    +0.000 HD
ENDBRANCH   7   8
ENDBRANCH   1   7
BRANCH   4  11
ATOM     11  O   UNL     1      44.277   4.526  10.704  0.00  0.00    +0.000 OA
BRANCH  11  12
ATOM     12  C   UNL     1      45.023   4.755  11.905  0.00  0.00    +0.000 C 
BRANCH  12  13
ATOM     13  C   UNL     1      45.258   6.228  12.120  0.00  0.00    +0.000 A 
ATOM     14  C   UNL     1      46.259   6.701  12.973  0.00  0.00    +0.000 A 
ATOM     15  C   UNL     1      46.431   8.070  13.099  0.00  0.00    +0.000 A 
ATOM     16  N   UNL     1      45.695   8.986  12.434  0.00  0.00    +0.000 NA
ATOM     17  C   UNL     1      44.742   8.512  11.605  0.00  0.00    +0.000 A 
ATOM     18  C   UNL     1      44.493   7.162  11.413  0.00  0.00    +0.000 A 
ENDBRANCH  12  13
ENDBRANCH  11  12
ENDBRANCH   4  11
TORSDOF 5
ENDMDL
MODEL 8
REMARK VINA RESULT:    -4.981      3.902      5.859
REMARK INTER + INTRA:          -6.699
REMARK INTER:                  -6.419
REMARK INTRA:                  -0.280
REMARK UNBOUND:                -0.408
REMARK  Name = 
REMARK  5 active torsions:
REMARK  status: ('A' for Active; 'I' for Inactive)
REMARK    1  A    between atoms: N_1  and  C_2
REMARK    2  A    between atoms: C_2  and  C_3
REMARK    3  A    between atoms: C_6  and  O_7
REMARK    4  A    between atoms: O_7  and  C_8
REMARK    5  A    between atoms: C_8  and  C_9
REMARK                            x       y       z     vdW  Elec       q    Type
REMARK                         _______ _______ _______ _____ _____    ______ ____
ROOT
ATOM      1  C   UNL     1      48.538   4.384  18.392  0.00  0.00    +0.000 A 
ATOM      2  C   UNL     1      48.032   3.138  18.027  0.00  0.00    +0.000 A 
ATOM      3  C   UNL     1      47.536   2.965  16.735  0.00  0.00    +0.000 A 
ATOM      4  C   UNL     1      47.581   4.022  15.835  0.00  0.00    +0.000 A 
ATOM      5  C   UNL     1      48.054   5.242  16.301  0.00  0.00    +0.000 A 
ATOM      6  N   UNL     1      48.543   5.446  17.546  0.00  0.00    +0.000 NA
ENDROOT
BRANCH   1   7
ATOM      7  C   UNL     1      49.212   4.588  19.729  0.00  0.00    +0.000 C 
BRANCH   7   8
ATOM      8  N   UNL     1      48.501   3.885  20.800  0.00  0.00    +0.000 NA
ATOM      9  H   UNL     1      48.119   4.572  21.446  0.00  0.00    +0.000 HD
ATOM     10  H   UNL     1      49.201   3.364  21.335  0.00  0.00    +0.000 HD
ENDBRANCH   7   8
ENDBRANCH   1   7
BRANCH   4  11
ATOM     11  O   UNL     1      47.167   3.759  14.559  0.00  0.00    +0.000 OA
BRANCH  11  12
ATOM     12  C   UNL     1      46.919   4.925  13.765  0.00  0.00    +0.000 C 
BRANCH  12  13
ATOM     13  C   UNL     1      45.764   4.698  12.822  0.00  0.00    +0.000 A 
ATOM     14  C   UNL     1      45.081   5.757  12.221  0.00  0.00    +0.000 A 
ATOM     15  C   UNL     1      44.047   5.468  11.345  0.00  0.00    +0.000 A 
ATOM     16  N   UNL     1      43.662   4.215  11.022  0.00  0.00    +0.000 NA
ATOM     17  C   UNL     1      44.342   3.204  11.601  0.00  0.00    +0.000 A 
ATOM     18  C   UNL     1      45.388   3.392  12.490  0.00  0.00    +0.000 A 
ENDBRANCH  12  13
ENDBRANCH  11  12
ENDBRANCH   4  11
TORSDOF 5
ENDMDL
MODEL 9
REMARK VINA RESULT:    -4.976      4.063      7.319
REMARK INTER + INTRA:          -6.693
REMARK INTER:                  -6.454
REMARK INTRA:                  -0.240
REMARK UNBOUND:                -0.408
REMARK  Name = 
REMARK  5 active torsions:
REMARK  status: ('A' for Active; 'I' for Inactive)
REMARK    1  A    between atoms: N_1  and  C_2
REMARK    2  A    between atoms: C_2  and  C_3
REMARK    3  A    between atoms: C_6  and  O_7
REMARK    4  A    between atoms: O_7  and  C_8
REMARK    5  A    between atoms: C_8  and  C_9
REMARK                            x       y       z     vdW  Elec       q    Type
REMARK                         _______ _______ _______ _____ _____    ______ ____
ROOT
ATOM      1  C   UNL     1      44.551   5.176  11.837  0.00  0.00    +0.000 A 
ATOM      2  C   UNL     1      44.800   3.805  11.814  0.00  0.00    +0.000 A 
ATOM      3  C   UNL     1      45.743   3.276  12.696  0.00  0.00    +0.000 A 
ATOM      4  C   UNL     1      46.390   4.118  13.592  0.00  0.00    +0.000 A 
ATOM      5  C   UNL     1      46.118   5.477  13.509  0.00  0.00    +0.000 A 
ATOM      6  N   UNL     1      45.210   6.024  12.667  0.00  0.00    +0.000 NA
ENDROOT
BRANCH   1   7
ATOM      7  C   UNL     1      43.444   5.778  11.002  0.00  0.00    +0.000 C 
BRANCH   7   8
ATOM      8  N   UNL     1      42.238   6.013  11.800  0.00  0.00    +0.000 NA
ATOM      9  H   UNL     1      42.295   5.459  12.651  0.00  0.00    +0.000 HD
ATOM     10  H   UNL     1      41.449   5.628  11.273  0.00  0.00    +0.000 HD
ENDBRANCH   7   8
ENDBRANCH   1   7
BRANCH   4  11
ATOM     11  O   UNL     1      47.231   3.524  14.492  0.00  0.00    +0.000 OA
BRANCH  11  12
ATOM     12  C   UNL     1      47.114   4.022  15.830  0.00  0.00    +0.000 C 
BRANCH  12  13
ATOM     13  C   UNL     1      48.401   3.829  16.591  0.00  0.00    +0.000 A 
ATOM     14  C   UNL     1      48.954   2.563  16.800  0.00  0.00    +0.000 A 
ATOM     15  C   UNL     1      50.154   2.468  17.486  0.00  0.00    +0.000 A 
ATOM     16  N   UNL     1      50.837   3.532  17.959  0.00  0.00    +0.000 NA
ATOM     17  C   UNL     1      50.296   4.747  17.736  0.00  0.00    +0.000 A 
ATOM     18  C   UNL     1      49.101   4.944  17.062  0.00  0.00    +0.000 A 
ENDBRANCH  12  13
ENDBRANCH  11  12
ENDBRANCH   4  11
TORSDOF 5
ENDMDL
