MODEL 1
REMARK VINA RESULT:    -7.866      0.000      0.000
REMARK INTER + INTRA:         -10.218
REMARK INTER:                  -9.705
REMARK INTRA:                  -0.513
REMARK UNBOUND:                -0.513
REMARK  Name = 
REMARK  4 active torsions:
REMARK  status: ('A' for Active; 'I' for Inactive)
REMARK    1  A    between atoms: C_2  and  C_4
REMARK    2  A    between atoms: N_8  and  C_9
REMARK    3  A    between atoms: C_9  and  C_10
REMARK    4  A    between atoms: C_10  and  C_11
REMARK                            x       y       z     vdW  Elec       q    Type
REMARK                         _______ _______ _______ _____ _____    ______ ____
ROOT
ATOM      1  C   UNL     1      46.377   2.377   7.795  0.00  0.00    +0.000 A 
ATOM      2  C   UNL     1      46.357   3.763   7.678  0.00  0.00    +0.000 A 
ATOM      3  C   UNL     1      45.454   4.495   8.453  0.00  0.00    +0.000 A 
ATOM      4  C   UNL     1      44.628   3.840   9.368  0.00  0.00    +0.000 A 
ATOM      5  N   UNL     1      43.719   4.609  10.115  0.00  0.00    +0.000 N 
ATOM      6  N   UNL     1      44.634   2.497   9.475  0.00  0.00    +0.000 NA
ATOM      7  C   UNL     1      45.483   1.794   8.680  0.00  0.00    +0.000 A 
ATOM      8  H   UNL     1      44.101   5.535  10.274  0.00  0.00    +0.000 HD
ENDROOT
BRANCH   1  10
ATOM      9  N   UNL     1      48.403   2.088   6.491  0.00  0.00    +0.000 N 
ATOM     10  C   UNL     1      47.278   1.513   7.007  0.00  0.00    +0.000 C 
ATOM     11  O   UNL     1      47.049   0.318   6.855  0.00  0.00    +0.000 OA
ATOM     12  H   UNL     1      49.065   1.460   6.050  0.00  0.00    +0.000 HD
ATOM     13  H   UNL     1      48.752   2.983   6.806  0.00  0.00    +0.000 HD
ENDBRANCH   1  10
BRANCH   5  14
ATOM     14  C   UNL     1      43.320   3.973  11.377  0.00  0.00    +0.000 C 
BRANCH  14  15
ATOM     15  C   UNL     1      43.486   4.976  12.527  0.00  0.00    +0.000 C 
BRANCH  15  16
ATOM     16  C   UNL     1      44.927   5.302  12.806  0.00  0.00    +0.000 A 
ATOM     17  C   UNL     1      45.424   6.592  12.621  0.00  0.00    +0.000 A 
ATOM     18  C   UNL     1      46.763   6.861  12.896  0.00  0.00    +0.000 A 
ATOM     19  C   UNL     1      47.560   5.827  13.354  0.00  0.00    +0.000 A 
ATOM     20  N   UNL     1      47.114   4.568  13.554  0.00  0.00    +0.000 NA
ATOM     21  C   UNL     1      45.811   4.336  13.277  0.00  0.00    +0.000 A 
ENDBRANCH  15  16
ENDBRANCH  14  15
ENDBRANCH   5  14
TORSDOF 4
ENDMDL
MODEL 2
REMARK VINA RESULT:    -7.333      2.951      6.575
REMARK INTER + INTRA:          -9.561
REMARK INTER:                  -9.242
REMARK INTRA:                  -0.319
REMARK UNBOUND:                -0.513
REMARK  Name = 
REMARK  4 active torsions:
REMARK  status: ('A' for Active; 'I' for Inactive)
REMARK    1  A    between atoms: C_2  and  C_4
REMARK    2  A    between atoms: N_8  and  C_9
REMARK    3  A    between atoms: C_9  and  C_10
REMARK    4  A    between atoms: C_10  and  C_11
REMARK                            x       y       z     vdW  Elec       q    Type
REMARK                         _______ _______ _______ _____ _____    ______ ____
ROOT
ATOM      1  C   UNL     1      45.850   6.851  12.519  0.00  0.00    +0.000 A 
ATOM      2  C   UNL     1      46.234   5.708  13.214  0.00  0.00    +0.000 A 
ATOM      3  C   UNL     1      45.842   4.458  12.731  0.00  0.00    +0.000 A 
ATOM      4  C   UNL     1      45.124   4.365  11.537  0.00  0.00    +0.000 A 
ATOM      5  N   UNL     1      44.730   3.090  11.094  0.00  0.00    +0.000 N 
ATOM      6  N   UNL     1      44.738   5.469  10.868  0.00  0.00    +0.000 NA
ATOM      7  C   UNL     1      45.085   6.681  11.376  0.00  0.00    +0.000 A 
ATOM      8  H   UNL     1      45.409   2.398  11.390  0.00  0.00    +0.000 HD
ENDROOT
BRANCH   1  10
ATOM      9  N   UNL     1      45.194   9.145  12.965  0.00  0.00    +0.000 N 
ATOM     10  C   UNL     1      46.196   8.218  12.958  0.00  0.00    +0.000 C 
ATOM     11  O   UNL     1      47.326   8.502  13.339  0.00  0.00    +0.000 OA
ATOM     12  H   UNL     1      45.419  10.045  13.373  0.00  0.00    +0.000 HD
ATOM     13  H   UNL     1      44.216   8.892  12.910  0.00  0.00    +0.000 HD
ENDBRANCH   1  10
BRANCH   5  14
ATOM     14  C   UNL     1      44.498   3.026   9.645  0.00  0.00    +0.000 C 
BRANCH  14  15
ATOM     15  C   UNL     1      45.122   1.739   9.088  0.00  0.00    +0.000 C 
BRANCH  15  16
ATOM     16  C   UNL     1      46.052   1.999   7.934  0.00  0.00    +0.000 A 
ATOM     17  C   UNL     1      45.984   3.188   7.207  0.00  0.00    +0.000 A 
ATOM     18  C   UNL     1      46.864   3.400   6.149  0.00  0.00    +0.000 A 
ATOM     19  C   UNL     1      47.791   2.414   5.858  0.00  0.00    +0.000 A 
ATOM     20  N   UNL     1      47.892   1.254   6.543  0.00  0.00    +0.000 NA
ATOM     21  C   UNL     1      47.024   1.075   7.563  0.00  0.00    +0.000 A 
ENDBRANCH  15  16
ENDBRANCH  14  15
ENDBRANCH   5  14
TORSDOF 4
ENDMDL
MODEL 3
REMARK VINA RESULT:    -6.701      2.990      6.158
REMARK INTER + INTRA:          -8.781
REMARK INTER:                  -8.266
REMARK INTRA:                  -0.515
REMARK UNBOUND:                -0.513
REMARK  Name = 
REMARK  4 active torsions:
REMARK  status: ('A' for Active; 'I' for Inactive)
REMARK    1  A    between atoms: C_2  and  C_4
REMARK    2  A    between atoms: N_8  and  C_9
REMARK    3  A    between atoms: C_9  and  C_10
REMARK    4  A    between atoms: C_10  and  C_11
REMARK                            x       y       z     vdW  Elec       q    Type
REMARK                         _______ _______ _______ _____ _____    ______ ____
ROOT
ATOM      1  C   UNL     1      47.385   6.471  12.905  0.00  0.00    +0.000 A 
ATOM      2  C   UNL     1      46.910   5.515  13.799  0.00  0.00    +0.000 A 
ATOM      3  C   UNL     1      45.792   4.755  13.447  0.00  0.00    +0.000 A 
ATOM      4  C   UNL     1      45.202   4.921  12.193  0.00  0.00    +0.000 A 
ATOM      5  N   UNL     1      44.066   4.152  11.884  0.00  0.00    +0.000 N 
ATOM      6  N   UNL     1      45.649   5.854  11.330  0.00  0.00    +0.000 NA
ATOM      7  C   UNL     1      46.708   6.620  11.705  0.00  0.00    +0.000 A 
ATOM      8  H   UNL     1      44.115   3.259  12.363  0.00  0.00    +0.000 HD
ENDROOT
BRANCH   1  10
ATOM      9  N   UNL     1      49.755   6.945  12.693  0.00  0.00    +0.000 N 
ATOM     10  C   UNL     1      48.545   7.337  13.190  0.00  0.00    +0.000 C 
ATOM     11  O   UNL     1      48.424   8.387  13.810  0.00  0.00    +0.000 OA
ATOM     12  H   UNL     1      50.518   7.604  12.801  0.00  0.00    +0.000 HD
ATOM     13  H   UNL     1      49.848   6.242  11.973  0.00  0.00    +0.000 HD
ENDBRANCH   1  10
BRANCH   5  14
ATOM     14  C   UNL     1      43.861   3.973  10.441  0.00  0.00    +0.000 C 
BRANCH  14  15
ATOM     15  C   UNL     1      44.409   2.604  10.015  0.00  0.00    +0.000 C 
BRANCH  15  16
ATOM     16  C   UNL     1      45.372   2.699   8.863  0.00  0.00    +0.000 A 
ATOM     17  C   UNL     1      46.009   1.565   8.360  0.00  0.00    +0.000 A 
ATOM     18  C   UNL     1      46.889   1.687   7.288  0.00  0.00    +0.000 A 
ATOM     19  C   UNL     1      47.097   2.945   6.749  0.00  0.00    +0.000 A 
ATOM     20  N   UNL     1      46.494   4.064   7.203  0.00  0.00    +0.000 NA
ATOM     21  C   UNL     1      45.646   3.915   8.246  0.00  0.00    +0.000 A 
ENDBRANCH  15  16
ENDBRANCH  14  15
ENDBRANCH   5  14
TORSDOF 4
ENDMDL
MODEL 4
REMARK VINA RESULT:    -6.384      2.743      6.165
REMARK INTER + INTRA:          -8.390
REMARK INTER:                  -8.910
REMARK INTRA:                   0.520
REMARK UNBOUND:                -0.513
REMARK  Name = 
REMARK  4 active torsions:
REMARK  status: ('A' for Active; 'I' for Inactive)
REMARK    1  A    between atoms: C_2  and  C_4
REMARK    2  A    between atoms: N_8  and  C_9
REMARK    3  A    between atoms: C_9  and  C_10
REMARK    4  A    between atoms: C_10  and  C_11
REMARK                            x       y       z     vdW  Elec       q    Type
REMARK                         _______ _______ _______ _____ _____    ______ ____
ROOT
ATOM      1  C   UNL     1      46.674   4.888  13.767  0.00  0.00    +0.000 A 
ATOM      2  C   UNL     1      46.979   6.021  13.019  0.00  0.00    +0.000 A 
ATOM      3  C   UNL     1      46.523   6.106  11.701  0.00  0.00    +0.000 A 
ATOM      4  C   UNL     1      45.727   5.089  11.172  0.00  0.00    +0.000 A 
ATOM      5  N   UNL     1      45.305   5.201   9.835  0.00  0.00    +0.000 N 
ATOM      6  N   UNL     1      45.441   3.984  11.887  0.00  0.00    +0.000 NA
ATOM      7  C   UNL     1      45.932   3.893  13.151  0.00  0.00    +0.000 A 
ATOM      8  H   UNL     1      45.195   6.179   9.590  0.00  0.00    +0.000 HD
ENDROOT
BRANCH   1  10
ATOM      9  N   UNL     1      47.844   5.704  15.731  0.00  0.00    +0.000 N 
ATOM     10  C   UNL     1      47.125   4.693  15.159  0.00  0.00    +0.000 C 
ATOM     11  O   UNL     1      46.833   3.685  15.792  0.00  0.00    +0.000 OA
ATOM     12  H   UNL     1      48.050   5.604  16.718  0.00  0.00    +0.000 HD
ATOM     13  H   UNL     1      47.880   6.636  15.341  0.00  0.00    +0.000 HD
ENDBRANCH   1  10
BRANCH   5  14
ATOM     14  C   UNL     1      44.085   4.438   9.546  0.00  0.00    +0.000 C 
BRANCH  14  15
ATOM     15  C   UNL     1      44.431   2.946   9.441  0.00  0.00    +0.000 C 
BRANCH  15  16
ATOM     16  C   UNL     1      45.417   2.658   8.342  0.00  0.00    +0.000 A 
ATOM     17  C   UNL     1      45.624   3.564   7.302  0.00  0.00    +0.000 A 
ATOM     18  C   UNL     1      46.549   3.269   6.304  0.00  0.00    +0.000 A 
ATOM     19  C   UNL     1      47.244   2.074   6.385  0.00  0.00    +0.000 A 
ATOM     20  N   UNL     1      47.077   1.176   7.379  0.00  0.00    +0.000 NA
ATOM     21  C   UNL     1      46.171   1.488   8.333  0.00  0.00    +0.000 A 
ENDBRANCH  15  16
ENDBRANCH  14  15
ENDBRANCH   5  14
TORSDOF 4
ENDMDL
MODEL 5
REMARK VINA RESULT:    -6.011      4.116      5.947
REMARK INTER + INTRA:          -7.929
REMARK INTER:                  -7.674
REMARK INTRA:                  -0.255
REMARK UNBOUND:                -0.513
REMARK  Name = 
REMARK  4 active torsions:
REMARK  status: ('A' for Active; 'I' for Inactive)
REMARK    1  A    between atoms: C_2  and  C_4
REMARK    2  A    between atoms: N_8  and  C_9
REMARK    3  A    between atoms: C_9  and  C_10
REMARK    4  A    between atoms: C_10  and  C_11
REMARK                            x       y       z     vdW  Elec       q    Type
REMARK                         _______ _______ _______ _____ _____    ______ ____
ROOT
ATOM      1  C   UNL     1      45.370   4.762  11.524  0.00  0.00    +0.000 A 
ATOM      2  C   UNL     1      46.094   5.908  11.839  0.00  0.00    +0.000 A 
ATOM      3  C   UNL     1      46.679   6.012  13.104  0.00  0.00    +0.000 A 
ATOM      4  C   UNL     1      46.580   4.953  14.008  0.00  0.00    +0.000 A 
ATOM      5  N   UNL     1      47.165   5.105  15.278  0.00  0.00    +0.000 N 
ATOM      6  N   UNL     1      45.869   3.848  13.712  0.00  0.00    +0.000 NA
ATOM      7  C   UNL     1      45.264   3.781  12.497  0.00  0.00    +0.000 A 
ATOM      8  H   UNL     1      47.979   5.707  15.212  0.00  0.00    +0.000 HD
ENDROOT
BRANCH   1  10
ATOM      9  N   UNL     1      45.267   5.149   9.130  0.00  0.00    +0.000 N 
ATOM     10  C   UNL     1      44.698   4.564  10.224  0.00  0.00    +0.000 C 
ATOM     11  O   UNL     1      43.693   3.869  10.122  0.00  0.00    +0.000 OA
ATOM     12  H   UNL     1      44.859   4.913   8.233  0.00  0.00    +0.000 HD
ATOM     13  H   UNL     1      46.215   5.501   9.130  0.00  0.00    +0.000 HD
ENDBRANCH   1  10
BRANCH   5  14
ATOM     14  C   UNL     1      47.497   3.827  15.920  0.00  0.00    +0.000 C 
BRANCH  14  15
ATOM     15  C   UNL     1      48.222   4.097  17.245  0.00  0.00    +0.000 C 
BRANCH  15  16
ATOM     16  C   UNL     1      49.531   3.363  17.348  0.00  0.00    +0.000 A 
ATOM     17  C   UNL     1      50.659   3.971  17.899  0.00  0.00    +0.000 A 
ATOM     18  C   UNL     1      51.853   3.261  17.986  0.00  0.00    +0.000 A 
ATOM     19  C   UNL     1      51.877   1.957  17.522  0.00  0.00    +0.000 A 
ATOM     20  N   UNL     1      50.806   1.331  16.989  0.00  0.00    +0.000 NA
ATOM     21  C   UNL     1      49.660   2.046  16.917  0.00  0.00    +0.000 A 
ENDBRANCH  15  16
ENDBRANCH  14  15
ENDBRANCH   5  14
TORSDOF 4
ENDMDL
MODEL 6
REMARK VINA RESULT:    -5.661      4.099      7.555
REMARK INTER + INTRA:          -7.498
REMARK INTER:                  -7.244
REMARK INTRA:                  -0.254
REMARK UNBOUND:                -0.513
REMARK  Name = 
REMARK  4 active torsions:
REMARK  status: ('A' for Active; 'I' for Inactive)
REMARK    1  A    between atoms: C_2  and  C_4
REMARK    2  A    between atoms: N_8  and  C_9
REMARK    3  A    between atoms: C_9  and  C_10
REMARK    4  A    between atoms: C_10  and  C_11
REMARK                            x       y       z     vdW  Elec       q    Type
REMARK                         _______ _______ _______ _____ _____    ______ ____
ROOT
ATOM      1  C   UNL     1      48.353   4.533  17.190  0.00  0.00    +0.000 A 
ATOM      2  C   UNL     1      48.838   5.704  16.616  0.00  0.00    +0.000 A 
ATOM      3  C   UNL     1      48.386   6.074  15.347  0.00  0.00    +0.000 A 
ATOM      4  C   UNL     1      47.421   5.302  14.697  0.00  0.00    +0.000 A 
ATOM      5  N   UNL     1      47.007   5.696  13.413  0.00  0.00    +0.000 N 
ATOM      6  N   UNL     1      46.959   4.160  15.243  0.00  0.00    +0.000 NA
ATOM      7  C   UNL     1      47.443   3.787  16.457  0.00  0.00    +0.000 A 
ATOM      8  H   UNL     1      47.062   6.705  13.327  0.00  0.00    +0.000 HD
ENDROOT
BRANCH   1  10
ATOM      9  N   UNL     1      48.067   3.021  19.066  0.00  0.00    +0.000 N 
ATOM     10  C   UNL     1      48.782   4.045  18.516  0.00  0.00    +0.000 C 
ATOM     11  O   UNL     1      49.764   4.511  19.083  0.00  0.00    +0.000 OA
ATOM     12  H   UNL     1      48.439   2.624  19.922  0.00  0.00    +0.000 HD
ATOM     13  H   UNL     1      47.429   2.449  18.529  0.00  0.00    +0.000 HD
ENDBRANCH   1  10
BRANCH   5  14
ATOM     14  C   UNL     1      45.670   5.203  13.058  0.00  0.00    +0.000 C 
BRANCH  14  15
ATOM     15  C   UNL     1      45.246   5.806  11.711  0.00  0.00    +0.000 C 
BRANCH  15  16
ATOM     16  C   UNL     1      45.006   4.759  10.659  0.00  0.00    +0.000 A 
ATOM     17  C   UNL     1      45.504   4.909   9.364  0.00  0.00    +0.000 A 
ATOM     18  C   UNL     1      45.269   3.918   8.415  0.00  0.00    +0.000 A 
ATOM     19  C   UNL     1      44.546   2.801   8.798  0.00  0.00    +0.000 A 
ATOM     20  N   UNL     1      44.055   2.615  10.042  0.00  0.00    +0.000 NA
ATOM     21  C   UNL     1      44.298   3.595  10.942  0.00  0.00    +0.000 A 
ENDBRANCH  15  16
ENDBRANCH  14  15
ENDBRANCH   5  14
TORSDOF 4
ENDMDL
MODEL 7
REMARK VINA RESULT:    -5.640      3.283      5.493
REMARK INTER + INTRA:          -7.472
REMARK INTER:                  -7.066
REMARK INTRA:                  -0.407
REMARK UNBOUND:                -0.513
REMARK  Name = 
REMARK  4 active torsions:
REMARK  status: ('A' for Active; 'I' for Inactive)
REMARK    1  A    between atoms: C_2  and  C_4
REMARK    2  A    between atoms: N_8  and  C_9
REMARK    3  A    between atoms: C_9  and  C_10
REMARK    4  A    between atoms: C_10  and  C_11
REMARK                            x       y       z     vdW  Elec       q    Type
REMARK                         _______ _______ _______ _____ _____    ______ ____
ROOT
ATOM      1  C   UNL     1      44.670   5.147  11.464  0.00  0.00    +0.000 A 
ATOM      2  C   UNL     1      44.676   6.538  11.418  0.00  0.00    +0.000 A 
ATOM      3  C   UNL     1      45.526   7.241  12.275  0.00  0.00    +0.000 A 
ATOM      4  C   UNL     1      46.392   6.547  13.122  0.00  0.00    +0.000 A 
ATOM      5  N   UNL     1      47.218   7.290  13.984  0.00  0.00    +0.000 N 
ATOM      6  N   UNL     1      46.381   5.201  13.180  0.00  0.00    +0.000 NA
ATOM      7  C   UNL     1      45.514   4.532  12.374  0.00  0.00    +0.000 A 
ATOM      8  H   UNL     1      47.451   8.179  13.556  0.00  0.00    +0.000 HD
ENDROOT
BRANCH   1  10
ATOM      9  N   UNL     1      43.875   4.499   9.264  0.00  0.00    +0.000 N 
ATOM     10  C   UNL     1      43.796   4.314  10.615  0.00  0.00    +0.000 C 
ATOM     11  O   UNL     1      43.057   3.463  11.096  0.00  0.00    +0.000 OA
ATOM     12  H   UNL     1      43.354   3.846   8.691  0.00  0.00    +0.000 HD
ATOM     13  H   UNL     1      44.641   4.993   8.825  0.00  0.00    +0.000 HD
ENDBRANCH   1  10
BRANCH   5  14
ATOM     14  C   UNL     1      48.425   6.564  14.399  0.00  0.00    +0.000 C 
BRANCH  14  15
ATOM     15  C   UNL     1      48.614   6.718  15.915  0.00  0.00    +0.000 C 
BRANCH  15  16
ATOM     16  C   UNL     1      48.604   5.398  16.636  0.00  0.00    +0.000 A 
ATOM     17  C   UNL     1      47.507   4.540  16.554  0.00  0.00    +0.000 A 
ATOM     18  C   UNL     1      47.533   3.322  17.229  0.00  0.00    +0.000 A 
ATOM     19  C   UNL     1      48.663   3.000  17.960  0.00  0.00    +0.000 A 
ATOM     20  N   UNL     1      49.746   3.800  18.057  0.00  0.00    +0.000 NA
ATOM     21  C   UNL     1      49.693   4.976  17.393  0.00  0.00    +0.000 A 
ENDBRANCH  15  16
ENDBRANCH  14  15
ENDBRANCH   5  14
TORSDOF 4
ENDMDL
MODEL 8
REMARK VINA RESULT:    -5.403      5.072      8.405
REMARK INTER + INTRA:          -7.179
REMARK INTER:                  -6.904
REMARK INTRA:                  -0.275
REMARK UNBOUND:                -0.513
REMARK  Name = 
REMARK  4 active torsions:
REMARK  status: ('A' for Active; 'I' for Inactive)
REMARK    1  A    between atoms: C_2  and  C_4
REMARK    2  A    between atoms: N_8  and  C_9
REMARK    3  A    between atoms: C_9  and  C_10
REMARK    4  A    between atoms: C_10  and  C_11
REMARK                            x       y       z     vdW  Elec       q    Type
REMARK                         _______ _______ _______ _____ _____    ______ ____
ROOT
ATOM      1  C   UNL     1      49.762   4.491  18.294  0.00  0.00    +0.000 A 
ATOM      2  C   UNL     1      48.725   3.588  18.513  0.00  0.00    +0.000 A 
ATOM      3  C   UNL     1      47.668   3.538  17.601  0.00  0.00    +0.000 A 
ATOM      4  C   UNL     1      47.689   4.345  16.462  0.00  0.00    +0.000 A 
ATOM      5  N   UNL     1      46.597   4.280  15.579  0.00  0.00    +0.000 N 
ATOM      6  N   UNL     1      48.684   5.229  16.253  0.00  0.00    +0.000 NA
ATOM      7  C   UNL     1      49.681   5.302  17.173  0.00  0.00    +0.000 A 
ATOM      8  H   UNL     1      46.198   3.347  15.593  0.00  0.00    +0.000 HD
ENDROOT
BRANCH   1  10
ATOM      9  N   UNL     1      51.901   3.698  19.121  0.00  0.00    +0.000 N 
ATOM     10  C   UNL     1      50.913   4.636  19.207  0.00  0.00    +0.000 C 
ATOM     11  O   UNL     1      51.001   5.580  19.982  0.00  0.00    +0.000 OA
ATOM     12  H   UNL     1      52.734   3.871  19.673  0.00  0.00    +0.000 HD
ATOM     13  H   UNL     1      51.990   3.068  18.334  0.00  0.00    +0.000 HD
ENDBRANCH   1  10
BRANCH   5  14
ATOM     14  C   UNL     1      46.931   4.696  14.211  0.00  0.00    +0.000 C 
BRANCH  14  15
ATOM     15  C   UNL     1      46.416   3.645  13.219  0.00  0.00    +0.000 C 
BRANCH  15  16
ATOM     16  C   UNL     1      45.215   4.118  12.446  0.00  0.00    +0.000 A 
ATOM     17  C   UNL     1      45.100   5.445  12.034  0.00  0.00    +0.000 A 
ATOM     18  C   UNL     1      43.978   5.849  11.314  0.00  0.00    +0.000 A 
ATOM     19  C   UNL     1      43.009   4.904  11.024  0.00  0.00    +0.000 A 
ATOM     20  N   UNL     1      43.089   3.609  11.399  0.00  0.00    +0.000 NA
ATOM     21  C   UNL     1      44.188   3.246  12.097  0.00  0.00    +0.000 A 
ENDBRANCH  15  16
ENDBRANCH  14  15
ENDBRANCH   5  14
TORSDOF 4
ENDMDL
MODEL 9
REMARK VINA RESULT:    -4.975      5.027      8.035
REMARK INTER + INTRA:          -6.652
REMARK INTER:                  -6.196
REMARK INTRA:                  -0.456
REMARK UNBOUND:                -0.513
REMARK  Name = 
REMARK  4 active torsions:
REMARK  status: ('A' for Active; 'I' for Inactive)
REMARK    1  A    between atoms: C_2  and  C_4
REMARK    2  A    between atoms: N_8  and  C_9
REMARK    3  A    between atoms: C_9  and  C_10
REMARK    4  A    between atoms: C_10  and  C_11
REMARK                            x       y       z     vdW  Elec       q    Type
REMARK                         _______ _______ _______ _____ _____    ______ ____
ROOT
ATOM      1  C   UNL     1      48.365   5.851  17.671  0.00  0.00    +0.000 A 
ATOM      2  C   UNL     1      48.773   7.140  17.341  0.00  0.00    +0.000 A 
ATOM      3  C   UNL     1      48.877   7.492  15.993  0.00  0.00    +0.000 A 
ATOM      4  C   UNL     1      48.521   6.576  15.002  0.00  0.00    +0.000 A 
ATOM      5  N   UNL     1      48.659   6.962  13.657  0.00  0.00    +0.000 N 
ATOM      6  N   UNL     1      48.139   5.323  15.316  0.00  0.00    +0.000 NA
ATOM      7  C   UNL     1      48.089   4.978  16.630  0.00  0.00    +0.000 A 
ATOM      8  H   UNL     1      48.513   7.962  13.569  0.00  0.00    +0.000 HD
ENDROOT
BRANCH   1  10
ATOM      9  N   UNL     1      47.039   5.552  19.681  0.00  0.00    +0.000 N 
ATOM     10  C   UNL     1      48.243   5.374  19.063  0.00  0.00    +0.000 C 
ATOM     11  O   UNL     1      49.169   4.805  19.629  0.00  0.00    +0.000 OA
ATOM     12  H   UNL     1      46.935   5.122  20.593  0.00  0.00    +0.000 HD
ATOM     13  H   UNL     1      46.192   5.775  19.175  0.00  0.00    +0.000 HD
ENDBRANCH   1  10
BRANCH   5  14
ATOM     14  C   UNL     1      47.785   6.212  12.746  0.00  0.00    +0.000 C 
BRANCH  14  15
ATOM     15  C   UNL     1      46.456   6.963  12.584  0.00  0.00    +0.000 C 
BRANCH  15  16
ATOM     16  C   UNL     1      45.274   6.036  12.503  0.00  0.00    +0.000 A 
ATOM     17  C   UNL     1      44.200   6.309  11.655  0.00  0.00    +0.000 A 
ATOM     18  C   UNL     1      43.124   5.426  11.599  0.00  0.00    +0.000 A 
ATOM     19  C   UNL     1      43.164   4.292  12.391  0.00  0.00    +0.000 A 
ATOM     20  N   UNL     1      44.188   3.989  13.217  0.00  0.00    +0.000 NA
ATOM     21  C   UNL     1      45.218   4.865  13.253  0.00  0.00    +0.000 A 
ENDBRANCH  15  16
ENDBRANCH  14  15
ENDBRANCH   5  14
TORSDOF 4
ENDMDL
