MODEL 1
REMARK VINA RESULT:    -6.503      0.000      0.000
REMARK INTER + INTRA:          -9.449
REMARK INTER:                  -8.784
REMARK INTRA:                  -0.666
REMARK UNBOUND:                -0.666
REMARK  Name = 
REMARK  9 active torsions:
REMARK  status: ('A' for Active; 'I' for Inactive)
REMARK    1  A    between atoms: C_1  and  O_2
REMARK    2  A    between atoms: O_2  and  C_3
REMARK    3  A    between atoms: N_10  and  C_11
REMARK    4  A    between atoms: C_11  and  C_12
REMARK    5  A    between atoms: C_15  and  C_16
REMARK    6  A    between atoms: C_16  and  C_17
REMARK    7  A    between atoms: C_17  and  N_18
REMARK    8  A    between atoms: N_18  and  C_19
REMARK    9  A    between atoms: N_18  and  C_20
REMARK                            x       y       z     vdW  Elec       q    Type
REMARK                         _______ _______ _______ _____ _____    ______ ____
ROOT
ATOM      1  C   UNL     1      44.187   5.830  12.358  0.00  0.00    +0.000 C 
ENDROOT
BRANCH   1   9
ATOM      2  C   UNL     1      45.657   3.535   7.854  0.00  0.00    +0.000 A 
ATOM      3  C   UNL     1      46.037   4.792   8.322  0.00  0.00    +0.000 A 
ATOM      4  C   UNL     1      45.638   5.243   9.589  0.00  0.00    +0.000 A 
ATOM      5  C   UNL     1      44.849   4.395  10.383  0.00  0.00    +0.000 A 
ATOM      6  C   UNL     1      44.458   3.130   9.931  0.00  0.00    +0.000 A 
ATOM      7  C   UNL     1      43.673   2.536  10.955  0.00  0.00    +0.000 A 
ATOM      8  C   UNL     1      43.580   3.438  11.988  0.00  0.00    +0.000 A 
ATOM      9  N   UNL     1      44.279   4.569  11.633  0.00  0.00    +0.000 N 
ATOM     10  C   UNL     1      44.858   2.707   8.649  0.00  0.00    +0.000 A 
BRANCH   2  12
ATOM     11  C   UNL     1      47.189   2.306   6.535  0.00  0.00    +0.000 C 
ATOM     12  O   UNL     1      45.965   3.027   6.621  0.00  0.00    +0.000 OA
ENDBRANCH   2  12
ENDBRANCH   1   9
BRANCH   1  13
ATOM     13  C   UNL     1      45.475   6.303  12.970  0.00  0.00    +0.000 A 
ATOM     14  C   UNL     1      45.871   7.642  12.928  0.00  0.00    +0.000 A 
ATOM     15  C   UNL     1      47.171   7.995  13.302  0.00  0.00    +0.000 A 
ATOM     16  C   UNL     1      48.043   6.996  13.717  0.00  0.00    +0.000 A 
ATOM     17  N   UNL     1      47.655   5.706  13.843  0.00  0.00    +0.000 NA
ATOM     18  C   UNL     1      46.389   5.391  13.482  0.00  0.00    +0.000 A 
BRANCH  16  19
ATOM     19  C   UNL     1      49.511   7.282  13.925  0.00  0.00    +0.000 C 
BRANCH  19  20
ATOM     20  C   UNL     1      49.805   7.426  15.432  0.00  0.00    +0.000 C 
BRANCH  20  21
ATOM     21  N   UNL     1      50.091   6.158  16.140  0.00  0.00    +0.000 NA
ATOM     22  C   UNL     1      51.424   6.164  16.748  0.00  0.00    +0.000 C 
ATOM     23  C   UNL     1      49.085   5.948  17.190  0.00  0.00    +0.000 C 
ENDBRANCH  20  21
ENDBRANCH  19  20
ENDBRANCH  16  19
ENDBRANCH   1  13
TORSDOF 6
ENDMDL
MODEL 2
REMARK VINA RESULT:    -6.459      1.315      1.817
REMARK INTER + INTRA:          -9.390
REMARK INTER:                  -8.632
REMARK INTRA:                  -0.757
REMARK UNBOUND:                -0.666
REMARK  Name = 
REMARK  9 active torsions:
REMARK  status: ('A' for Active; 'I' for Inactive)
REMARK    1  A    between atoms: C_1  and  O_2
REMARK    2  A    between atoms: O_2  and  C_3
REMARK    3  A    between atoms: N_10  and  C_11
REMARK    4  A    between atoms: C_11  and  C_12
REMARK    5  A    between atoms: C_15  and  C_16
REMARK    6  A    between atoms: C_16  and  C_17
REMARK    7  A    between atoms: C_17  and  N_18
REMARK    8  A    between atoms: N_18  and  C_19
REMARK    9  A    between atoms: N_18  and  C_20
REMARK                            x       y       z     vdW  Elec       q    Type
REMARK                         _______ _______ _______ _____ _____    ______ ____
ROOT
ATOM      1  C   UNL     1      43.436   6.121  11.033  0.00  0.00    +0.000 C 
ENDROOT
BRANCH   1   9
ATOM      2  C   UNL     1      45.947   2.566   8.072  0.00  0.00    +0.000 A 
ATOM      3  C   UNL     1      46.046   3.954   7.987  0.00  0.00    +0.000 A 
ATOM      4  C   UNL     1      45.384   4.784   8.904  0.00  0.00    +0.000 A 
ATOM      5  C   UNL     1      44.620   4.184   9.919  0.00  0.00    +0.000 A 
ATOM      6  C   UNL     1      44.510   2.793  10.021  0.00  0.00    +0.000 A 
ATOM      7  C   UNL     1      43.674   2.513  11.135  0.00  0.00    +0.000 A 
ATOM      8  C   UNL     1      43.277   3.714  11.673  0.00  0.00    +0.000 A 
ATOM      9  N   UNL     1      43.839   4.724  10.926  0.00  0.00    +0.000 N 
ATOM     10  C   UNL     1      45.171   1.982   9.078  0.00  0.00    +0.000 A 
BRANCH   2  12
ATOM     11  C   UNL     1      47.895   1.908   6.903  0.00  0.00    +0.000 C 
ATOM     12  O   UNL     1      46.523   1.680   7.203  0.00  0.00    +0.000 OA
ENDBRANCH   2  12
ENDBRANCH   1   9
BRANCH   1  13
ATOM     13  C   UNL     1      44.407   7.005  11.765  0.00  0.00    +0.000 A 
ATOM     14  C   UNL     1      44.564   8.356  11.450  0.00  0.00    +0.000 A 
ATOM     15  C   UNL     1      45.632   9.077  11.994  0.00  0.00    +0.000 A 
ATOM     16  C   UNL     1      46.514   8.425  12.847  0.00  0.00    +0.000 A 
ATOM     17  N   UNL     1      46.332   7.140  13.229  0.00  0.00    +0.000 NA
ATOM     18  C   UNL     1      45.287   6.467  12.695  0.00  0.00    +0.000 A 
BRANCH  16  19
ATOM     19  C   UNL     1      47.798   9.086  13.291  0.00  0.00    +0.000 C 
BRANCH  19  20
ATOM     20  C   UNL     1      48.064   8.764  14.775  0.00  0.00    +0.000 C 
BRANCH  20  21
ATOM     21  N   UNL     1      49.306   8.005  15.041  0.00  0.00    +0.000 NA
ATOM     22  C   UNL     1      49.027   6.697  15.638  0.00  0.00    +0.000 C 
ATOM     23  C   UNL     1      50.041   7.813  13.784  0.00  0.00    +0.000 C 
ENDBRANCH  20  21
ENDBRANCH  19  20
ENDBRANCH  16  19
ENDBRANCH   1  13
TORSDOF 6
ENDMDL
MODEL 3
REMARK VINA RESULT:    -6.358      1.764      2.393
REMARK INTER + INTRA:          -9.254
REMARK INTER:                  -8.485
REMARK INTRA:                  -0.769
REMARK UNBOUND:                -0.666
REMARK  Name = 
REMARK  9 active torsions:
REMARK  status: ('A' for Active; 'I' for Inactive)
REMARK    1  A    between atoms: C_1  and  O_2
REMARK    2  A    between atoms: O_2  and  C_3
REMARK    3  A    between atoms: N_10  and  C_11
REMARK    4  A    between atoms: C_11  and  C_12
REMARK    5  A    between atoms: C_15  and  C_16
REMARK    6  A    between atoms: C_16  and  C_17
REMARK    7  A    between atoms: C_17  and  N_18
REMARK    8  A    between atoms: N_18  and  C_19
REMARK    9  A    between atoms: N_18  and  C_20
REMARK                            x       y       z     vdW  Elec       q    Type
REMARK                         _______ _______ _______ _____ _____    ______ ____
ROOT
ATOM      1  C   UNL     1      43.851   6.116  11.427  0.00  0.00    +0.000 C 
ENDROOT
BRANCH   1   9
ATOM      2  C   UNL     1      45.963   2.852   7.879  0.00  0.00    +0.000 A 
ATOM      3  C   UNL     1      46.199   4.219   8.010  0.00  0.00    +0.000 A 
ATOM      4  C   UNL     1      45.633   4.953   9.064  0.00  0.00    +0.000 A 
ATOM      5  C   UNL     1      44.824   4.276   9.991  0.00  0.00    +0.000 A 
ATOM      6  C   UNL     1      44.577   2.904   9.876  0.00  0.00    +0.000 A 
ATOM      7  C   UNL     1      43.729   2.532  10.954  0.00  0.00    +0.000 A 
ATOM      8  C   UNL     1      43.460   3.665  11.684  0.00  0.00    +0.000 A 
ATOM      9  N   UNL     1      44.111   4.722  11.090  0.00  0.00    +0.000 N 
ATOM     10  C   UNL     1      45.143   2.193   8.800  0.00  0.00    +0.000 A 
BRANCH   2  12
ATOM     11  C   UNL     1      47.820   1.730   6.935  0.00  0.00    +0.000 C 
ATOM     12  O   UNL     1      46.439   2.063   6.866  0.00  0.00    +0.000 OA
ENDBRANCH   2  12
ENDBRANCH   1   9
BRANCH   1  13
ATOM     13  C   UNL     1      44.933   6.787  12.225  0.00  0.00    +0.000 A 
ATOM     14  C   UNL     1      45.129   8.170  12.197  0.00  0.00    +0.000 A 
ATOM     15  C   UNL     1      46.281   8.720  12.768  0.00  0.00    +0.000 A 
ATOM     16  C   UNL     1      47.206   7.870  13.361  0.00  0.00    +0.000 A 
ATOM     17  N   UNL     1      46.996   6.538  13.471  0.00  0.00    +0.000 NA
ATOM     18  C   UNL     1      45.870   6.031  12.918  0.00  0.00    +0.000 A 
BRANCH  16  19
ATOM     19  C   UNL     1      48.560   8.378  13.798  0.00  0.00    +0.000 C 
BRANCH  19  20
ATOM     20  C   UNL     1      49.665   7.693  12.971  0.00  0.00    +0.000 C 
BRANCH  20  21
ATOM     21  N   UNL     1      49.889   8.264  11.625  0.00  0.00    +0.000 NA
ATOM     22  C   UNL     1      50.077   9.716  11.675  0.00  0.00    +0.000 C 
ATOM     23  C   UNL     1      51.079   7.645  11.024  0.00  0.00    +0.000 C 
ENDBRANCH  20  21
ENDBRANCH  19  20
ENDBRANCH  16  19
ENDBRANCH   1  13
TORSDOF 6
ENDMDL
MODEL 4
REMARK VINA RESULT:    -6.162      3.057      7.045
REMARK INTER + INTRA:          -8.989
REMARK INTER:                  -8.162
REMARK INTRA:                  -0.827
REMARK UNBOUND:                -0.666
REMARK  Name = 
REMARK  9 active torsions:
REMARK  status: ('A' for Active; 'I' for Inactive)
REMARK    1  A    between atoms: C_1  and  O_2
REMARK    2  A    between atoms: O_2  and  C_3
REMARK    3  A    between atoms: N_10  and  C_11
REMARK    4  A    between atoms: C_11  and  C_12
REMARK    5  A    between atoms: C_15  and  C_16
REMARK    6  A    between atoms: C_16  and  C_17
REMARK    7  A    between atoms: C_17  and  N_18
REMARK    8  A    between atoms: N_18  and  C_19
REMARK    9  A    between atoms: N_18  and  C_20
REMARK                            x       y       z     vdW  Elec       q    Type
REMARK                         _______ _______ _______ _____ _____    ______ ____
ROOT
ATOM      1  C   UNL     1      44.526   6.167  12.948  0.00  0.00    +0.000 C 
ENDROOT
BRANCH   1   9
ATOM      2  C   UNL     1      49.385   8.115  12.394  0.00  0.00    +0.000 A 
ATOM      3  C   UNL     1      49.034   6.802  12.703  0.00  0.00    +0.000 A 
ATOM      4  C   UNL     1      47.691   6.399  12.731  0.00  0.00    +0.000 A 
ATOM      5  C   UNL     1      46.701   7.351  12.434  0.00  0.00    +0.000 A 
ATOM      6  C   UNL     1      47.034   8.674  12.121  0.00  0.00    +0.000 A 
ATOM      7  C   UNL     1      45.820   9.372  11.881  0.00  0.00    +0.000 A 
ATOM      8  C   UNL     1      44.784   8.488  12.068  0.00  0.00    +0.000 A 
ATOM      9  N   UNL     1      45.319   7.270  12.418  0.00  0.00    +0.000 N 
ATOM     10  C   UNL     1      48.389   9.056  12.116  0.00  0.00    +0.000 A 
BRANCH   2  12
ATOM     11  C   UNL     1      51.462   8.225  11.267  0.00  0.00    +0.000 C 
ATOM     12  O   UNL     1      50.662   8.608  12.379  0.00  0.00    +0.000 OA
ENDBRANCH   2  12
ENDBRANCH   1   9
BRANCH   1  13
ATOM     13  C   UNL     1      44.325   5.020  11.998  0.00  0.00    +0.000 A 
ATOM     14  C   UNL     1      44.776   3.729  12.285  0.00  0.00    +0.000 A 
ATOM     15  C   UNL     1      44.773   2.753  11.284  0.00  0.00    +0.000 A 
ATOM     16  C   UNL     1      44.311   3.093  10.019  0.00  0.00    +0.000 A 
ATOM     17  N   UNL     1      43.794   4.313   9.742  0.00  0.00    +0.000 NA
ATOM     18  C   UNL     1      43.801   5.237  10.731  0.00  0.00    +0.000 A 
BRANCH  16  19
ATOM     19  C   UNL     1      44.483   2.153   8.849  0.00  0.00    +0.000 C 
BRANCH  19  20
ATOM     20  C   UNL     1      45.984   1.923   8.582  0.00  0.00    +0.000 C 
BRANCH  20  21
ATOM     21  N   UNL     1      46.477   2.432   7.283  0.00  0.00    +0.000 NA
ATOM     22  C   UNL     1      46.689   3.881   7.312  0.00  0.00    +0.000 C 
ATOM     23  C   UNL     1      47.743   1.767   6.947  0.00  0.00    +0.000 C 
ENDBRANCH  20  21
ENDBRANCH  19  20
ENDBRANCH  16  19
ENDBRANCH   1  13
TORSDOF 6
ENDMDL
MODEL 5
REMARK VINA RESULT:    -5.949      3.134      7.878
REMARK INTER + INTRA:          -8.701
REMARK INTER:                  -8.679
REMARK INTRA:                  -0.022
REMARK UNBOUND:                -0.666
REMARK  Name = 
REMARK  9 active torsions:
REMARK  status: ('A' for Active; 'I' for Inactive)
REMARK    1  A    between atoms: C_1  and  O_2
REMARK    2  A    between atoms: O_2  and  C_3
REMARK    3  A    between atoms: N_10  and  C_11
REMARK    4  A    between atoms: C_11  and  C_12
REMARK    5  A    between atoms: C_15  and  C_16
REMARK    6  A    between atoms: C_16  and  C_17
REMARK    7  A    between atoms: C_17  and  N_18
REMARK    8  A    between atoms: N_18  and  C_19
REMARK    9  A    between atoms: N_18  and  C_20
REMARK                            x       y       z     vdW  Elec       q    Type
REMARK                         _______ _______ _______ _____ _____    ______ ____
ROOT
ATOM      1  C   UNL     1      45.153   4.818  13.169  0.00  0.00    +0.000 C 
ENDROOT
BRANCH   1   9
ATOM      2  C   UNL     1      49.000   5.401  16.714  0.00  0.00    +0.000 A 
ATOM      3  C   UNL     1      48.078   4.359  16.636  0.00  0.00    +0.000 A 
ATOM      4  C   UNL     1      47.159   4.284  15.579  0.00  0.00    +0.000 A 
ATOM      5  C   UNL     1      47.189   5.285  14.594  0.00  0.00    +0.000 A 
ATOM      6  C   UNL     1      48.108   6.339  14.655  0.00  0.00    +0.000 A 
ATOM      7  C   UNL     1      47.876   7.171  13.527  0.00  0.00    +0.000 A 
ATOM      8  C   UNL     1      46.827   6.635  12.820  0.00  0.00    +0.000 A 
ATOM      9  N   UNL     1      46.403   5.502  13.475  0.00  0.00    +0.000 N 
ATOM     10  C   UNL     1      49.010   6.399  15.735  0.00  0.00    +0.000 A 
BRANCH   2  12
ATOM     11  C   UNL     1      51.220   5.093  17.471  0.00  0.00    +0.000 C 
ATOM     12  O   UNL     1      49.907   5.578  17.724  0.00  0.00    +0.000 OA
ENDBRANCH   2  12
ENDBRANCH   1   9
BRANCH   1  13
ATOM     13  C   UNL     1      44.985   4.420  11.730  0.00  0.00    +0.000 A 
ATOM     14  C   UNL     1      44.775   3.093  11.345  0.00  0.00    +0.000 A 
ATOM     15  C   UNL     1      44.856   2.740   9.995  0.00  0.00    +0.000 A 
ATOM     16  C   UNL     1      45.139   3.728   9.060  0.00  0.00    +0.000 A 
ATOM     17  N   UNL     1      45.265   5.031   9.403  0.00  0.00    +0.000 NA
ATOM     18  C   UNL     1      45.175   5.348  10.715  0.00  0.00    +0.000 A 
BRANCH  16  19
ATOM     19  C   UNL     1      45.450   3.374   7.625  0.00  0.00    +0.000 C 
BRANCH  19  20
ATOM     20  C   UNL     1      46.934   3.667   7.326  0.00  0.00    +0.000 C 
BRANCH  20  21
ATOM     21  N   UNL     1      47.691   2.541   6.735  0.00  0.00    +0.000 NA
ATOM     22  C   UNL     1      47.277   1.253   7.298  0.00  0.00    +0.000 C 
ATOM     23  C   UNL     1      47.480   2.521   5.282  0.00  0.00    +0.000 C 
ENDBRANCH  20  21
ENDBRANCH  19  20
ENDBRANCH  16  19
ENDBRANCH   1  13
TORSDOF 6
ENDMDL
MODEL 6
REMARK VINA RESULT:    -5.894      2.867      7.362
REMARK INTER + INTRA:          -8.627
REMARK INTER:                  -7.871
REMARK INTRA:                  -0.756
REMARK UNBOUND:                -0.666
REMARK  Name = 
REMARK  9 active torsions:
REMARK  status: ('A' for Active; 'I' for Inactive)
REMARK    1  A    between atoms: C_1  and  O_2
REMARK    2  A    between atoms: O_2  and  C_3
REMARK    3  A    between atoms: N_10  and  C_11
REMARK    4  A    between atoms: C_11  and  C_12
REMARK    5  A    between atoms: C_15  and  C_16
REMARK    6  A    between atoms: C_16  and  C_17
REMARK    7  A    between atoms: C_17  and  N_18
REMARK    8  A    between atoms: N_18  and  C_19
REMARK    9  A    between atoms: N_18  and  C_20
REMARK                            x       y       z     vdW  Elec       q    Type
REMARK                         _______ _______ _______ _____ _____    ______ ____
ROOT
ATOM      1  C   UNL     1      43.742   6.186  12.496  0.00  0.00    +0.000 C 
ENDROOT
BRANCH   1   9
ATOM      2  C   UNL     1      48.616   6.635  14.435  0.00  0.00    +0.000 A 
ATOM      3  C   UNL     1      47.823   5.489  14.406  0.00  0.00    +0.000 A 
ATOM      4  C   UNL     1      46.570   5.491  13.774  0.00  0.00    +0.000 A 
ATOM      5  C   UNL     1      46.132   6.677  13.164  0.00  0.00    +0.000 A 
ATOM      6  C   UNL     1      46.913   7.837  13.181  0.00  0.00    +0.000 A 
ATOM      7  C   UNL     1      46.191   8.847  12.490  0.00  0.00    +0.000 A 
ATOM      8  C   UNL     1      44.994   8.305  12.088  0.00  0.00    +0.000 A 
ATOM      9  N   UNL     1      44.954   6.996  12.510  0.00  0.00    +0.000 N 
ATOM     10  C   UNL     1      48.160   7.813  13.836  0.00  0.00    +0.000 A 
BRANCH   2  12
ATOM     11  C   UNL     1      50.252   8.059  15.379  0.00  0.00    +0.000 C 
ATOM     12  O   UNL     1      49.830   6.739  15.058  0.00  0.00    +0.000 OA
ENDBRANCH   2  12
ENDBRANCH   1   9
BRANCH   1  13
ATOM     13  C   UNL     1      43.767   5.026  11.541  0.00  0.00    +0.000 A 
ATOM     14  C   UNL     1      43.454   3.725  11.941  0.00  0.00    +0.000 A 
ATOM     15  C   UNL     1      43.712   2.652  11.083  0.00  0.00    +0.000 A 
ATOM     16  C   UNL     1      44.273   2.910   9.838  0.00  0.00    +0.000 A 
ATOM     17  N   UNL     1      44.508   4.169   9.399  0.00  0.00    +0.000 NA
ATOM     18  C   UNL     1      44.242   5.190  10.246  0.00  0.00    +0.000 A 
BRANCH  16  19
ATOM     19  C   UNL     1      44.771   1.786   8.961  0.00  0.00    +0.000 C 
BRANCH  19  20
ATOM     20  C   UNL     1      45.683   2.352   7.856  0.00  0.00    +0.000 C 
BRANCH  20  21
ATOM     21  N   UNL     1      47.032   1.747   7.782  0.00  0.00    +0.000 NA
ATOM     22  C   UNL     1      46.972   0.328   7.422  0.00  0.00    +0.000 C 
ATOM     23  C   UNL     1      47.834   2.463   6.781  0.00  0.00    +0.000 C 
ENDBRANCH  20  21
ENDBRANCH  19  20
ENDBRANCH  16  19
ENDBRANCH   1  13
TORSDOF 6
ENDMDL
MODEL 7
REMARK VINA RESULT:    -5.872      3.215      7.367
REMARK INTER + INTRA:          -8.598
REMARK INTER:                  -7.996
REMARK INTRA:                  -0.601
REMARK UNBOUND:                -0.666
REMARK  Name = 
REMARK  9 active torsions:
REMARK  status: ('A' for Active; 'I' for Inactive)
REMARK    1  A    between atoms: C_1  and  O_2
REMARK    2  A    between atoms: O_2  and  C_3
REMARK    3  A    between atoms: N_10  and  C_11
REMARK    4  A    between atoms: C_11  and  C_12
REMARK    5  A    between atoms: C_15  and  C_16
REMARK    6  A    between atoms: C_16  and  C_17
REMARK    7  A    between atoms: C_17  and  N_18
REMARK    8  A    between atoms: N_18  and  C_19
REMARK    9  A    between atoms: N_18  and  C_20
REMARK                            x       y       z     vdW  Elec       q    Type
REMARK                         _______ _______ _______ _____ _____    ______ ____
ROOT
ATOM      1  C   UNL     1      46.509   6.799  13.132  0.00  0.00    +0.000 C 
ENDROOT
BRANCH   1   9
ATOM      2  C   UNL     1      50.671   9.324  11.128  0.00  0.00    +0.000 A 
ATOM      3  C   UNL     1      50.573   7.966  11.426  0.00  0.00    +0.000 A 
ATOM      4  C   UNL     1      49.366   7.409  11.874  0.00  0.00    +0.000 A 
ATOM      5  C   UNL     1      48.251   8.251  12.013  0.00  0.00    +0.000 A 
ATOM      6  C   UNL     1      48.329   9.617  11.718  0.00  0.00    +0.000 A 
ATOM      7  C   UNL     1      47.048  10.180  11.964  0.00  0.00    +0.000 A 
ATOM      8  C   UNL     1      46.229   9.173  12.417  0.00  0.00    +0.000 A 
ATOM      9  N   UNL     1      46.963   8.010  12.460  0.00  0.00    +0.000 N 
ATOM     10  C   UNL     1      49.557  10.155  11.285  0.00  0.00    +0.000 A 
BRANCH   2  12
ATOM     11  C   UNL     1      52.707   9.191   9.931  0.00  0.00    +0.000 C 
ATOM     12  O   UNL     1      51.812   9.963  10.723  0.00  0.00    +0.000 OA
ENDBRANCH   2  12
ENDBRANCH   1   9
BRANCH   1  13
ATOM     13  C   UNL     1      45.814   5.806  12.244  0.00  0.00    +0.000 A 
ATOM     14  C   UNL     1      45.369   4.569  12.718  0.00  0.00    +0.000 A 
ATOM     15  C   UNL     1      44.940   3.593  11.814  0.00  0.00    +0.000 A 
ATOM     16  C   UNL     1      44.960   3.882  10.455  0.00  0.00    +0.000 A 
ATOM     17  N   UNL     1      45.310   5.101   9.982  0.00  0.00    +0.000 NA
ATOM     18  C   UNL     1      45.713   6.031  10.878  0.00  0.00    +0.000 A 
BRANCH  16  19
ATOM     19  C   UNL     1      44.716   2.804   9.427  0.00  0.00    +0.000 C 
BRANCH  19  20
ATOM     20  C   UNL     1      45.202   3.282   8.045  0.00  0.00    +0.000 C 
BRANCH  20  21
ATOM     21  N   UNL     1      46.475   2.684   7.584  0.00  0.00    +0.000 NA
ATOM     22  C   UNL     1      46.522   1.242   7.839  0.00  0.00    +0.000 C 
ATOM     23  C   UNL     1      46.633   2.923   6.143  0.00  0.00    +0.000 C 
ENDBRANCH  20  21
ENDBRANCH  19  20
ENDBRANCH  16  19
ENDBRANCH   1  13
TORSDOF 6
ENDMDL
MODEL 8
REMARK VINA RESULT:    -5.810      4.079      8.875
REMARK INTER + INTRA:          -8.513
REMARK INTER:                  -7.834
REMARK INTRA:                  -0.679
REMARK UNBOUND:                -0.666
REMARK  Name = 
REMARK  9 active torsions:
REMARK  status: ('A' for Active; 'I' for Inactive)
REMARK    1  A    between atoms: C_1  and  O_2
REMARK    2  A    between atoms: O_2  and  C_3
REMARK    3  A    between atoms: N_10  and  C_11
REMARK    4  A    between atoms: C_11  and  C_12
REMARK    5  A    between atoms: C_15  and  C_16
REMARK    6  A    between atoms: C_16  and  C_17
REMARK    7  A    between atoms: C_17  and  N_18
REMARK    8  A    between atoms: N_18  and  C_19
REMARK    9  A    between atoms: N_18  and  C_20
REMARK                            x       y       z     vdW  Elec       q    Type
REMARK                         _______ _______ _______ _____ _____    ______ ____
ROOT
ATOM      1  C   UNL     1      48.883   5.056  17.745  0.00  0.00    +0.000 C 
ENDROOT
BRANCH   1   9
ATOM      2  C   UNL     1      52.657   1.388  17.826  0.00  0.00    +0.000 A 
ATOM      3  C   UNL     1      51.336   1.228  17.410  0.00  0.00    +0.000 A 
ATOM      4  C   UNL     1      50.457   2.320  17.357  0.00  0.00    +0.000 A 
ATOM      5  C   UNL     1      50.940   3.586  17.729  0.00  0.00    +0.000 A 
ATOM      6  C   UNL     1      52.263   3.766  18.149  0.00  0.00    +0.000 A 
ATOM      7  C   UNL     1      52.428   5.143  18.454  0.00  0.00    +0.000 A 
ATOM      8  C   UNL     1      51.223   5.767  18.241  0.00  0.00    +0.000 A 
ATOM      9  N   UNL     1      50.319   4.820  17.817  0.00  0.00    +0.000 N 
ATOM     10  C   UNL     1      53.120   2.650  18.209  0.00  0.00    +0.000 A 
BRANCH   2  12
ATOM     11  C   UNL     1      54.221  -0.019  16.744  0.00  0.00    +0.000 C 
ATOM     12  O   UNL     1      53.573   0.378  17.947  0.00  0.00    +0.000 OA
ENDBRANCH   2  12
ENDBRANCH   1   9
BRANCH   1  13
ATOM     13  C   UNL     1      48.299   4.987  16.362  0.00  0.00    +0.000 A 
ATOM     14  C   UNL     1      48.444   6.026  15.440  0.00  0.00    +0.000 A 
ATOM     15  C   UNL     1      47.696   6.018  14.259  0.00  0.00    +0.000 A 
ATOM     16  C   UNL     1      46.824   4.962  14.026  0.00  0.00    +0.000 A 
ATOM     17  N   UNL     1      46.729   3.905  14.867  0.00  0.00    +0.000 NA
ATOM     18  C   UNL     1      47.469   3.934  15.999  0.00  0.00    +0.000 A 
BRANCH  16  19
ATOM     19  C   UNL     1      45.839   5.005  12.882  0.00  0.00    +0.000 C 
BRANCH  19  20
ATOM     20  C   UNL     1      45.351   3.578  12.561  0.00  0.00    +0.000 C 
BRANCH  20  21
ATOM     21  N   UNL     1      43.903   3.347  12.764  0.00  0.00    +0.000 NA
ATOM     22  C   UNL     1      43.193   4.590  13.075  0.00  0.00    +0.000 C 
ATOM     23  C   UNL     1      43.328   2.756  11.548  0.00  0.00    +0.000 C 
ENDBRANCH  20  21
ENDBRANCH  19  20
ENDBRANCH  16  19
ENDBRANCH   1  13
TORSDOF 6
ENDMDL
MODEL 9
REMARK VINA RESULT:    -5.439      3.461      8.496
REMARK INTER + INTRA:          -8.013
REMARK INTER:                  -7.298
REMARK INTRA:                  -0.715
REMARK UNBOUND:                -0.666
REMARK  Name = 
REMARK  9 active torsions:
REMARK  status: ('A' for Active; 'I' for Inactive)
REMARK    1  A    between atoms: C_1  and  O_2
REMARK    2  A    between atoms: O_2  and  C_3
REMARK    3  A    between atoms: N_10  and  C_11
REMARK    4  A    between atoms: C_11  and  C_12
REMARK    5  A    between atoms: C_15  and  C_16
REMARK    6  A    between atoms: C_16  and  C_17
REMARK    7  A    between atoms: C_17  and  N_18
REMARK    8  A    between atoms: N_18  and  C_19
REMARK    9  A    between atoms: N_18  and  C_20
REMARK                            x       y       z     vdW  Elec       q    Type
REMARK                         _______ _______ _______ _____ _____    ______ ____
ROOT
ATOM      1  C   UNL     1      48.811   7.256  13.809  0.00  0.00    +0.000 C 
ENDROOT
BRANCH   1   9
ATOM      2  C   UNL     1      48.788   6.510  19.020  0.00  0.00    +0.000 A 
ATOM      3  C   UNL     1      49.158   5.591  18.039  0.00  0.00    +0.000 A 
ATOM      4  C   UNL     1      49.201   5.956  16.685  0.00  0.00    +0.000 A 
ATOM      5  C   UNL     1      48.868   7.275  16.337  0.00  0.00    +0.000 A 
ATOM      6  C   UNL     1      48.496   8.212  17.308  0.00  0.00    +0.000 A 
ATOM      7  C   UNL     1      48.221   9.434  16.636  0.00  0.00    +0.000 A 
ATOM      8  C   UNL     1      48.405   9.222  15.291  0.00  0.00    +0.000 A 
ATOM      9  N   UNL     1      48.782   7.911  15.111  0.00  0.00    +0.000 N 
ATOM     10  C   UNL     1      48.444   7.816  18.658  0.00  0.00    +0.000 A 
BRANCH   2  12
ATOM     11  C   UNL     1      47.354   6.144  20.866  0.00  0.00    +0.000 C 
ATOM     12  O   UNL     1      48.680   6.236  20.357  0.00  0.00    +0.000 OA
ENDBRANCH   2  12
ENDBRANCH   1   9
BRANCH   1  13
ATOM     13  C   UNL     1      47.492   6.695  13.354  0.00  0.00    +0.000 A 
ATOM     14  C   UNL     1      46.522   7.487  12.735  0.00  0.00    +0.000 A 
ATOM     15  C   UNL     1      45.234   6.981  12.540  0.00  0.00    +0.000 A 
ATOM     16  C   UNL     1      44.949   5.689  12.965  0.00  0.00    +0.000 A 
ATOM     17  N   UNL     1      45.896   4.878  13.492  0.00  0.00    +0.000 NA
ATOM     18  C   UNL     1      47.138   5.389  13.662  0.00  0.00    +0.000 A 
BRANCH  16  19
ATOM     19  C   UNL     1      43.532   5.168  12.978  0.00  0.00    +0.000 C 
BRANCH  19  20
ATOM     20  C   UNL     1      42.998   5.074  11.535  0.00  0.00    +0.000 C 
BRANCH  20  21
ATOM     21  N   UNL     1      43.174   3.757  10.883  0.00  0.00    +0.000 NA
ATOM     22  C   UNL     1      44.307   3.757   9.955  0.00  0.00    +0.000 C 
ATOM     23  C   UNL     1      43.394   2.730  11.910  0.00  0.00    +0.000 C 
ENDBRANCH  20  21
ENDBRANCH  19  20
ENDBRANCH  16  19
ENDBRANCH   1  13
TORSDOF 6
ENDMDL
