MODEL 1
REMARK VINA RESULT:    -8.947      0.000      0.000
REMARK INTER + INTRA:         -12.472
REMARK INTER:                 -11.562
REMARK INTRA:                  -0.910
REMARK UNBOUND:                -0.910
REMARK  Name = 
REMARK  5 active torsions:
REMARK  status: ('A' for Active; 'I' for Inactive)
REMARK    1  A    between atoms: C_2  and  C_4
REMARK    2  A    between atoms: N_8  and  C_9
REMARK    3  A    between atoms: C_9  and  C_10
REMARK    4  A    between atoms: C_10  and  C_11
REMARK    5  A    between atoms: C_15  and  C_16
REMARK                            x       y       z     vdW  Elec       q    Type
REMARK                         _______ _______ _______ _____ _____    ______ ____
ROOT
ATOM      1  C   UNL     1      43.416   4.887  10.621  0.00  0.00    +0.000 C 
ENDROOT
BRANCH   1   6
ATOM      2  C   UNL     1      46.648   2.633   7.374  0.00  0.00    +0.000 A 
ATOM      3  C   UNL     1      46.218   3.948   7.487  0.00  0.00    +0.000 A 
ATOM      4  C   UNL     1      45.288   4.273   8.472  0.00  0.00    +0.000 A 
ATOM      5  C   UNL     1      44.788   3.285   9.320  0.00  0.00    +0.000 A 
ATOM      6  N   UNL     1      43.898   3.555  10.331  0.00  0.00    +0.000 N 
ATOM      7  N   UNL     1      45.173   2.000   9.193  0.00  0.00    +0.000 NA
ATOM      8  C   UNL     1      46.084   1.697   8.228  0.00  0.00    +0.000 A 
ATOM      9  H   UNL     1      43.568   2.738  10.830  0.00  0.00    +0.000 HD
BRANCH   2  11
ATOM     10  N   UNL     1      47.830   3.016   5.292  0.00  0.00    +0.000 N 
ATOM     11  C   UNL     1      47.663   2.212   6.389  0.00  0.00    +0.000 C 
ATOM     12  O   UNL     1      48.350   1.215   6.559  0.00  0.00    +0.000 OA
ATOM     13  H   UNL     1      48.599   2.783   4.675  0.00  0.00    +0.000 HD
ATOM     14  H   UNL     1      47.467   3.957   5.248  0.00  0.00    +0.000 HD
ENDBRANCH   2  11
ENDBRANCH   1   6
BRANCH   1  15
ATOM     15  C   UNL     1      43.609   5.287  12.085  0.00  0.00    +0.000 C 
BRANCH  15  16
ATOM     16  C   UNL     1      45.071   5.584  12.340  0.00  0.00    +0.000 A 
ATOM     17  C   UNL     1      45.795   6.394  11.461  0.00  0.00    +0.000 A 
ATOM     18  C   UNL     1      47.110   6.748  11.757  0.00  0.00    +0.000 A 
ATOM     19  C   UNL     1      47.704   6.314  12.946  0.00  0.00    +0.000 A 
ATOM     20  C   UNL     1      47.002   5.516  13.866  0.00  0.00    +0.000 A 
ATOM     21  C   UNL     1      45.685   5.144  13.526  0.00  0.00    +0.000 A 
BRANCH  20  22
ATOM     22  C   UNL     1      47.599   5.126  15.160  0.00  0.00    +0.000 A 
ATOM     23  C   UNL     1      48.544   5.928  15.815  0.00  0.00    +0.000 A 
ATOM     24  N   UNL     1      49.113   5.654  17.017  0.00  0.00    +0.000 NA
ATOM     25  C   UNL     1      48.713   4.511  17.621  0.00  0.00    +0.000 A 
ATOM     26  C   UNL     1      47.787   3.647  17.067  0.00  0.00    +0.000 A 
ATOM     27  F   UNL     1      47.422   2.534  17.715  0.00  0.00    +0.000 F 
ATOM     28  C   UNL     1      47.229   3.950  15.831  0.00  0.00    +0.000 A 
ENDBRANCH  20  22
ENDBRANCH  15  16
ENDBRANCH   1  15
TORSDOF 5
ENDMDL
MODEL 2
REMARK VINA RESULT:    -8.891      3.010      4.104
REMARK INTER + INTRA:         -12.399
REMARK INTER:                 -11.623
REMARK INTRA:                  -0.777
REMARK UNBOUND:                -0.910
REMARK  Name = 
REMARK  5 active torsions:
REMARK  status: ('A' for Active; 'I' for Inactive)
REMARK    1  A    between atoms: C_2  and  C_4
REMARK    2  A    between atoms: N_8  and  C_9
REMARK    3  A    between atoms: C_9  and  C_10
REMARK    4  A    between atoms: C_10  and  C_11
REMARK    5  A    between atoms: C_15  and  C_16
REMARK                            x       y       z     vdW  Elec       q    Type
REMARK                         _______ _______ _______ _____ _____    ______ ____
ROOT
ATOM      1  C   UNL     1      43.019   4.522  11.036  0.00  0.00    +0.000 C 
ENDROOT
BRANCH   1   6
ATOM      2  C   UNL     1      46.417   2.555   7.773  0.00  0.00    +0.000 A 
ATOM      3  C   UNL     1      45.642   1.970   8.764  0.00  0.00    +0.000 A 
ATOM      4  C   UNL     1      44.808   2.778   9.535  0.00  0.00    +0.000 A 
ATOM      5  C   UNL     1      44.767   4.154   9.319  0.00  0.00    +0.000 A 
ATOM      6  N   UNL     1      43.938   4.993  10.024  0.00  0.00    +0.000 N 
ATOM      7  N   UNL     1      45.544   4.735   8.383  0.00  0.00    +0.000 NA
ATOM      8  C   UNL     1      46.352   3.933   7.635  0.00  0.00    +0.000 A 
ATOM      9  H   UNL     1      44.054   5.976   9.812  0.00  0.00    +0.000 HD
BRANCH   2  11
ATOM     10  N   UNL     1      48.355   2.424   6.322  0.00  0.00    +0.000 N 
ATOM     11  C   UNL     1      47.292   1.768   6.883  0.00  0.00    +0.000 C 
ATOM     12  O   UNL     1      47.102   0.576   6.684  0.00  0.00    +0.000 OA
ATOM     13  H   UNL     1      49.012   1.856   5.801  0.00  0.00    +0.000 HD
ATOM     14  H   UNL     1      48.679   3.320   6.657  0.00  0.00    +0.000 HD
ENDBRANCH   2  11
ENDBRANCH   1   6
BRANCH   1  15
ATOM     15  C   UNL     1      43.097   5.327  12.335  0.00  0.00    +0.000 C 
BRANCH  15  16
ATOM     16  C   UNL     1      44.548   5.501  12.735  0.00  0.00    +0.000 A 
ATOM     17  C   UNL     1      45.265   4.437  13.288  0.00  0.00    +0.000 A 
ATOM     18  C   UNL     1      46.625   4.574  13.556  0.00  0.00    +0.000 A 
ATOM     19  C   UNL     1      47.284   5.769  13.254  0.00  0.00    +0.000 A 
ATOM     20  C   UNL     1      46.603   6.855  12.679  0.00  0.00    +0.000 A 
ATOM     21  C   UNL     1      45.220   6.702  12.448  0.00  0.00    +0.000 A 
BRANCH  20  22
ATOM     22  C   UNL     1      47.313   8.089  12.282  0.00  0.00    +0.000 A 
ATOM     23  C   UNL     1      46.724   9.356  12.397  0.00  0.00    +0.000 A 
ATOM     24  N   UNL     1      47.321  10.535  12.084  0.00  0.00    +0.000 NA
ATOM     25  C   UNL     1      48.594  10.458  11.634  0.00  0.00    +0.000 A 
ATOM     26  C   UNL     1      49.273   9.264  11.484  0.00  0.00    +0.000 A 
ATOM     27  F   UNL     1      50.537   9.250  11.043  0.00  0.00    +0.000 F 
ATOM     28  C   UNL     1      48.632   8.073  11.803  0.00  0.00    +0.000 A 
ENDBRANCH  20  22
ENDBRANCH  15  16
ENDBRANCH   1  15
TORSDOF 5
ENDMDL
MODEL 3
REMARK VINA RESULT:    -8.007      3.375      7.769
REMARK INTER + INTRA:         -11.258
REMARK INTER:                 -10.520
REMARK INTRA:                  -0.738
REMARK UNBOUND:                -0.910
REMARK  Name = 
REMARK  5 active torsions:
REMARK  status: ('A' for Active; 'I' for Inactive)
REMARK    1  A    between atoms: C_2  and  C_4
REMARK    2  A    between atoms: N_8  and  C_9
REMARK    3  A    between atoms: C_9  and  C_10
REMARK    4  A    between atoms: C_10  and  C_11
REMARK    5  A    between atoms: C_15  and  C_16
REMARK                            x       y       z     vdW  Elec       q    Type
REMARK                         _______ _______ _______ _____ _____    ______ ____
ROOT
ATOM      1  C   UNL     1      47.339   7.262  11.790  0.00  0.00    +0.000 C 
ENDROOT
BRANCH   1   6
ATOM      2  C   UNL     1      47.568   4.293  15.937  0.00  0.00    +0.000 A 
ATOM      3  C   UNL     1      46.936   4.124  14.712  0.00  0.00    +0.000 A 
ATOM      4  C   UNL     1      47.024   5.138  13.760  0.00  0.00    +0.000 A 
ATOM      5  C   UNL     1      47.726   6.309  14.044  0.00  0.00    +0.000 A 
ATOM      6  N   UNL     1      47.876   7.324  13.131  0.00  0.00    +0.000 N 
ATOM      7  N   UNL     1      48.311   6.496  15.243  0.00  0.00    +0.000 NA
ATOM      8  C   UNL     1      48.219   5.496  16.162  0.00  0.00    +0.000 A 
ATOM      9  H   UNL     1      48.353   8.143  13.486  0.00  0.00    +0.000 HD
BRANCH   2  11
ATOM     10  N   UNL     1      48.778   2.756  17.368  0.00  0.00    +0.000 N 
ATOM     11  C   UNL     1      47.562   3.252  16.982  0.00  0.00    +0.000 C 
ATOM     12  O   UNL     1      46.523   2.875  17.508  0.00  0.00    +0.000 OA
ATOM     13  H   UNL     1      48.777   2.122  18.158  0.00  0.00    +0.000 HD
ATOM     14  H   UNL     1      49.649   3.214  17.141  0.00  0.00    +0.000 HD
ENDBRANCH   2  11
ENDBRANCH   1   6
BRANCH   1  15
ATOM     15  C   UNL     1      45.841   7.572  11.730  0.00  0.00    +0.000 C 
BRANCH  15  16
ATOM     16  C   UNL     1      45.091   6.348  11.246  0.00  0.00    +0.000 A 
ATOM     17  C   UNL     1      43.752   6.152  11.597  0.00  0.00    +0.000 A 
ATOM     18  C   UNL     1      43.040   5.080  11.063  0.00  0.00    +0.000 A 
ATOM     19  C   UNL     1      43.653   4.209  10.157  0.00  0.00    +0.000 A 
ATOM     20  C   UNL     1      44.991   4.386   9.764  0.00  0.00    +0.000 A 
ATOM     21  C   UNL     1      45.699   5.458  10.344  0.00  0.00    +0.000 A 
BRANCH  20  22
ATOM     22  C   UNL     1      45.616   3.517   8.744  0.00  0.00    +0.000 A 
ATOM     23  C   UNL     1      46.251   4.042   7.609  0.00  0.00    +0.000 A 
ATOM     24  N   UNL     1      46.874   3.313   6.647  0.00  0.00    +0.000 NA
ATOM     25  C   UNL     1      46.877   1.972   6.822  0.00  0.00    +0.000 A 
ATOM     26  C   UNL     1      46.284   1.348   7.904  0.00  0.00    +0.000 A 
ATOM     27  F   UNL     1      46.328   0.016   8.029  0.00  0.00    +0.000 F 
ATOM     28  C   UNL     1      45.646   2.120   8.868  0.00  0.00    +0.000 A 
ENDBRANCH  20  22
ENDBRANCH  15  16
ENDBRANCH   1  15
TORSDOF 5
ENDMDL
MODEL 4
REMARK VINA RESULT:    -7.455      3.940      8.618
REMARK INTER + INTRA:         -10.544
REMARK INTER:                  -9.990
REMARK INTRA:                  -0.554
REMARK UNBOUND:                -0.910
REMARK  Name = 
REMARK  5 active torsions:
REMARK  status: ('A' for Active; 'I' for Inactive)
REMARK    1  A    between atoms: C_2  and  C_4
REMARK    2  A    between atoms: N_8  and  C_9
REMARK    3  A    between atoms: C_9  and  C_10
REMARK    4  A    between atoms: C_10  and  C_11
REMARK    5  A    between atoms: C_15  and  C_16
REMARK                            x       y       z     vdW  Elec       q    Type
REMARK                         _______ _______ _______ _____ _____    ______ ____
ROOT
ATOM      1  C   UNL     1      46.356   5.743  13.594  0.00  0.00    +0.000 C 
ENDROOT
BRANCH   1   6
ATOM      2  C   UNL     1      48.850   4.435  17.852  0.00  0.00    +0.000 A 
ATOM      3  C   UNL     1      49.024   5.489  16.965  0.00  0.00    +0.000 A 
ATOM      4  C   UNL     1      48.195   5.577  15.849  0.00  0.00    +0.000 A 
ATOM      5  C   UNL     1      47.216   4.611  15.623  0.00  0.00    +0.000 A 
ATOM      6  N   UNL     1      46.347   4.668  14.560  0.00  0.00    +0.000 N 
ATOM      7  N   UNL     1      47.064   3.566  16.460  0.00  0.00    +0.000 NA
ATOM      8  C   UNL     1      47.879   3.493  17.547  0.00  0.00    +0.000 A 
ATOM      9  H   UNL     1      45.728   3.871  14.478  0.00  0.00    +0.000 HD
BRANCH   2  11
ATOM     10  N   UNL     1      50.932   3.821  18.932  0.00  0.00    +0.000 N 
ATOM     11  C   UNL     1      49.655   4.292  19.081  0.00  0.00    +0.000 C 
ATOM     12  O   UNL     1      49.218   4.614  20.177  0.00  0.00    +0.000 OA
ATOM     13  H   UNL     1      51.514   3.826  19.761  0.00  0.00    +0.000 HD
ATOM     14  H   UNL     1      51.397   3.786  18.036  0.00  0.00    +0.000 HD
ENDBRANCH   2  11
ENDBRANCH   1   6
BRANCH   1  15
ATOM     15  C   UNL     1      45.002   5.944  12.910  0.00  0.00    +0.000 C 
BRANCH  15  16
ATOM     16  C   UNL     1      44.644   4.701  12.122  0.00  0.00    +0.000 A 
ATOM     17  C   UNL     1      43.557   3.908  12.500  0.00  0.00    +0.000 A 
ATOM     18  C   UNL     1      43.172   2.827  11.712  0.00  0.00    +0.000 A 
ATOM     19  C   UNL     1      43.855   2.542  10.526  0.00  0.00    +0.000 A 
ATOM     20  C   UNL     1      44.940   3.328  10.100  0.00  0.00    +0.000 A 
ATOM     21  C   UNL     1      45.331   4.396  10.934  0.00  0.00    +0.000 A 
BRANCH  20  22
ATOM     22  C   UNL     1      45.612   3.080   8.807  0.00  0.00    +0.000 A 
ATOM     23  C   UNL     1      45.869   4.112   7.893  0.00  0.00    +0.000 A 
ATOM     24  N   UNL     1      46.507   3.970   6.703  0.00  0.00    +0.000 NA
ATOM     25  C   UNL     1      46.929   2.722   6.397  0.00  0.00    +0.000 A 
ATOM     26  C   UNL     1      46.731   1.633   7.223  0.00  0.00    +0.000 A 
ATOM     27  F   UNL     1      47.180   0.422   6.871  0.00  0.00    +0.000 F 
ATOM     28  C   UNL     1      46.066   1.807   8.431  0.00  0.00    +0.000 A 
ENDBRANCH  20  22
ENDBRANCH  15  16
ENDBRANCH   1  15
TORSDOF 5
ENDMDL
MODEL 5
REMARK VINA RESULT:    -7.280      4.213      7.382
REMARK INTER + INTRA:         -10.318
REMARK INTER:                  -9.482
REMARK INTRA:                  -0.835
REMARK UNBOUND:                -0.910
REMARK  Name = 
REMARK  5 active torsions:
REMARK  status: ('A' for Active; 'I' for Inactive)
REMARK    1  A    between atoms: C_2  and  C_4
REMARK    2  A    between atoms: N_8  and  C_9
REMARK    3  A    between atoms: C_9  and  C_10
REMARK    4  A    between atoms: C_10  and  C_11
REMARK    5  A    between atoms: C_15  and  C_16
REMARK                            x       y       z     vdW  Elec       q    Type
REMARK                         _______ _______ _______ _____ _____    ______ ____
ROOT
ATOM      1  C   UNL     1      44.736   7.139  12.631  0.00  0.00    +0.000 C 
ENDROOT
BRANCH   1   6
ATOM      2  C   UNL     1      49.625   8.245  11.664  0.00  0.00    +0.000 A 
ATOM      3  C   UNL     1      48.976   7.038  11.882  0.00  0.00    +0.000 A 
ATOM      4  C   UNL     1      47.610   7.044  12.158  0.00  0.00    +0.000 A 
ATOM      5  C   UNL     1      46.913   8.249  12.228  0.00  0.00    +0.000 A 
ATOM      6  N   UNL     1      45.561   8.314  12.460  0.00  0.00    +0.000 N 
ATOM      7  N   UNL     1      47.543   9.428  12.054  0.00  0.00    +0.000 NA
ATOM      8  C   UNL     1      48.877   9.407  11.783  0.00  0.00    +0.000 A 
ATOM      9  H   UNL     1      45.192   9.252  12.549  0.00  0.00    +0.000 HD
BRANCH   2  11
ATOM     10  N   UNL     1      51.638   7.190  10.819  0.00  0.00    +0.000 N 
ATOM     11  C   UNL     1      51.059   8.325  11.323  0.00  0.00    +0.000 C 
ATOM     12  O   UNL     1      51.693   9.363  11.447  0.00  0.00    +0.000 OA
ATOM     13  H   UNL     1      52.590   7.280  10.487  0.00  0.00    +0.000 HD
ATOM     14  H   UNL     1      51.096   6.410  10.476  0.00  0.00    +0.000 HD
ENDBRANCH   2  11
ENDBRANCH   1   6
BRANCH   1  15
ATOM     15  C   UNL     1      43.955   6.767  11.369  0.00  0.00    +0.000 C 
BRANCH  15  16
ATOM     16  C   UNL     1      44.030   5.270  11.150  0.00  0.00    +0.000 A 
ATOM     17  C   UNL     1      43.218   4.403  11.887  0.00  0.00    +0.000 A 
ATOM     18  C   UNL     1      43.217   3.039  11.607  0.00  0.00    +0.000 A 
ATOM     19  C   UNL     1      44.011   2.532  10.573  0.00  0.00    +0.000 A 
ATOM     20  C   UNL     1      44.825   3.374   9.796  0.00  0.00    +0.000 A 
ATOM     21  C   UNL     1      44.833   4.746  10.122  0.00  0.00    +0.000 A 
BRANCH  20  22
ATOM     22  C   UNL     1      45.601   2.854   8.651  0.00  0.00    +0.000 A 
ATOM     23  C   UNL     1      46.110   3.698   7.653  0.00  0.00    +0.000 A 
ATOM     24  N   UNL     1      46.856   3.302   6.591  0.00  0.00    +0.000 NA
ATOM     25  C   UNL     1      47.127   1.979   6.511  0.00  0.00    +0.000 A 
ATOM     26  C   UNL     1      46.678   1.058   7.439  0.00  0.00    +0.000 A 
ATOM     27  F   UNL     1      46.985  -0.239   7.313  0.00  0.00    +0.000 F 
ATOM     28  C   UNL     1      45.908   1.493   8.511  0.00  0.00    +0.000 A 
ENDBRANCH  20  22
ENDBRANCH  15  16
ENDBRANCH   1  15
TORSDOF 5
ENDMDL
MODEL 6
REMARK VINA RESULT:    -7.261      3.625      7.921
REMARK INTER + INTRA:         -10.293
REMARK INTER:                  -9.383
REMARK INTRA:                  -0.910
REMARK UNBOUND:                -0.910
REMARK  Name = 
REMARK  5 active torsions:
REMARK  status: ('A' for Active; 'I' for Inactive)
REMARK    1  A    between atoms: C_2  and  C_4
REMARK    2  A    between atoms: N_8  and  C_9
REMARK    3  A    between atoms: C_9  and  C_10
REMARK    4  A    between atoms: C_10  and  C_11
REMARK    5  A    between atoms: C_15  and  C_16
REMARK                            x       y       z     vdW  Elec       q    Type
REMARK                         _______ _______ _______ _____ _____    ______ ____
ROOT
ATOM      1  C   UNL     1      49.352   7.251  12.276  0.00  0.00    +0.000 C 
ENDROOT
BRANCH   1   6
ATOM      2  C   UNL     1      47.817   4.869  16.523  0.00  0.00    +0.000 A 
ATOM      3  C   UNL     1      47.298   4.889  15.235  0.00  0.00    +0.000 A 
ATOM      4  C   UNL     1      47.925   5.670  14.266  0.00  0.00    +0.000 A 
ATOM      5  C   UNL     1      49.047   6.430  14.594  0.00  0.00    +0.000 A 
ATOM      6  N   UNL     1      49.726   7.188  13.671  0.00  0.00    +0.000 N 
ATOM      7  N   UNL     1      49.534   6.444  15.850  0.00  0.00    +0.000 NA
ATOM      8  C   UNL     1      48.914   5.675  16.786  0.00  0.00    +0.000 A 
ATOM      9  H   UNL     1      50.484   7.740  14.055  0.00  0.00    +0.000 HD
BRANCH   2  11
ATOM     10  N   UNL     1      47.462   4.447  18.884  0.00  0.00    +0.000 N 
ATOM     11  C   UNL     1      47.241   4.036  17.596  0.00  0.00    +0.000 C 
ATOM     12  O   UNL     1      46.566   3.046  17.349  0.00  0.00    +0.000 OA
ATOM     13  H   UNL     1      46.976   3.934  19.610  0.00  0.00    +0.000 HD
ATOM     14  H   UNL     1      47.791   5.374  19.110  0.00  0.00    +0.000 HD
ENDBRANCH   2  11
ENDBRANCH   1   6
BRANCH   1  15
ATOM     15  C   UNL     1      48.397   8.406  11.964  0.00  0.00    +0.000 C 
BRANCH  15  16
ATOM     16  C   UNL     1      46.983   7.877  11.854  0.00  0.00    +0.000 A 
ATOM     17  C   UNL     1      45.899   8.656  12.266  0.00  0.00    +0.000 A 
ATOM     18  C   UNL     1      44.596   8.205  12.065  0.00  0.00    +0.000 A 
ATOM     19  C   UNL     1      44.366   6.982  11.430  0.00  0.00    +0.000 A 
ATOM     20  C   UNL     1      45.429   6.178  10.982  0.00  0.00    +0.000 A 
ATOM     21  C   UNL     1      46.737   6.642  11.228  0.00  0.00    +0.000 A 
BRANCH  20  22
ATOM     22  C   UNL     1      45.187   4.925  10.237  0.00  0.00    +0.000 A 
ATOM     23  C   UNL     1      44.490   3.847  10.801  0.00  0.00    +0.000 A 
ATOM     24  N   UNL     1      44.202   2.679  10.172  0.00  0.00    +0.000 NA
ATOM     25  C   UNL     1      44.625   2.569   8.892  0.00  0.00    +0.000 A 
ATOM     26  C   UNL     1      45.318   3.569   8.236  0.00  0.00    +0.000 A 
ATOM     27  F   UNL     1      45.703   3.408   6.964  0.00  0.00    +0.000 F 
ATOM     28  C   UNL     1      45.607   4.751   8.909  0.00  0.00    +0.000 A 
ENDBRANCH  20  22
ENDBRANCH  15  16
ENDBRANCH   1  15
TORSDOF 5
ENDMDL
MODEL 7
REMARK VINA RESULT:    -7.155      3.295      4.095
REMARK INTER + INTRA:         -10.156
REMARK INTER:                  -9.387
REMARK INTRA:                  -0.769
REMARK UNBOUND:                -0.910
REMARK  Name = 
REMARK  5 active torsions:
REMARK  status: ('A' for Active; 'I' for Inactive)
REMARK    1  A    between atoms: C_2  and  C_4
REMARK    2  A    between atoms: N_8  and  C_9
REMARK    3  A    between atoms: C_9  and  C_10
REMARK    4  A    between atoms: C_10  and  C_11
REMARK    5  A    between atoms: C_15  and  C_16
REMARK                            x       y       z     vdW  Elec       q    Type
REMARK                         _______ _______ _______ _____ _____    ______ ____
ROOT
ATOM      1  C   UNL     1      44.220   5.580  11.550  0.00  0.00    +0.000 C 
ENDROOT
BRANCH   1   6
ATOM      2  C   UNL     1      46.248   2.905   7.704  0.00  0.00    +0.000 A 
ATOM      3  C   UNL     1      46.210   4.268   7.962  0.00  0.00    +0.000 A 
ATOM      4  C   UNL     1      45.545   4.722   9.100  0.00  0.00    +0.000 A 
ATOM      5  C   UNL     1      44.917   3.817   9.955  0.00  0.00    +0.000 A 
ATOM      6  N   UNL     1      44.280   4.204  11.108  0.00  0.00    +0.000 N 
ATOM      7  N   UNL     1      44.920   2.495   9.691  0.00  0.00    +0.000 NA
ATOM      8  C   UNL     1      45.575   2.066   8.578  0.00  0.00    +0.000 A 
ATOM      9  H   UNL     1      43.812   3.455  11.603  0.00  0.00    +0.000 HD
BRANCH   2  11
ATOM     10  N   UNL     1      47.158   3.165   5.471  0.00  0.00    +0.000 N 
ATOM     11  C   UNL     1      46.968   2.338   6.546  0.00  0.00    +0.000 C 
ATOM     12  O   UNL     1      47.408   1.197   6.559  0.00  0.00    +0.000 OA
ATOM     13  H   UNL     1      47.743   2.807   4.726  0.00  0.00    +0.000 HD
ATOM     14  H   UNL     1      47.033   4.165   5.526  0.00  0.00    +0.000 HD
ENDBRANCH   2  11
ENDBRANCH   1   6
BRANCH   1  15
ATOM     15  C   UNL     1      45.196   5.885  12.688  0.00  0.00    +0.000 C 
BRANCH  15  16
ATOM     16  C   UNL     1      45.917   7.185  12.401  0.00  0.00    +0.000 A 
ATOM     17  C   UNL     1      45.228   8.401  12.432  0.00  0.00    +0.000 A 
ATOM     18  C   UNL     1      45.918   9.600  12.270  0.00  0.00    +0.000 A 
ATOM     19  C   UNL     1      47.306   9.596  12.099  0.00  0.00    +0.000 A 
ATOM     20  C   UNL     1      48.037   8.395  12.083  0.00  0.00    +0.000 A 
ATOM     21  C   UNL     1      47.310   7.194  12.215  0.00  0.00    +0.000 A 
BRANCH  20  22
ATOM     22  C   UNL     1      49.512   8.392  11.986  0.00  0.00    +0.000 A 
ATOM     23  C   UNL     1      50.319   9.089  12.896  0.00  0.00    +0.000 A 
ATOM     24  N   UNL     1      51.676   9.109  12.892  0.00  0.00    +0.000 NA
ATOM     25  C   UNL     1      52.281   8.382  11.925  0.00  0.00    +0.000 A 
ATOM     26  C   UNL     1      51.585   7.656  10.977  0.00  0.00    +0.000 A 
ATOM     27  F   UNL     1      52.238   6.947  10.048  0.00  0.00    +0.000 F 
ATOM     28  C   UNL     1      50.195   7.663  11.001  0.00  0.00    +0.000 A 
ENDBRANCH  20  22
ENDBRANCH  15  16
ENDBRANCH   1  15
TORSDOF 5
ENDMDL
MODEL 8
REMARK VINA RESULT:    -7.032      3.696      7.328
REMARK INTER + INTRA:          -9.997
REMARK INTER:                  -8.933
REMARK INTRA:                  -1.065
REMARK UNBOUND:                -0.910
REMARK  Name = 
REMARK  5 active torsions:
REMARK  status: ('A' for Active; 'I' for Inactive)
REMARK    1  A    between atoms: C_2  and  C_4
REMARK    2  A    between atoms: N_8  and  C_9
REMARK    3  A    between atoms: C_9  and  C_10
REMARK    4  A    between atoms: C_10  and  C_11
REMARK    5  A    between atoms: C_15  and  C_16
REMARK                            x       y       z     vdW  Elec       q    Type
REMARK                         _______ _______ _______ _____ _____    ______ ____
ROOT
ATOM      1  C   UNL     1      46.791   4.440  14.039  0.00  0.00    +0.000 C 
ENDROOT
BRANCH   1   6
ATOM      2  C   UNL     1      48.694   8.801  12.190  0.00  0.00    +0.000 A 
ATOM      3  C   UNL     1      48.184   7.675  11.560  0.00  0.00    +0.000 A 
ATOM      4  C   UNL     1      47.755   6.601  12.337  0.00  0.00    +0.000 A 
ATOM      5  C   UNL     1      47.853   6.656  13.727  0.00  0.00    +0.000 A 
ATOM      6  N   UNL     1      47.413   5.643  14.544  0.00  0.00    +0.000 N 
ATOM      7  N   UNL     1      48.381   7.732  14.345  0.00  0.00    +0.000 NA
ATOM      8  C   UNL     1      48.793   8.774  13.573  0.00  0.00    +0.000 A 
ATOM      9  H   UNL     1      47.602   5.784  15.529  0.00  0.00    +0.000 HD
BRANCH   2  11
ATOM     10  N   UNL     1      50.475  10.149  11.245  0.00  0.00    +0.000 N 
ATOM     11  C   UNL     1      49.128   9.999  11.444  0.00  0.00    +0.000 C 
ATOM     12  O   UNL     1      48.323  10.801  10.992  0.00  0.00    +0.000 OA
ATOM     13  H   UNL     1      50.759  10.912  10.643  0.00  0.00    +0.000 HD
ATOM     14  H   UNL     1      51.131   9.394  11.382  0.00  0.00    +0.000 HD
ENDBRANCH   2  11
ENDBRANCH   1   6
BRANCH   1  15
ATOM     15  C   UNL     1      45.274   4.421  14.242  0.00  0.00    +0.000 C 
BRANCH  15  16
ATOM     16  C   UNL     1      44.583   4.527  12.899  0.00  0.00    +0.000 A 
ATOM     17  C   UNL     1      43.449   5.329  12.744  0.00  0.00    +0.000 A 
ATOM     18  C   UNL     1      42.881   5.503  11.484  0.00  0.00    +0.000 A 
ATOM     19  C   UNL     1      43.455   4.894  10.364  0.00  0.00    +0.000 A 
ATOM     20  C   UNL     1      44.607   4.097  10.475  0.00  0.00    +0.000 A 
ATOM     21  C   UNL     1      45.142   3.910  11.766  0.00  0.00    +0.000 A 
BRANCH  20  22
ATOM     22  C   UNL     1      45.264   3.521   9.283  0.00  0.00    +0.000 A 
ATOM     23  C   UNL     1      45.723   4.321   8.227  0.00  0.00    +0.000 A 
ATOM     24  N   UNL     1      46.361   3.871   7.116  0.00  0.00    +0.000 NA
ATOM     25  C   UNL     1      46.570   2.536   7.047  0.00  0.00    +0.000 A 
ATOM     26  C   UNL     1      46.163   1.655   8.030  0.00  0.00    +0.000 A 
ATOM     27  F   UNL     1      46.406   0.344   7.912  0.00  0.00    +0.000 F 
ATOM     28  C   UNL     1      45.503   2.144   9.151  0.00  0.00    +0.000 A 
ENDBRANCH  20  22
ENDBRANCH  15  16
ENDBRANCH   1  15
TORSDOF 5
ENDMDL
MODEL 9
REMARK VINA RESULT:    -6.901      2.544      3.118
REMARK INTER + INTRA:          -9.828
REMARK INTER:                  -9.549
REMARK INTRA:                  -0.279
REMARK UNBOUND:                -0.910
REMARK  Name = 
REMARK  5 active torsions:
REMARK  status: ('A' for Active; 'I' for Inactive)
REMARK    1  A    between atoms: C_2  and  C_4
REMARK    2  A    between atoms: N_8  and  C_9
REMARK    3  A    between atoms: C_9  and  C_10
REMARK    4  A    between atoms: C_10  and  C_11
REMARK    5  A    between atoms: C_15  and  C_16
REMARK                            x       y       z     vdW  Elec       q    Type
REMARK                         _______ _______ _______ _____ _____    ______ ____
ROOT
ATOM      1  C   UNL     1      43.047   4.640  11.006  0.00  0.00    +0.000 C 
ENDROOT
BRANCH   1   6
ATOM      2  C   UNL     1      46.477   2.482   7.900  0.00  0.00    +0.000 A 
ATOM      3  C   UNL     1      45.661   1.949   8.889  0.00  0.00    +0.000 A 
ATOM      4  C   UNL     1      44.829   2.802   9.611  0.00  0.00    +0.000 A 
ATOM      5  C   UNL     1      44.830   4.172   9.350  0.00  0.00    +0.000 A 
ATOM      6  N   UNL     1      44.004   5.054  10.004  0.00  0.00    +0.000 N 
ATOM      7  N   UNL     1      45.645   4.701   8.416  0.00  0.00    +0.000 NA
ATOM      8  C   UNL     1      46.451   3.856   7.717  0.00  0.00    +0.000 A 
ATOM      9  H   UNL     1      44.152   6.026   9.764  0.00  0.00    +0.000 HD
BRANCH   2  11
ATOM     10  N   UNL     1      46.956   0.350   6.848  0.00  0.00    +0.000 N 
ATOM     11  C   UNL     1      47.354   1.643   7.060  0.00  0.00    +0.000 C 
ATOM     12  O   UNL     1      48.370   2.090   6.546  0.00  0.00    +0.000 OA
ATOM     13  H   UNL     1      47.502  -0.187   6.186  0.00  0.00    +0.000 HD
ATOM     14  H   UNL     1      46.018   0.031   7.045  0.00  0.00    +0.000 HD
ENDBRANCH   2  11
ENDBRANCH   1   6
BRANCH   1  15
ATOM     15  C   UNL     1      43.250   5.340  12.352  0.00  0.00    +0.000 C 
BRANCH  15  16
ATOM     16  C   UNL     1      44.211   6.498  12.180  0.00  0.00    +0.000 A 
ATOM     17  C   UNL     1      43.841   7.624  11.439  0.00  0.00    +0.000 A 
ATOM     18  C   UNL     1      44.688   8.727  11.373  0.00  0.00    +0.000 A 
ATOM     19  C   UNL     1      45.903   8.724  12.065  0.00  0.00    +0.000 A 
ATOM     20  C   UNL     1      46.302   7.619  12.837  0.00  0.00    +0.000 A 
ATOM     21  C   UNL     1      45.441   6.502  12.860  0.00  0.00    +0.000 A 
BRANCH  20  22
ATOM     22  C   UNL     1      47.545   7.645  13.636  0.00  0.00    +0.000 A 
ATOM     23  C   UNL     1      48.102   6.479  14.182  0.00  0.00    +0.000 A 
ATOM     24  N   UNL     1      49.254   6.417  14.898  0.00  0.00    +0.000 NA
ATOM     25  C   UNL     1      49.908   7.587  15.080  0.00  0.00    +0.000 A 
ATOM     26  C   UNL     1      49.452   8.793  14.585  0.00  0.00    +0.000 A 
ATOM     27  F   UNL     1      50.147   9.919  14.789  0.00  0.00    +0.000 F 
ATOM     28  C   UNL     1      48.264   8.827  13.864  0.00  0.00    +0.000 A 
ENDBRANCH  20  22
ENDBRANCH  15  16
ENDBRANCH   1  15
TORSDOF 5
ENDMDL
