MODEL 1
REMARK VINA RESULT:    -7.934      0.000      0.000
REMARK INTER + INTRA:         -10.868
REMARK INTER:                 -10.253
REMARK INTRA:                  -0.615
REMARK UNBOUND:                -0.615
REMARK  Name = 
REMARK  5 active torsions:
REMARK  status: ('A' for Active; 'I' for Inactive)
REMARK    1  A    between atoms: C_2  and  C_3
REMARK    2  A    between atoms: C_6  and  C_7
REMARK    3  A    between atoms: C_11  and  N_12
REMARK    4  A    between atoms: N_12  and  C_13
REMARK    5  A    between atoms: C_13  and  C_14
REMARK                            x       y       z     vdW  Elec       q    Type
REMARK                         _______ _______ _______ _____ _____    ______ ____
ROOT
ATOM      1  C   UNL     1      46.096   4.801  13.016  0.00  0.00    +0.000 A 
ATOM      2  N   UNL     1      46.296   6.076  13.464  0.00  0.00    +0.000 NA
ATOM      3  C   UNL     1      45.623   7.071  12.846  0.00  0.00    +0.000 A 
ATOM      4  C   UNL     1      44.741   6.855  11.804  0.00  0.00    +0.000 A 
ATOM      5  C   UNL     1      44.570   5.545  11.344  0.00  0.00    +0.000 A 
ATOM      6  C   UNL     1      45.263   4.463  11.927  0.00  0.00    +0.000 A 
ENDROOT
BRANCH   4   7
ATOM      7  C   UNL     1      44.038   8.020  11.227  0.00  0.00    +0.000 C 
ATOM      8  N   UNL     1      42.704   7.888  10.965  0.00  0.00    +0.000 N 
ATOM      9  O   UNL     1      44.620   9.077  11.023  0.00  0.00    +0.000 OA
ATOM     10  H   UNL     1      42.138   7.137  11.334  0.00  0.00    +0.000 HD
ATOM     11  H   UNL     1      42.221   8.729  10.671  0.00  0.00    +0.000 HD
ENDBRANCH   4   7
BRANCH   1  13
ATOM     12  N   UNL     1      47.492   3.086  14.386  0.00  0.00    +0.000 NA
ATOM     13  C   UNL     1      46.881   3.851  13.757  0.00  0.00    +0.000 C 
ENDBRANCH   1  13
BRANCH   6  14
ATOM     14  N   UNL     1      44.936   3.189  11.426  0.00  0.00    +0.000 N 
ATOM     15  H   UNL     1      44.603   2.561  12.156  0.00  0.00    +0.000 HD
BRANCH  14  16
ATOM     16  C   UNL     1      44.210   3.009  10.174  0.00  0.00    +0.000 C 
BRANCH  16  17
ATOM     17  C   UNL     1      45.119   2.766   8.987  0.00  0.00    +0.000 A 
ATOM     18  C   UNL     1      45.491   3.872   8.201  0.00  0.00    +0.000 A 
ATOM     19  C   UNL     1      46.391   3.733   7.142  0.00  0.00    +0.000 A 
ATOM     20  C   UNL     1      46.934   2.483   6.861  0.00  0.00    +0.000 A 
ATOM     21 CL   UNL     1      48.047   2.311   5.561  0.00  0.00    +0.000 Cl
ATOM     22  C   UNL     1      46.591   1.377   7.637  0.00  0.00    +0.000 A 
ATOM     23  C   UNL     1      45.694   1.518   8.703  0.00  0.00    +0.000 A 
ENDBRANCH  16  17
ENDBRANCH  14  16
ENDBRANCH   6  14
TORSDOF 5
ENDMDL
MODEL 2
REMARK VINA RESULT:    -7.341      1.938      3.654
REMARK INTER + INTRA:         -10.101
REMARK INTER:                  -9.545
REMARK INTRA:                  -0.556
REMARK UNBOUND:                -0.615
REMARK  Name = 
REMARK  5 active torsions:
REMARK  status: ('A' for Active; 'I' for Inactive)
REMARK    1  A    between atoms: C_2  and  C_3
REMARK    2  A    between atoms: C_6  and  C_7
REMARK    3  A    between atoms: C_11  and  N_12
REMARK    4  A    between atoms: N_12  and  C_13
REMARK    5  A    between atoms: C_13  and  C_14
REMARK                            x       y       z     vdW  Elec       q    Type
REMARK                         _______ _______ _______ _____ _____    ______ ____
ROOT
ATOM      1  C   UNL     1      45.053   7.324  11.873  0.00  0.00    +0.000 A 
ATOM      2  N   UNL     1      45.873   7.689  12.903  0.00  0.00    +0.000 NA
ATOM      3  C   UNL     1      46.446   6.704  13.629  0.00  0.00    +0.000 A 
ATOM      4  C   UNL     1      46.251   5.361  13.369  0.00  0.00    +0.000 A 
ATOM      5  C   UNL     1      45.388   5.008  12.325  0.00  0.00    +0.000 A 
ATOM      6  C   UNL     1      44.737   5.986  11.545  0.00  0.00    +0.000 A 
ENDROOT
BRANCH   4   7
ATOM      7  C   UNL     1      46.957   4.373  14.212  0.00  0.00    +0.000 C 
ATOM      8  N   UNL     1      47.249   4.732  15.497  0.00  0.00    +0.000 N 
ATOM      9  O   UNL     1      47.238   3.261  13.787  0.00  0.00    +0.000 OA
ATOM     10  H   UNL     1      46.831   5.527  15.959  0.00  0.00    +0.000 HD
ATOM     11  H   UNL     1      47.636   4.004  16.087  0.00  0.00    +0.000 HD
ENDBRANCH   4   7
BRANCH   1  13
ATOM     12  N   UNL     1      44.035   9.393  10.671  0.00  0.00    +0.000 NA
ATOM     13  C   UNL     1      44.509   8.470  11.198  0.00  0.00    +0.000 C 
ENDBRANCH   1  13
BRANCH   6  14
ATOM     14  N   UNL     1      43.963   5.498  10.476  0.00  0.00    +0.000 N 
ATOM     15  H   UNL     1      44.147   5.997   9.607  0.00  0.00    +0.000 HD
BRANCH  14  16
ATOM     16  C   UNL     1      43.756   4.071  10.255  0.00  0.00    +0.000 C 
BRANCH  16  17
ATOM     17  C   UNL     1      44.721   3.477   9.249  0.00  0.00    +0.000 A 
ATOM     18  C   UNL     1      45.421   4.358   8.404  0.00  0.00    +0.000 A 
ATOM     19  C   UNL     1      46.384   3.884   7.512  0.00  0.00    +0.000 A 
ATOM     20  C   UNL     1      46.662   2.522   7.458  0.00  0.00    +0.000 A 
ATOM     21 CL   UNL     1      47.853   1.938   6.363  0.00  0.00    +0.000 Cl
ATOM     22  C   UNL     1      45.991   1.634   8.297  0.00  0.00    +0.000 A 
ATOM     23  C   UNL     1      45.030   2.110   9.198  0.00  0.00    +0.000 A 
ENDBRANCH  16  17
ENDBRANCH  14  16
ENDBRANCH   6  14
TORSDOF 5
ENDMDL
MODEL 3
REMARK VINA RESULT:    -7.288      3.708      6.277
REMARK INTER + INTRA:         -10.033
REMARK INTER:                  -9.849
REMARK INTRA:                  -0.184
REMARK UNBOUND:                -0.615
REMARK  Name = 
REMARK  5 active torsions:
REMARK  status: ('A' for Active; 'I' for Inactive)
REMARK    1  A    between atoms: C_2  and  C_3
REMARK    2  A    between atoms: C_6  and  C_7
REMARK    3  A    between atoms: C_11  and  N_12
REMARK    4  A    between atoms: N_12  and  C_13
REMARK    5  A    between atoms: C_13  and  C_14
REMARK                            x       y       z     vdW  Elec       q    Type
REMARK                         _______ _______ _______ _____ _____    ______ ____
ROOT
ATOM      1  C   UNL     1      44.761   2.681   9.631  0.00  0.00    +0.000 A 
ATOM      2  N   UNL     1      45.170   1.461   9.173  0.00  0.00    +0.000 NA
ATOM      3  C   UNL     1      46.028   1.436   8.131  0.00  0.00    +0.000 A 
ATOM      4  C   UNL     1      46.517   2.578   7.526  0.00  0.00    +0.000 A 
ATOM      5  C   UNL     1      46.067   3.818   7.993  0.00  0.00    +0.000 A 
ATOM      6  C   UNL     1      45.149   3.914   9.060  0.00  0.00    +0.000 A 
ENDROOT
BRANCH   4   7
ATOM      7  C   UNL     1      47.478   2.426   6.413  0.00  0.00    +0.000 C 
ATOM      8  N   UNL     1      47.363   3.283   5.355  0.00  0.00    +0.000 N 
ATOM      9  O   UNL     1      48.368   1.587   6.452  0.00  0.00    +0.000 OA
ATOM     10  H   UNL     1      46.813   4.130   5.386  0.00  0.00    +0.000 HD
ATOM     11  H   UNL     1      48.094   3.231   4.656  0.00  0.00    +0.000 HD
ENDBRANCH   4   7
BRANCH   1  13
ATOM     12  N   UNL     1      43.086   2.421  11.604  0.00  0.00    +0.000 NA
ATOM     13  C   UNL     1      43.844   2.555  10.731  0.00  0.00    +0.000 C 
ENDBRANCH   1  13
BRANCH   6  14
ATOM     14  N   UNL     1      44.843   5.220   9.486  0.00  0.00    +0.000 N 
ATOM     15  H   UNL     1      44.219   5.701   8.840  0.00  0.00    +0.000 HD
BRANCH  14  16
ATOM     16  C   UNL     1      44.538   5.532  10.878  0.00  0.00    +0.000 C 
BRANCH  16  17
ATOM     17  C   UNL     1      45.774   5.797  11.714  0.00  0.00    +0.000 A 
ATOM     18  C   UNL     1      46.663   6.798  11.281  0.00  0.00    +0.000 A 
ATOM     19  C   UNL     1      47.777   7.150  12.045  0.00  0.00    +0.000 A 
ATOM     20  C   UNL     1      48.012   6.507  13.256  0.00  0.00    +0.000 A 
ATOM     21 CL   UNL     1      49.381   6.944  14.201  0.00  0.00    +0.000 Cl
ATOM     22  C   UNL     1      47.136   5.524  13.711  0.00  0.00    +0.000 A 
ATOM     23  C   UNL     1      46.014   5.176  12.948  0.00  0.00    +0.000 A 
ENDBRANCH  16  17
ENDBRANCH  14  16
ENDBRANCH   6  14
TORSDOF 5
ENDMDL
MODEL 4
REMARK VINA RESULT:    -7.230      1.920      2.757
REMARK INTER + INTRA:          -9.959
REMARK INTER:                  -9.526
REMARK INTRA:                  -0.433
REMARK UNBOUND:                -0.615
REMARK  Name = 
REMARK  5 active torsions:
REMARK  status: ('A' for Active; 'I' for Inactive)
REMARK    1  A    between atoms: C_2  and  C_3
REMARK    2  A    between atoms: C_6  and  C_7
REMARK    3  A    between atoms: C_11  and  N_12
REMARK    4  A    between atoms: N_12  and  C_13
REMARK    5  A    between atoms: C_13  and  C_14
REMARK                            x       y       z     vdW  Elec       q    Type
REMARK                         _______ _______ _______ _____ _____    ______ ____
ROOT
ATOM      1  C   UNL     1      45.319   4.948  12.685  0.00  0.00    +0.000 A 
ATOM      2  N   UNL     1      46.267   5.044  13.663  0.00  0.00    +0.000 NA
ATOM      3  C   UNL     1      47.308   5.878  13.450  0.00  0.00    +0.000 A 
ATOM      4  C   UNL     1      47.443   6.642  12.306  0.00  0.00    +0.000 A 
ATOM      5  C   UNL     1      46.474   6.511  11.305  0.00  0.00    +0.000 A 
ATOM      6  C   UNL     1      45.377   5.637  11.452  0.00  0.00    +0.000 A 
ENDROOT
BRANCH   4   7
ATOM      7  C   UNL     1      48.609   7.545  12.199  0.00  0.00    +0.000 C 
ATOM      8  N   UNL     1      49.819   7.069  12.616  0.00  0.00    +0.000 N 
ATOM      9  O   UNL     1      48.501   8.666  11.721  0.00  0.00    +0.000 OA
ATOM     10  H   UNL     1      50.001   6.090  12.785  0.00  0.00    +0.000 HD
ATOM     11  H   UNL     1      50.619   7.663  12.435  0.00  0.00    +0.000 HD
ENDBRANCH   4   7
BRANCH   1  13
ATOM     12  N   UNL     1      43.462   3.258  13.363  0.00  0.00    +0.000 NA
ATOM     13  C   UNL     1      44.281   4.019  13.042  0.00  0.00    +0.000 C 
ENDBRANCH   1  13
BRANCH   6  14
ATOM     14  N   UNL     1      44.432   5.663  10.409  0.00  0.00    +0.000 N 
ATOM     15  H   UNL     1      44.687   6.321   9.674  0.00  0.00    +0.000 HD
BRANCH  14  16
ATOM     16  C   UNL     1      43.834   4.445   9.873  0.00  0.00    +0.000 C 
BRANCH  16  17
ATOM     17  C   UNL     1      44.788   3.641   9.013  0.00  0.00    +0.000 A 
ATOM     18  C   UNL     1      45.596   4.335   8.094  0.00  0.00    +0.000 A 
ATOM     19  C   UNL     1      46.554   3.665   7.330  0.00  0.00    +0.000 A 
ATOM     20  C   UNL     1      46.718   2.292   7.481  0.00  0.00    +0.000 A 
ATOM     21 CL   UNL     1      47.901   1.467   6.545  0.00  0.00    +0.000 Cl
ATOM     22  C   UNL     1      45.939   1.588   8.397  0.00  0.00    +0.000 A 
ATOM     23  C   UNL     1      44.983   2.260   9.170  0.00  0.00    +0.000 A 
ENDBRANCH  16  17
ENDBRANCH  14  16
ENDBRANCH   6  14
TORSDOF 5
ENDMDL
MODEL 5
REMARK VINA RESULT:    -6.172      3.710      6.324
REMARK INTER + INTRA:          -8.591
REMARK INTER:                  -8.112
REMARK INTRA:                  -0.479
REMARK UNBOUND:                -0.615
REMARK  Name = 
REMARK  5 active torsions:
REMARK  status: ('A' for Active; 'I' for Inactive)
REMARK    1  A    between atoms: C_2  and  C_3
REMARK    2  A    between atoms: C_6  and  C_7
REMARK    3  A    between atoms: C_11  and  N_12
REMARK    4  A    between atoms: N_12  and  C_13
REMARK    5  A    between atoms: C_13  and  C_14
REMARK                            x       y       z     vdW  Elec       q    Type
REMARK                         _______ _______ _______ _____ _____    ______ ____
ROOT
ATOM      1  C   UNL     1      44.090   4.526  11.167  0.00  0.00    +0.000 A 
ATOM      2  N   UNL     1      43.734   3.387  10.504  0.00  0.00    +0.000 NA
ATOM      3  C   UNL     1      44.402   3.085   9.369  0.00  0.00    +0.000 A 
ATOM      4  C   UNL     1      45.427   3.863   8.866  0.00  0.00    +0.000 A 
ATOM      5  C   UNL     1      45.760   5.040   9.546  0.00  0.00    +0.000 A 
ATOM      6  C   UNL     1      45.084   5.427  10.722  0.00  0.00    +0.000 A 
ENDROOT
BRANCH   4   7
ATOM      7  C   UNL     1      46.107   3.415   7.632  0.00  0.00    +0.000 C 
ATOM      8  N   UNL     1      46.417   2.089   7.526  0.00  0.00    +0.000 N 
ATOM      9  O   UNL     1      46.353   4.196   6.723  0.00  0.00    +0.000 OA
ATOM     10  H   UNL     1      46.026   1.379   8.128  0.00  0.00    +0.000 HD
ATOM     11  H   UNL     1      46.785   1.787   6.632  0.00  0.00    +0.000 HD
ENDBRANCH   4   7
BRANCH   1  13
ATOM     12  N   UNL     1      42.676   4.903  13.317  0.00  0.00    +0.000 NA
ATOM     13  C   UNL     1      43.291   4.725  12.346  0.00  0.00    +0.000 C 
ENDBRANCH   1  13
BRANCH   6  14
ATOM     14  N   UNL     1      45.572   6.586  11.353  0.00  0.00    +0.000 N 
ATOM     15  H   UNL     1      44.974   6.890  12.120  0.00  0.00    +0.000 HD
BRANCH  14  16
ATOM     16  C   UNL     1      46.988   6.768  11.656  0.00  0.00    +0.000 C 
BRANCH  16  17
ATOM     17  C   UNL     1      47.375   6.246  13.025  0.00  0.00    +0.000 A 
ATOM     18  C   UNL     1      48.264   7.015  13.799  0.00  0.00    +0.000 A 
ATOM     19  C   UNL     1      48.599   6.635  15.100  0.00  0.00    +0.000 A 
ATOM     20  C   UNL     1      48.044   5.481  15.643  0.00  0.00    +0.000 A 
ATOM     21 CL   UNL     1      48.451   5.014  17.248  0.00  0.00    +0.000 Cl
ATOM     22  C   UNL     1      47.150   4.713  14.900  0.00  0.00    +0.000 A 
ATOM     23  C   UNL     1      46.807   5.099  13.598  0.00  0.00    +0.000 A 
ENDBRANCH  16  17
ENDBRANCH  14  16
ENDBRANCH   6  14
TORSDOF 5
ENDMDL
MODEL 6
REMARK VINA RESULT:    -6.147      3.673      6.188
REMARK INTER + INTRA:          -8.558
REMARK INTER:                  -8.067
REMARK INTRA:                  -0.491
REMARK UNBOUND:                -0.615
REMARK  Name = 
REMARK  5 active torsions:
REMARK  status: ('A' for Active; 'I' for Inactive)
REMARK    1  A    between atoms: C_2  and  C_3
REMARK    2  A    between atoms: C_6  and  C_7
REMARK    3  A    between atoms: C_11  and  N_12
REMARK    4  A    between atoms: N_12  and  C_13
REMARK    5  A    between atoms: C_13  and  C_14
REMARK                            x       y       z     vdW  Elec       q    Type
REMARK                         _______ _______ _______ _____ _____    ______ ____
ROOT
ATOM      1  C   UNL     1      44.060   4.478  11.183  0.00  0.00    +0.000 A 
ATOM      2  N   UNL     1      43.900   3.225  10.665  0.00  0.00    +0.000 NA
ATOM      3  C   UNL     1      44.575   2.920   9.536  0.00  0.00    +0.000 A 
ATOM      4  C   UNL     1      45.422   3.807   8.898  0.00  0.00    +0.000 A 
ATOM      5  C   UNL     1      45.553   5.095   9.431  0.00  0.00    +0.000 A 
ATOM      6  C   UNL     1      44.855   5.487  10.592  0.00  0.00    +0.000 A 
ENDROOT
BRANCH   4   7
ATOM      7  C   UNL     1      46.132   3.351   7.685  0.00  0.00    +0.000 C 
ATOM      8  N   UNL     1      46.501   2.037   7.624  0.00  0.00    +0.000 N 
ATOM      9  O   UNL     1      46.352   4.113   6.753  0.00  0.00    +0.000 OA
ATOM     10  H   UNL     1      46.136   1.330   8.246  0.00  0.00    +0.000 HD
ATOM     11  H   UNL     1      46.890   1.723   6.743  0.00  0.00    +0.000 HD
ENDBRANCH   4   7
BRANCH   1  13
ATOM     12  N   UNL     1      42.676   4.828  13.357  0.00  0.00    +0.000 NA
ATOM     13  C   UNL     1      43.277   4.663  12.375  0.00  0.00    +0.000 C 
ENDBRANCH   1  13
BRANCH   6  14
ATOM     14  N   UNL     1      45.140   6.779  11.069  0.00  0.00    +0.000 N 
ATOM     15  H   UNL     1      44.347   7.411  10.971  0.00  0.00    +0.000 HD
BRANCH  14  16
ATOM     16  C   UNL     1      45.872   7.006  12.310  0.00  0.00    +0.000 C 
BRANCH  16  17
ATOM     17  C   UNL     1      47.139   7.813  12.116  0.00  0.00    +0.000 A 
ATOM     18  C   UNL     1      48.328   7.119  11.826  0.00  0.00    +0.000 A 
ATOM     19  C   UNL     1      49.514   7.805  11.555  0.00  0.00    +0.000 A 
ATOM     20  C   UNL     1      49.522   9.196  11.567  0.00  0.00    +0.000 A 
ATOM     21 CL   UNL     1      50.980  10.043  11.228  0.00  0.00    +0.000 Cl
ATOM     22  C   UNL     1      48.352   9.904  11.837  0.00  0.00    +0.000 A 
ATOM     23  C   UNL     1      47.161   9.216  12.101  0.00  0.00    +0.000 A 
ENDBRANCH  16  17
ENDBRANCH  14  16
ENDBRANCH   6  14
TORSDOF 5
ENDMDL
MODEL 7
REMARK VINA RESULT:    -5.966      4.580      7.302
REMARK INTER + INTRA:          -8.325
REMARK INTER:                  -7.841
REMARK INTRA:                  -0.484
REMARK UNBOUND:                -0.615
REMARK  Name = 
REMARK  5 active torsions:
REMARK  status: ('A' for Active; 'I' for Inactive)
REMARK    1  A    between atoms: C_2  and  C_3
REMARK    2  A    between atoms: C_6  and  C_7
REMARK    3  A    between atoms: C_11  and  N_12
REMARK    4  A    between atoms: N_12  and  C_13
REMARK    5  A    between atoms: C_13  and  C_14
REMARK                            x       y       z     vdW  Elec       q    Type
REMARK                         _______ _______ _______ _____ _____    ______ ____
ROOT
ATOM      1  C   UNL     1      46.547   6.241  12.672  0.00  0.00    +0.000 A 
ATOM      2  N   UNL     1      46.356   6.637  11.379  0.00  0.00    +0.000 NA
ATOM      3  C   UNL     1      45.618   5.837  10.580  0.00  0.00    +0.000 A 
ATOM      4  C   UNL     1      45.043   4.657  11.013  0.00  0.00    +0.000 A 
ATOM      5  C   UNL     1      45.271   4.257  12.334  0.00  0.00    +0.000 A 
ATOM      6  C   UNL     1      46.055   5.032  13.214  0.00  0.00    +0.000 A 
ENDROOT
BRANCH   4   7
ATOM      7  C   UNL     1      44.229   3.880  10.055  0.00  0.00    +0.000 C 
ATOM      8  N   UNL     1      44.099   4.373   8.788  0.00  0.00    +0.000 N 
ATOM      9  O   UNL     1      43.717   2.815  10.373  0.00  0.00    +0.000 OA
ATOM     10  H   UNL     1      44.689   5.104   8.415  0.00  0.00    +0.000 HD
ATOM     11  H   UNL     1      43.628   3.774   8.121  0.00  0.00    +0.000 HD
ENDBRANCH   4   7
BRANCH   1  13
ATOM     12  N   UNL     1      48.044   7.919  13.980  0.00  0.00    +0.000 NA
ATOM     13  C   UNL     1      47.357   7.180  13.400  0.00  0.00    +0.000 C 
ENDBRANCH   1  13
BRANCH   6  14
ATOM     14  N   UNL     1      46.136   4.559  14.537  0.00  0.00    +0.000 N 
ATOM     15  H   UNL     1      45.229   4.271  14.900  0.00  0.00    +0.000 HD
BRANCH  14  16
ATOM     16  C   UNL     1      47.210   3.677  14.982  0.00  0.00    +0.000 C 
BRANCH  16  17
ATOM     17  C   UNL     1      47.737   4.029  16.358  0.00  0.00    +0.000 A 
ATOM     18  C   UNL     1      47.784   3.011  17.329  0.00  0.00    +0.000 A 
ATOM     19  C   UNL     1      48.333   3.246  18.591  0.00  0.00    +0.000 A 
ATOM     20  C   UNL     1      48.848   4.502  18.895  0.00  0.00    +0.000 A 
ATOM     21 CL   UNL     1      49.531   4.790  20.447  0.00  0.00    +0.000 Cl
ATOM     22  C   UNL     1      48.826   5.519  17.943  0.00  0.00    +0.000 A 
ATOM     23  C   UNL     1      48.282   5.282  16.674  0.00  0.00    +0.000 A 
ENDBRANCH  16  17
ENDBRANCH  14  16
ENDBRANCH   6  14
TORSDOF 5
ENDMDL
MODEL 8
REMARK VINA RESULT:    -5.951      3.755      5.799
REMARK INTER + INTRA:          -8.305
REMARK INTER:                  -7.795
REMARK INTRA:                  -0.511
REMARK UNBOUND:                -0.615
REMARK  Name = 
REMARK  5 active torsions:
REMARK  status: ('A' for Active; 'I' for Inactive)
REMARK    1  A    between atoms: C_2  and  C_3
REMARK    2  A    between atoms: C_6  and  C_7
REMARK    3  A    between atoms: C_11  and  N_12
REMARK    4  A    between atoms: N_12  and  C_13
REMARK    5  A    between atoms: C_13  and  C_14
REMARK                            x       y       z     vdW  Elec       q    Type
REMARK                         _______ _______ _______ _____ _____    ______ ____
ROOT
ATOM      1  C   UNL     1      46.621   4.722  13.891  0.00  0.00    +0.000 A 
ATOM      2  N   UNL     1      46.325   3.428  13.567  0.00  0.00    +0.000 NA
ATOM      3  C   UNL     1      45.504   3.216  12.515  0.00  0.00    +0.000 A 
ATOM      4  C   UNL     1      44.971   4.239  11.753  0.00  0.00    +0.000 A 
ATOM      5  C   UNL     1      45.267   5.557  12.117  0.00  0.00    +0.000 A 
ATOM      6  C   UNL     1      46.095   5.850  13.221  0.00  0.00    +0.000 A 
ENDROOT
BRANCH   4   7
ATOM      7  C   UNL     1      44.111   3.883  10.605  0.00  0.00    +0.000 C 
ATOM      8  N   UNL     1      44.148   4.697   9.509  0.00  0.00    +0.000 N 
ATOM      9  O   UNL     1      43.416   2.876  10.621  0.00  0.00    +0.000 OA
ATOM     10  H   UNL     1      44.871   5.386   9.356  0.00  0.00    +0.000 HD
ATOM     11  H   UNL     1      43.634   4.377   8.697  0.00  0.00    +0.000 HD
ENDBRANCH   4   7
BRANCH   1  13
ATOM     12  N   UNL     1      48.180   4.824  15.970  0.00  0.00    +0.000 NA
ATOM     13  C   UNL     1      47.493   4.796  15.032  0.00  0.00    +0.000 C 
ENDBRANCH   1  13
BRANCH   6  14
ATOM     14  N   UNL     1      46.379   7.212  13.426  0.00  0.00    +0.000 N 
ATOM     15  H   UNL     1      47.097   7.354  14.135  0.00  0.00    +0.000 HD
BRANCH  14  16
ATOM     16  C   UNL     1      46.507   8.154  12.320  0.00  0.00    +0.000 C 
BRANCH  16  17
ATOM     17  C   UNL     1      47.944   8.532  12.022  0.00  0.00    +0.000 A 
ATOM     18  C   UNL     1      48.888   7.496  11.894  0.00  0.00    +0.000 A 
ATOM     19  C   UNL     1      50.210   7.767  11.540  0.00  0.00    +0.000 A 
ATOM     20  C   UNL     1      50.604   9.081  11.304  0.00  0.00    +0.000 A 
ATOM     21 CL   UNL     1      52.231   9.416  10.861  0.00  0.00    +0.000 Cl
ATOM     22  C   UNL     1      49.681  10.120  11.409  0.00  0.00    +0.000 A 
ATOM     23  C   UNL     1      48.353   9.847  11.757  0.00  0.00    +0.000 A 
ENDBRANCH  16  17
ENDBRANCH  14  16
ENDBRANCH   6  14
TORSDOF 5
ENDMDL
MODEL 9
REMARK VINA RESULT:    -5.918      4.481      7.132
REMARK INTER + INTRA:          -8.262
REMARK INTER:                  -7.676
REMARK INTRA:                  -0.586
REMARK UNBOUND:                -0.615
REMARK  Name = 
REMARK  5 active torsions:
REMARK  status: ('A' for Active; 'I' for Inactive)
REMARK    1  A    between atoms: C_2  and  C_3
REMARK    2  A    between atoms: C_6  and  C_7
REMARK    3  A    between atoms: C_11  and  N_12
REMARK    4  A    between atoms: N_12  and  C_13
REMARK    5  A    between atoms: C_13  and  C_14
REMARK                            x       y       z     vdW  Elec       q    Type
REMARK                         _______ _______ _______ _____ _____    ______ ____
ROOT
ATOM      1  C   UNL     1      45.702   4.624  12.788  0.00  0.00    +0.000 A 
ATOM      2  N   UNL     1      45.665   5.486  11.729  0.00  0.00    +0.000 NA
ATOM      3  C   UNL     1      46.627   6.431  11.655  0.00  0.00    +0.000 A 
ATOM      4  C   UNL     1      47.643   6.552  12.584  0.00  0.00    +0.000 A 
ATOM      5  C   UNL     1      47.648   5.675  13.675  0.00  0.00    +0.000 A 
ATOM      6  C   UNL     1      46.658   4.682  13.828  0.00  0.00    +0.000 A 
ENDROOT
BRANCH   4   7
ATOM      7  C   UNL     1      48.659   7.606  12.380  0.00  0.00    +0.000 C 
ATOM      8  N   UNL     1      49.966   7.275  12.594  0.00  0.00    +0.000 N 
ATOM      9  O   UNL     1      48.344   8.726  12.000  0.00  0.00    +0.000 OA
ATOM     10  H   UNL     1      50.291   6.321  12.669  0.00  0.00    +0.000 HD
ATOM     11  H   UNL     1      50.652   7.979  12.346  0.00  0.00    +0.000 HD
ENDBRANCH   4   7
BRANCH   1  13
ATOM     12  N   UNL     1      43.715   2.947  12.726  0.00  0.00    +0.000 NA
ATOM     13  C   UNL     1      44.616   3.683  12.743  0.00  0.00    +0.000 C 
ENDBRANCH   1  13
BRANCH   6  14
ATOM     14  N   UNL     1      46.828   3.815  14.921  0.00  0.00    +0.000 N 
ATOM     15  H   UNL     1      47.379   2.992  14.680  0.00  0.00    +0.000 HD
BRANCH  14  16
ATOM     16  C   UNL     1      47.131   4.304  16.262  0.00  0.00    +0.000 C 
BRANCH  16  17
ATOM     17  C   UNL     1      48.473   3.828  16.781  0.00  0.00    +0.000 A 
ATOM     18  C   UNL     1      48.792   2.465  16.637  0.00  0.00    +0.000 A 
ATOM     19  C   UNL     1      50.042   1.975  17.018  0.00  0.00    +0.000 A 
ATOM     20  C   UNL     1      50.991   2.846  17.544  0.00  0.00    +0.000 A 
ATOM     21 CL   UNL     1      52.534   2.244  18.009  0.00  0.00    +0.000 Cl
ATOM     22  C   UNL     1      50.702   4.202  17.681  0.00  0.00    +0.000 A 
ATOM     23  C   UNL     1      49.450   4.695  17.291  0.00  0.00    +0.000 A 
ENDBRANCH  16  17
ENDBRANCH  14  16
ENDBRANCH   6  14
TORSDOF 5
ENDMDL
