MODEL 1
REMARK VINA RESULT:    -7.186      0.000      0.000
REMARK INTER + INTRA:          -9.717
REMARK INTER:                  -9.077
REMARK INTRA:                  -0.641
REMARK UNBOUND:                -0.641
REMARK  Name = 
REMARK  5 active torsions:
REMARK  status: ('A' for Active; 'I' for Inactive)
REMARK    1  A    between atoms: N_1  and  C_2
REMARK    2  A    between atoms: C_2  and  C_3
REMARK    3  A    between atoms: C_6  and  C_7
REMARK    4  A    between atoms: C_7  and  N_8
REMARK    5  A    between atoms: C_13  and  C_14
REMARK                            x       y       z     vdW  Elec       q    Type
REMARK                         _______ _______ _______ _____ _____    ______ ____
ROOT
ATOM      1  N   UNL     1      44.531   5.051  10.609  0.00  0.00    +0.000 N 
ATOM      2  C   UNL     1      43.797   4.076  11.247  0.00  0.00    +0.000 A 
ATOM      3  C   UNL     1      44.049   2.873  10.623  0.00  0.00    +0.000 A 
ATOM      4  C   UNL     1      44.922   3.130   9.535  0.00  0.00    +0.000 A 
ATOM      5  C   UNL     1      45.496   2.343   8.522  0.00  0.00    +0.000 A 
ATOM      6  C   UNL     1      46.285   2.992   7.567  0.00  0.00    +0.000 A 
ATOM      7  C   UNL     1      46.510   4.360   7.703  0.00  0.00    +0.000 A 
ATOM      8  N   UNL     1      46.003   5.155   8.679  0.00  0.00    +0.000 NA
ATOM      9  C   UNL     1      45.209   4.493   9.547  0.00  0.00    +0.000 A 
ENDROOT
BRANCH   6  10
ATOM     10  C   UNL     1      46.897   2.270   6.424  0.00  0.00    +0.000 C 
ATOM     11  N   UNL     1      47.199   3.011   5.314  0.00  0.00    +0.000 N 
ATOM     12  O   UNL     1      47.159   1.080   6.492  0.00  0.00    +0.000 OA
ATOM     13  H   UNL     1      47.207   4.018   5.306  0.00  0.00    +0.000 HD
ATOM     14  H   UNL     1      47.706   2.530   4.582  0.00  0.00    +0.000 HD
ENDBRANCH   6  10
BRANCH   1  15
ATOM     15  C   UNL     1      44.596   6.447  11.027  0.00  0.00    +0.000 C 
BRANCH  15  19
ATOM     16  C   UNL     1      47.723   8.503  12.267  0.00  0.00    +0.000 C 
ATOM     17  C   UNL     1      47.764   7.062  11.731  0.00  0.00    +0.000 C 
ATOM     18  C   UNL     1      46.743   6.140  12.397  0.00  0.00    +0.000 C 
ATOM     19  C   UNL     1      45.303   6.680  12.381  0.00  0.00    +0.000 C 
ATOM     20  C   UNL     1      45.245   8.158  12.809  0.00  0.00    +0.000 C 
ATOM     21  C   UNL     1      46.292   9.049  12.141  0.00  0.00    +0.000 C 
BRANCH  16  22
ATOM     22  C   UNL     1      48.256   8.637  13.711  0.00  0.00    +0.000 C 
BRANCH  22  23
ATOM     23  N   UNL     1      48.199  10.017  14.190  0.00  0.00    +0.000 NA
ATOM     24  H   UNL     1      47.226  10.285  14.335  0.00  0.00    +0.000 HD
ATOM     25  H   UNL     1      48.554  10.642  13.466  0.00  0.00    +0.000 HD
ENDBRANCH  22  23
ENDBRANCH  16  22
ENDBRANCH  15  19
ENDBRANCH   1  15
TORSDOF 5
ENDMDL
MODEL 2
REMARK VINA RESULT:    -5.899      4.955      8.404
REMARK INTER + INTRA:          -8.091
REMARK INTER:                  -7.594
REMARK INTRA:                  -0.497
REMARK UNBOUND:                -0.641
REMARK  Name = 
REMARK  5 active torsions:
REMARK  status: ('A' for Active; 'I' for Inactive)
REMARK    1  A    between atoms: N_1  and  C_2
REMARK    2  A    between atoms: C_2  and  C_3
REMARK    3  A    between atoms: C_6  and  C_7
REMARK    4  A    between atoms: C_7  and  N_8
REMARK    5  A    between atoms: C_13  and  C_14
REMARK                            x       y       z     vdW  Elec       q    Type
REMARK                         _______ _______ _______ _____ _____    ______ ____
ROOT
ATOM      1  N   UNL     1      48.170   6.591  14.379  0.00  0.00    +0.000 N 
ATOM      2  C   UNL     1      48.593   7.891  14.542  0.00  0.00    +0.000 A 
ATOM      3  C   UNL     1      49.104   8.019  15.816  0.00  0.00    +0.000 A 
ATOM      4  C   UNL     1      48.938   6.772  16.470  0.00  0.00    +0.000 A 
ATOM      5  C   UNL     1      49.213   6.289  17.761  0.00  0.00    +0.000 A 
ATOM      6  C   UNL     1      48.842   4.972  18.053  0.00  0.00    +0.000 A 
ATOM      7  C   UNL     1      48.282   4.196  17.040  0.00  0.00    +0.000 A 
ATOM      8  N   UNL     1      48.026   4.607  15.773  0.00  0.00    +0.000 NA
ATOM      9  C   UNL     1      48.355   5.898  15.555  0.00  0.00    +0.000 A 
ENDROOT
BRANCH   6  10
ATOM     10  C   UNL     1      49.036   4.376  19.397  0.00  0.00    +0.000 C 
ATOM     11  N   UNL     1      48.372   3.208  19.657  0.00  0.00    +0.000 N 
ATOM     12  O   UNL     1      49.788   4.882  20.214  0.00  0.00    +0.000 OA
ATOM     13  H   UNL     1      47.930   2.651  18.944  0.00  0.00    +0.000 HD
ATOM     14  H   UNL     1      48.590   2.758  20.538  0.00  0.00    +0.000 HD
ENDBRANCH   6  10
BRANCH   1  15
ATOM     15  C   UNL     1      47.642   6.041  13.135  0.00  0.00    +0.000 C 
BRANCH  15  19
ATOM     16  C   UNL     1      44.926   4.278  10.885  0.00  0.00    +0.000 C 
ATOM     17  C   UNL     1      45.666   5.579  10.529  0.00  0.00    +0.000 C 
ATOM     18  C   UNL     1      45.634   6.620  11.648  0.00  0.00    +0.000 C 
ATOM     19  C   UNL     1      46.103   6.090  13.013  0.00  0.00    +0.000 C 
ATOM     20  C   UNL     1      45.460   4.731  13.348  0.00  0.00    +0.000 C 
ATOM     21  C   UNL     1      45.491   3.721  12.202  0.00  0.00    +0.000 C 
BRANCH  16  22
ATOM     22  C   UNL     1      43.392   4.442  10.951  0.00  0.00    +0.000 C 
BRANCH  22  23
ATOM     23  N   UNL     1      42.734   3.241  11.461  0.00  0.00    +0.000 NA
ATOM     24  H   UNL     1      42.938   3.140  12.455  0.00  0.00    +0.000 HD
ATOM     25  H   UNL     1      43.133   2.418  11.010  0.00  0.00    +0.000 HD
ENDBRANCH  22  23
ENDBRANCH  16  22
ENDBRANCH  15  19
ENDBRANCH   1  15
TORSDOF 5
ENDMDL
MODEL 3
REMARK VINA RESULT:    -5.809      4.646      6.168
REMARK INTER + INTRA:          -7.979
REMARK INTER:                  -7.548
REMARK INTRA:                  -0.431
REMARK UNBOUND:                -0.641
REMARK  Name = 
REMARK  5 active torsions:
REMARK  status: ('A' for Active; 'I' for Inactive)
REMARK    1  A    between atoms: N_1  and  C_2
REMARK    2  A    between atoms: C_2  and  C_3
REMARK    3  A    between atoms: C_6  and  C_7
REMARK    4  A    between atoms: C_7  and  N_8
REMARK    5  A    between atoms: C_13  and  C_14
REMARK                            x       y       z     vdW  Elec       q    Type
REMARK                         _______ _______ _______ _____ _____    ______ ____
ROOT
ATOM      1  N   UNL     1      47.486   5.438  14.587  0.00  0.00    +0.000 N 
ATOM      2  C   UNL     1      48.116   6.589  14.169  0.00  0.00    +0.000 A 
ATOM      3  C   UNL     1      47.626   6.919  12.924  0.00  0.00    +0.000 A 
ATOM      4  C   UNL     1      46.708   5.907  12.544  0.00  0.00    +0.000 A 
ATOM      5  C   UNL     1      45.930   5.657  11.401  0.00  0.00    +0.000 A 
ATOM      6  C   UNL     1      45.167   4.485  11.380  0.00  0.00    +0.000 A 
ATOM      7  C   UNL     1      45.169   3.666  12.507  0.00  0.00    +0.000 A 
ATOM      8  N   UNL     1      45.878   3.880  13.644  0.00  0.00    +0.000 NA
ATOM      9  C   UNL     1      46.637   4.996  13.596  0.00  0.00    +0.000 A 
ENDROOT
BRANCH   6  10
ATOM     10  C   UNL     1      44.349   4.095  10.205  0.00  0.00    +0.000 C 
ATOM     11  N   UNL     1      44.640   4.710   9.017  0.00  0.00    +0.000 N 
ATOM     12  O   UNL     1      43.490   3.233  10.287  0.00  0.00    +0.000 OA
ATOM     13  H   UNL     1      45.476   5.249   8.863  0.00  0.00    +0.000 HD
ATOM     14  H   UNL     1      44.146   4.364   8.204  0.00  0.00    +0.000 HD
ENDBRANCH   6  10
BRANCH   1  15
ATOM     15  C   UNL     1      47.675   4.816  15.893  0.00  0.00    +0.000 C 
BRANCH  15  19
ATOM     16  C   UNL     1      48.687   4.720  19.702  0.00  0.00    +0.000 C 
ATOM     17  C   UNL     1      47.656   5.678  19.081  0.00  0.00    +0.000 C 
ATOM     18  C   UNL     1      48.177   6.406  17.842  0.00  0.00    +0.000 C 
ATOM     19  C   UNL     1      48.764   5.476  16.767  0.00  0.00    +0.000 C 
ATOM     20  C   UNL     1      49.718   4.433  17.376  0.00  0.00    +0.000 C 
ATOM     21  C   UNL     1      49.176   3.738  18.626  0.00  0.00    +0.000 C 
BRANCH  16  22
ATOM     22  C   UNL     1      49.866   5.445  20.387  0.00  0.00    +0.000 C 
BRANCH  22  23
ATOM     23  N   UNL     1      50.910   4.514  20.810  0.00  0.00    +0.000 NA
ATOM     24  H   UNL     1      51.653   4.499  20.112  0.00  0.00    +0.000 HD
ATOM     25  H   UNL     1      50.532   3.567  20.832  0.00  0.00    +0.000 HD
ENDBRANCH  22  23
ENDBRANCH  16  22
ENDBRANCH  15  19
ENDBRANCH   1  15
TORSDOF 5
ENDMDL
MODEL 4
REMARK VINA RESULT:    -5.657      4.447      6.034
REMARK INTER + INTRA:          -7.787
REMARK INTER:                  -7.258
REMARK INTRA:                  -0.528
REMARK UNBOUND:                -0.641
REMARK  Name = 
REMARK  5 active torsions:
REMARK  status: ('A' for Active; 'I' for Inactive)
REMARK    1  A    between atoms: N_1  and  C_2
REMARK    2  A    between atoms: C_2  and  C_3
REMARK    3  A    between atoms: C_6  and  C_7
REMARK    4  A    between atoms: C_7  and  N_8
REMARK    5  A    between atoms: C_13  and  C_14
REMARK                            x       y       z     vdW  Elec       q    Type
REMARK                         _______ _______ _______ _____ _____    ______ ____
ROOT
ATOM      1  N   UNL     1      47.796   6.376  14.112  0.00  0.00    +0.000 N 
ATOM      2  C   UNL     1      47.507   7.647  13.666  0.00  0.00    +0.000 A 
ATOM      3  C   UNL     1      46.451   7.562  12.785  0.00  0.00    +0.000 A 
ATOM      4  C   UNL     1      46.120   6.190  12.645  0.00  0.00    +0.000 A 
ATOM      5  C   UNL     1      45.185   5.472  11.880  0.00  0.00    +0.000 A 
ATOM      6  C   UNL     1      45.202   4.077  11.979  0.00  0.00    +0.000 A 
ATOM      7  C   UNL     1      46.092   3.481  12.869  0.00  0.00    +0.000 A 
ATOM      8  N   UNL     1      46.990   4.132  13.651  0.00  0.00    +0.000 NA
ATOM      9  C   UNL     1      46.971   5.471  13.482  0.00  0.00    +0.000 A 
ENDROOT
BRANCH   6  10
ATOM     10  C   UNL     1      44.297   3.217  11.177  0.00  0.00    +0.000 C 
ATOM     11  N   UNL     1      44.881   2.413  10.235  0.00  0.00    +0.000 N 
ATOM     12  O   UNL     1      43.094   3.196  11.382  0.00  0.00    +0.000 OA
ATOM     13  H   UNL     1      45.871   2.238  10.194  0.00  0.00    +0.000 HD
ATOM     14  H   UNL     1      44.266   1.759   9.766  0.00  0.00    +0.000 HD
ENDBRANCH   6  10
BRANCH   1  15
ATOM     15  C   UNL     1      48.801   6.060  15.122  0.00  0.00    +0.000 C 
BRANCH  15  19
ATOM     16  C   UNL     1      49.803   4.413  18.561  0.00  0.00    +0.000 C 
ATOM     17  C   UNL     1      48.814   3.816  17.544  0.00  0.00    +0.000 C 
ATOM     18  C   UNL     1      47.741   4.805  17.091  0.00  0.00    +0.000 C 
ATOM     19  C   UNL     1      48.296   6.144  16.579  0.00  0.00    +0.000 C 
ATOM     20  C   UNL     1      49.371   6.714  17.524  0.00  0.00    +0.000 C 
ATOM     21  C   UNL     1      50.417   5.694  17.975  0.00  0.00    +0.000 C 
BRANCH  16  22
ATOM     22  C   UNL     1      49.178   4.668  19.950  0.00  0.00    +0.000 C 
BRANCH  22  23
ATOM     23  N   UNL     1      48.402   3.522  20.420  0.00  0.00    +0.000 NA
ATOM     24  H   UNL     1      48.220   3.623  21.418  0.00  0.00    +0.000 HD
ATOM     25  H   UNL     1      48.959   2.673  20.323  0.00  0.00    +0.000 HD
ENDBRANCH  22  23
ENDBRANCH  16  22
ENDBRANCH  15  19
ENDBRANCH   1  15
TORSDOF 5
ENDMDL
MODEL 5
REMARK VINA RESULT:    -5.350      3.013      4.553
REMARK INTER + INTRA:          -7.399
REMARK INTER:                  -6.908
REMARK INTRA:                  -0.491
REMARK UNBOUND:                -0.641
REMARK  Name = 
REMARK  5 active torsions:
REMARK  status: ('A' for Active; 'I' for Inactive)
REMARK    1  A    between atoms: N_1  and  C_2
REMARK    2  A    between atoms: C_2  and  C_3
REMARK    3  A    between atoms: C_6  and  C_7
REMARK    4  A    between atoms: C_7  and  N_8
REMARK    5  A    between atoms: C_13  and  C_14
REMARK                            x       y       z     vdW  Elec       q    Type
REMARK                         _______ _______ _______ _____ _____    ______ ____
ROOT
ATOM      1  N   UNL     1      47.103   6.753  13.342  0.00  0.00    +0.000 N 
ATOM      2  C   UNL     1      47.637   6.101  14.431  0.00  0.00    +0.000 A 
ATOM      3  C   UNL     1      47.229   4.786  14.386  0.00  0.00    +0.000 A 
ATOM      4  C   UNL     1      46.374   4.642  13.264  0.00  0.00    +0.000 A 
ATOM      5  C   UNL     1      45.627   3.583  12.720  0.00  0.00    +0.000 A 
ATOM      6  C   UNL     1      44.837   3.856  11.599  0.00  0.00    +0.000 A 
ATOM      7  C   UNL     1      44.878   5.134  11.048  0.00  0.00    +0.000 A 
ATOM      8  N   UNL     1      45.605   6.179  11.517  0.00  0.00    +0.000 NA
ATOM      9  C   UNL     1      46.311   5.880  12.629  0.00  0.00    +0.000 A 
ENDROOT
BRANCH   6  10
ATOM     10  C   UNL     1      43.968   2.828  10.975  0.00  0.00    +0.000 C 
ATOM     11  N   UNL     1      44.420   2.257   9.815  0.00  0.00    +0.000 N 
ATOM     12  O   UNL     1      42.923   2.477  11.497  0.00  0.00    +0.000 OA
ATOM     13  H   UNL     1      45.364   2.355   9.482  0.00  0.00    +0.000 HD
ATOM     14  H   UNL     1      43.869   1.488   9.454  0.00  0.00    +0.000 HD
ENDBRANCH   6  10
BRANCH   1  15
ATOM     15  C   UNL     1      47.373   8.144  12.993  0.00  0.00    +0.000 C 
BRANCH  15  19
ATOM     16  C   UNL     1      50.949   9.691  12.390  0.00  0.00    +0.000 C 
ATOM     17  C   UNL     1      49.624  10.471  12.340  0.00  0.00    +0.000 C 
ATOM     18  C   UNL     1      48.567   9.812  11.454  0.00  0.00    +0.000 C 
ATOM     19  C   UNL     1      48.309   8.332  11.778  0.00  0.00    +0.000 C 
ATOM     20  C   UNL     1      49.623   7.547  11.943  0.00  0.00    +0.000 C 
ATOM     21  C   UNL     1      50.666   8.242  12.818  0.00  0.00    +0.000 C 
BRANCH  16  22
ATOM     22  C   UNL     1      51.745   9.747  11.068  0.00  0.00    +0.000 C 
BRANCH  22  23
ATOM     23  N   UNL     1      52.831   8.769  11.040  0.00  0.00    +0.000 NA
ATOM     24  H   UNL     1      53.705   9.240  10.809  0.00  0.00    +0.000 HD
ATOM     25  H   UNL     1      52.667   8.101  10.287  0.00  0.00    +0.000 HD
ENDBRANCH  22  23
ENDBRANCH  16  22
ENDBRANCH  15  19
ENDBRANCH   1  15
TORSDOF 5
ENDMDL
MODEL 6
REMARK VINA RESULT:    -5.159      3.547      5.036
REMARK INTER + INTRA:          -7.157
REMARK INTER:                  -6.689
REMARK INTRA:                  -0.468
REMARK UNBOUND:                -0.641
REMARK  Name = 
REMARK  5 active torsions:
REMARK  status: ('A' for Active; 'I' for Inactive)
REMARK    1  A    between atoms: N_1  and  C_2
REMARK    2  A    between atoms: C_2  and  C_3
REMARK    3  A    between atoms: C_6  and  C_7
REMARK    4  A    between atoms: C_7  and  N_8
REMARK    5  A    between atoms: C_13  and  C_14
REMARK                            x       y       z     vdW  Elec       q    Type
REMARK                         _______ _______ _______ _____ _____    ______ ____
ROOT
ATOM      1  N   UNL     1      46.739   7.811  13.128  0.00  0.00    +0.000 N 
ATOM      2  C   UNL     1      46.092   8.824  12.457  0.00  0.00    +0.000 A 
ATOM      3  C   UNL     1      44.998   8.284  11.816  0.00  0.00    +0.000 A 
ATOM      4  C   UNL     1      45.009   6.887  12.058  0.00  0.00    +0.000 A 
ATOM      5  C   UNL     1      44.204   5.808  11.653  0.00  0.00    +0.000 A 
ATOM      6  C   UNL     1      44.581   4.526  12.068  0.00  0.00    +0.000 A 
ATOM      7  C   UNL     1      45.688   4.394  12.904  0.00  0.00    +0.000 A 
ATOM      8  N   UNL     1      46.476   5.406  13.346  0.00  0.00    +0.000 NA
ATOM      9  C   UNL     1      46.102   6.616  12.878  0.00  0.00    +0.000 A 
ENDROOT
BRANCH   6  10
ATOM     10  C   UNL     1      43.837   3.311  11.657  0.00  0.00    +0.000 C 
ATOM     11  N   UNL     1      43.701   2.322  12.595  0.00  0.00    +0.000 N 
ATOM     12  O   UNL     1      43.332   3.219  10.551  0.00  0.00    +0.000 OA
ATOM     13  H   UNL     1      43.903   2.454  13.572  0.00  0.00    +0.000 HD
ATOM     14  H   UNL     1      43.107   1.543  12.337  0.00  0.00    +0.000 HD
ENDBRANCH   6  10
BRANCH   1  15
ATOM     15  C   UNL     1      47.899   7.998  13.993  0.00  0.00    +0.000 C 
BRANCH  15  19
ATOM     16  C   UNL     1      51.224   9.345  12.357  0.00  0.00    +0.000 C 
ATOM     17  C   UNL     1      49.943   8.975  11.590  0.00  0.00    +0.000 C 
ATOM     18  C   UNL     1      49.398   7.593  11.952  0.00  0.00    +0.000 C 
ATOM     19  C   UNL     1      49.206   7.370  13.461  0.00  0.00    +0.000 C 
ATOM     20  C   UNL     1      50.433   7.834  14.267  0.00  0.00    +0.000 C 
ATOM     21  C   UNL     1      50.965   9.210  13.866  0.00  0.00    +0.000 C 
BRANCH  16  22
ATOM     22  C   UNL     1      52.460   8.530  11.919  0.00  0.00    +0.000 C 
BRANCH  22  23
ATOM     23  N   UNL     1      53.663   8.925  12.648  0.00  0.00    +0.000 NA
ATOM     24  H   UNL     1      54.452   8.363  12.329  0.00  0.00    +0.000 HD
ATOM     25  H   UNL     1      53.548   8.706  13.638  0.00  0.00    +0.000 HD
ENDBRANCH  22  23
ENDBRANCH  16  22
ENDBRANCH  15  19
ENDBRANCH   1  15
TORSDOF 5
ENDMDL
MODEL 7
REMARK VINA RESULT:    -5.119      3.961      7.157
REMARK INTER + INTRA:          -7.107
REMARK INTER:                  -6.774
REMARK INTRA:                  -0.333
REMARK UNBOUND:                -0.641
REMARK  Name = 
REMARK  5 active torsions:
REMARK  status: ('A' for Active; 'I' for Inactive)
REMARK    1  A    between atoms: N_1  and  C_2
REMARK    2  A    between atoms: C_2  and  C_3
REMARK    3  A    between atoms: C_6  and  C_7
REMARK    4  A    between atoms: C_7  and  N_8
REMARK    5  A    between atoms: C_13  and  C_14
REMARK                            x       y       z     vdW  Elec       q    Type
REMARK                         _______ _______ _______ _____ _____    ______ ____
ROOT
ATOM      1  N   UNL     1      47.618   7.840  12.355  0.00  0.00    +0.000 N 
ATOM      2  C   UNL     1      46.747   8.893  12.524  0.00  0.00    +0.000 A 
ATOM      3  C   UNL     1      47.367  10.039  12.076  0.00  0.00    +0.000 A 
ATOM      4  C   UNL     1      48.679   9.684  11.671  0.00  0.00    +0.000 A 
ATOM      5  C   UNL     1      49.786  10.394  11.175  0.00  0.00    +0.000 A 
ATOM      6  C   UNL     1      50.962   9.676  10.937  0.00  0.00    +0.000 A 
ATOM      7  C   UNL     1      50.958   8.298  11.143  0.00  0.00    +0.000 A 
ATOM      8  N   UNL     1      49.907   7.565  11.591  0.00  0.00    +0.000 NA
ATOM      9  C   UNL     1      48.812   8.309  11.853  0.00  0.00    +0.000 A 
ENDROOT
BRANCH   6  10
ATOM     10  C   UNL     1      52.207  10.331  10.463  0.00  0.00    +0.000 C 
ATOM     11  N   UNL     1      53.311   9.534  10.325  0.00  0.00    +0.000 N 
ATOM     12  O   UNL     1      52.228  11.515  10.169  0.00  0.00    +0.000 OA
ATOM     13  H   UNL     1      53.274   8.529  10.340  0.00  0.00    +0.000 HD
ATOM     14  H   UNL     1      54.124   9.970   9.907  0.00  0.00    +0.000 HD
ENDBRANCH   6  10
BRANCH   1  15
ATOM     15  C   UNL     1      47.296   6.445  12.636  0.00  0.00    +0.000 C 
BRANCH  15  19
ATOM     16  C   UNL     1      44.892   3.579  11.393  0.00  0.00    +0.000 C 
ATOM     17  C   UNL     1      45.267   4.835  10.588  0.00  0.00    +0.000 C 
ATOM     18  C   UNL     1      45.086   6.133  11.374  0.00  0.00    +0.000 C 
ATOM     19  C   UNL     1      45.786   6.142  12.743  0.00  0.00    +0.000 C 
ATOM     20  C   UNL     1      45.517   4.846  13.528  0.00  0.00    +0.000 C 
ATOM     21  C   UNL     1      45.686   3.566  12.709  0.00  0.00    +0.000 C 
BRANCH  16  22
ATOM     22  C   UNL     1      43.375   3.440  11.645  0.00  0.00    +0.000 C 
BRANCH  22  23
ATOM     23  N   UNL     1      42.929   2.051  11.558  0.00  0.00    +0.000 NA
ATOM     24  H   UNL     1      43.202   1.664  10.656  0.00  0.00    +0.000 HD
ATOM     25  H   UNL     1      41.910   2.020  11.577  0.00  0.00    +0.000 HD
ENDBRANCH  22  23
ENDBRANCH  16  22
ENDBRANCH  15  19
ENDBRANCH   1  15
TORSDOF 5
ENDMDL
MODEL 8
REMARK VINA RESULT:    -4.903      4.381      7.956
REMARK INTER + INTRA:          -6.834
REMARK INTER:                  -6.302
REMARK INTRA:                  -0.532
REMARK UNBOUND:                -0.641
REMARK  Name = 
REMARK  5 active torsions:
REMARK  status: ('A' for Active; 'I' for Inactive)
REMARK    1  A    between atoms: N_1  and  C_2
REMARK    2  A    between atoms: C_2  and  C_3
REMARK    3  A    between atoms: C_6  and  C_7
REMARK    4  A    between atoms: C_7  and  N_8
REMARK    5  A    between atoms: C_13  and  C_14
REMARK                            x       y       z     vdW  Elec       q    Type
REMARK                         _______ _______ _______ _____ _____    ______ ____
ROOT
ATOM      1  N   UNL     1      47.412   4.402  15.133  0.00  0.00    +0.000 N 
ATOM      2  C   UNL     1      47.158   3.702  16.292  0.00  0.00    +0.000 A 
ATOM      3  C   UNL     1      47.727   4.390  17.341  0.00  0.00    +0.000 A 
ATOM      4  C   UNL     1      48.397   5.516  16.801  0.00  0.00    +0.000 A 
ATOM      5  C   UNL     1      49.180   6.553  17.339  0.00  0.00    +0.000 A 
ATOM      6  C   UNL     1      49.731   7.478  16.447  0.00  0.00    +0.000 A 
ATOM      7  C   UNL     1      49.427   7.363  15.092  0.00  0.00    +0.000 A 
ATOM      8  N   UNL     1      48.653   6.401  14.530  0.00  0.00    +0.000 NA
ATOM      9  C   UNL     1      48.186   5.503  15.424  0.00  0.00    +0.000 A 
ENDROOT
BRANCH   6  10
ATOM     10  C   UNL     1      50.616   8.581  16.897  0.00  0.00    +0.000 C 
ATOM     11  N   UNL     1      50.629   8.855  18.238  0.00  0.00    +0.000 N 
ATOM     12  O   UNL     1      51.331   9.182  16.113  0.00  0.00    +0.000 OA
ATOM     13  H   UNL     1      50.233   8.243  18.932  0.00  0.00    +0.000 HD
ATOM     14  H   UNL     1      51.309   9.539  18.546  0.00  0.00    +0.000 HD
ENDBRANCH   6  10
BRANCH   1  15
ATOM     15  C   UNL     1      46.903   4.036  13.815  0.00  0.00    +0.000 C 
BRANCH  15  19
ATOM     16  C   UNL     1      44.705   5.346  10.816  0.00  0.00    +0.000 C 
ATOM     17  C   UNL     1      45.433   6.235  11.838  0.00  0.00    +0.000 C 
ATOM     18  C   UNL     1      45.158   5.840  13.289  0.00  0.00    +0.000 C 
ATOM     19  C   UNL     1      45.408   4.354  13.594  0.00  0.00    +0.000 C 
ATOM     20  C   UNL     1      44.782   3.440  12.524  0.00  0.00    +0.000 C 
ATOM     21  C   UNL     1      45.059   3.874  11.085  0.00  0.00    +0.000 C 
BRANCH  16  22
ATOM     22  C   UNL     1      43.177   5.565  10.787  0.00  0.00    +0.000 C 
BRANCH  22  23
ATOM     23  N   UNL     1      42.819   6.960  11.037  0.00  0.00    +0.000 NA
ATOM     24  H   UNL     1      43.213   7.547  10.303  0.00  0.00    +0.000 HD
ATOM     25  H   UNL     1      43.255   7.272  11.906  0.00  0.00    +0.000 HD
ENDBRANCH  22  23
ENDBRANCH  16  22
ENDBRANCH  15  19
ENDBRANCH   1  15
TORSDOF 5
ENDMDL
MODEL 9
REMARK VINA RESULT:    -4.827      4.150      7.243
REMARK INTER + INTRA:          -6.738
REMARK INTER:                  -6.258
REMARK INTRA:                  -0.479
REMARK UNBOUND:                -0.641
REMARK  Name = 
REMARK  5 active torsions:
REMARK  status: ('A' for Active; 'I' for Inactive)
REMARK    1  A    between atoms: N_1  and  C_2
REMARK    2  A    between atoms: C_2  and  C_3
REMARK    3  A    between atoms: C_6  and  C_7
REMARK    4  A    between atoms: C_7  and  N_8
REMARK    5  A    between atoms: C_13  and  C_14
REMARK                            x       y       z     vdW  Elec       q    Type
REMARK                         _______ _______ _______ _____ _____    ______ ____
ROOT
ATOM      1  N   UNL     1      47.890   7.066  13.620  0.00  0.00    +0.000 N 
ATOM      2  C   UNL     1      48.326   6.594  14.837  0.00  0.00    +0.000 A 
ATOM      3  C   UNL     1      49.606   7.058  15.045  0.00  0.00    +0.000 A 
ATOM      4  C   UNL     1      49.986   7.792  13.892  0.00  0.00    +0.000 A 
ATOM      5  C   UNL     1      51.155   8.461  13.487  0.00  0.00    +0.000 A 
ATOM      6  C   UNL     1      51.162   9.038  12.213  0.00  0.00    +0.000 A 
ATOM      7  C   UNL     1      50.002   8.974  11.444  0.00  0.00    +0.000 A 
ATOM      8  N   UNL     1      48.842   8.369  11.804  0.00  0.00    +0.000 NA
ATOM      9  C   UNL     1      48.901   7.784  13.019  0.00  0.00    +0.000 A 
ENDROOT
BRANCH   6  10
ATOM     10  C   UNL     1      52.358   9.722  11.662  0.00  0.00    +0.000 C 
ATOM     11  N   UNL     1      53.272   8.939  11.009  0.00  0.00    +0.000 N 
ATOM     12  O   UNL     1      52.494  10.931  11.749  0.00  0.00    +0.000 OA
ATOM     13  H   UNL     1      53.087   7.992  10.725  0.00  0.00    +0.000 HD
ATOM     14  H   UNL     1      54.031   9.429  10.552  0.00  0.00    +0.000 HD
ENDBRANCH   6  10
BRANCH   1  15
ATOM     15  C   UNL     1      46.551   6.858  13.080  0.00  0.00    +0.000 C 
BRANCH  15  19
ATOM     16  C   UNL     1      43.530   4.648  11.842  0.00  0.00    +0.000 C 
ATOM     17  C   UNL     1      44.261   4.480  13.185  0.00  0.00    +0.000 C 
ATOM     18  C   UNL     1      45.782   4.412  13.042  0.00  0.00    +0.000 C 
ATOM     19  C   UNL     1      46.390   5.573  12.239  0.00  0.00    +0.000 C 
ATOM     20  C   UNL     1      45.609   5.836  10.938  0.00  0.00    +0.000 C 
ATOM     21  C   UNL     1      44.091   5.878  11.112  0.00  0.00    +0.000 C 
BRANCH  16  22
ATOM     22  C   UNL     1      43.582   3.387  10.952  0.00  0.00    +0.000 C 
BRANCH  22  23
ATOM     23  N   UNL     1      43.053   2.210  11.637  0.00  0.00    +0.000 NA
ATOM     24  H   UNL     1      42.652   2.491  12.531  0.00  0.00    +0.000 HD
ATOM     25  H   UNL     1      43.819   1.576  11.864  0.00  0.00    +0.000 HD
ENDBRANCH  22  23
ENDBRANCH  16  22
ENDBRANCH  15  19
ENDBRANCH   1  15
TORSDOF 5
ENDMDL
