MODEL 1
REMARK VINA RESULT:    -9.213      0.000      0.000
REMARK INTER + INTRA:         -15.828
REMARK INTER:                 -14.600
REMARK INTRA:                  -1.228
REMARK UNBOUND:                -1.228
REMARK  Name = 
REMARK  12 active torsions:
REMARK  status: ('A' for Active; 'I' for Inactive)
REMARK    1  A    between atoms: C_1  and  C_2
REMARK    2  A    between atoms: C_2  and  C_3
REMARK    3  A    between atoms: C_3  and  N_4
REMARK    4  A    between atoms: C_3  and  C_23
REMARK    5  A    between atoms: N_4  and  C_5
REMARK    6  A    between atoms: C_5  and  C_6
REMARK    7  A    between atoms: C_9  and  C_10
REMARK    8  A    between atoms: C_10  and  O_11
REMARK    9  A    between atoms: C_10  and  C_12
REMARK   10  A    between atoms: C_12  and  C_13
REMARK   11  A    between atoms: C_16  and  C_17
REMARK   12  A    between atoms: C_17  and  O_18
REMARK                            x       y       z     vdW  Elec       q    Type
REMARK                         _______ _______ _______ _____ _____    ______ ____
ROOT
ATOM      1  C   UNL     1      46.722   4.926  13.969  0.00  0.00    +0.000 A 
ATOM      2  C   UNL     1      45.923   5.806  13.235  0.00  0.00    +0.000 A 
ATOM      3  C   UNL     1      45.026   5.298  12.292  0.00  0.00    +0.000 A 
ATOM      4  C   UNL     1      44.946   3.917  12.123  0.00  0.00    +0.000 A 
ATOM      5  N   UNL     1      45.755   3.060  12.798  0.00  0.00    +0.000 NA
ATOM      6  C   UNL     1      46.594   3.571  13.706  0.00  0.00    +0.000 A 
ENDROOT
BRANCH   1   7
ATOM      7  C   UNL     1      47.786   5.369  14.924  0.00  0.00    +0.000 C 
BRANCH   7   8
ATOM      8  N   UNL     1      48.286   4.319  15.806  0.00  0.00    +0.000 NA
ATOM      9  H   UNL     1      49.071   3.816  15.383  0.00  0.00    +0.000 HD
BRANCH   8  10
ATOM     10  C   UNL     1      48.697   4.889  17.095  0.00  0.00    +0.000 C 
BRANCH  10  11
ATOM     11  C   UNL     1      50.153   4.569  17.400  0.00  0.00    +0.000 A 
ATOM     12  C   UNL     1      51.054   5.556  17.778  0.00  0.00    +0.000 A 
ATOM     13  S   UNL     1      52.602   4.956  18.166  0.00  0.00    +0.000 S 
ATOM     14  C   UNL     1      52.117   3.354  17.862  0.00  0.00    +0.000 A 
ATOM     15  N   UNL     1      52.951   2.310  18.110  0.00  0.00    +0.000 NA
ATOM     16  C   UNL     1      52.438   1.152  17.856  0.00  0.00    +0.000 A 
ATOM     17  N   UNL     1      51.189   0.950  17.319  0.00  0.00    +0.000 N 
ATOM     18  C   UNL     1      50.370   1.986  16.926  0.00  0.00    +0.000 A 
ATOM     19  O   UNL     1      49.377   1.802  16.229  0.00  0.00    +0.000 OA
ATOM     20  C   UNL     1      50.830   3.293  17.356  0.00  0.00    +0.000 A 
ATOM     21  H   UNL     1      50.892   0.020  17.064  0.00  0.00    +0.000 HD
ENDBRANCH  10  11
BRANCH  10  23
ATOM     22  C   UNL     1      47.172   5.700  18.966  0.00  0.00    +0.000 C 
ATOM     23  C   UNL     1      47.708   4.492  18.201  0.00  0.00    +0.000 C 
ENDBRANCH  10  23
ENDBRANCH   8  10
ENDBRANCH   7   8
ENDBRANCH   1   7
BRANCH   4  24
ATOM     24  C   UNL     1      43.975   3.295  11.137  0.00  0.00    +0.000 C 
BRANCH  24  25
ATOM     25  O   UNL     1      42.641   3.473  11.627  0.00  0.00    +0.000 OA
ATOM     26  H   UNL     1      42.714   4.071  12.393  0.00  0.00    +0.000 HD
ENDBRANCH  24  25
BRANCH  24  27
ATOM     27  C   UNL     1      44.146   3.990   9.767  0.00  0.00    +0.000 C 
BRANCH  27  28
ATOM     28  C   UNL     1      45.174   3.442   8.812  0.00  0.00    +0.000 A 
ATOM     29  C   UNL     1      45.429   2.061   8.838  0.00  0.00    +0.000 A 
ATOM     30  C   UNL     1      46.371   1.493   7.984  0.00  0.00    +0.000 A 
ATOM     31  C   UNL     1      47.068   2.296   7.078  0.00  0.00    +0.000 A 
ATOM     32  C   UNL     1      46.782   3.667   7.020  0.00  0.00    +0.000 A 
ATOM     33  C   UNL     1      45.838   4.233   7.875  0.00  0.00    +0.000 A 
BRANCH  31  34
ATOM     34  C   UNL     1      48.133   1.712   6.195  0.00  0.00    +0.000 C 
BRANCH  34  35
ATOM     35  O   UNL     1      48.341   2.528   5.052  0.00  0.00    +0.000 OA
ATOM     36  H   UNL     1      47.743   3.291   5.137  0.00  0.00    +0.000 HD
ENDBRANCH  34  35
ENDBRANCH  31  34
ENDBRANCH  27  28
ENDBRANCH  24  27
ENDBRANCH   4  24
TORSDOF 11
ENDMDL
MODEL 2
REMARK VINA RESULT:    -8.205      2.054      2.866
REMARK INTER + INTRA:         -14.230
REMARK INTER:                 -12.882
REMARK INTRA:                  -1.347
REMARK UNBOUND:                -1.228
REMARK  Name = 
REMARK  12 active torsions:
REMARK  status: ('A' for Active; 'I' for Inactive)
REMARK    1  A    between atoms: C_1  and  C_2
REMARK    2  A    between atoms: C_2  and  C_3
REMARK    3  A    between atoms: C_3  and  N_4
REMARK    4  A    between atoms: C_3  and  C_23
REMARK    5  A    between atoms: N_4  and  C_5
REMARK    6  A    between atoms: C_5  and  C_6
REMARK    7  A    between atoms: C_9  and  C_10
REMARK    8  A    between atoms: C_10  and  O_11
REMARK    9  A    between atoms: C_10  and  C_12
REMARK   10  A    between atoms: C_12  and  C_13
REMARK   11  A    between atoms: C_16  and  C_17
REMARK   12  A    between atoms: C_17  and  O_18
REMARK                            x       y       z     vdW  Elec       q    Type
REMARK                         _______ _______ _______ _____ _____    ______ ____
ROOT
ATOM      1  C   UNL     1      46.951   6.062  13.326  0.00  0.00    +0.000 A 
ATOM      2  C   UNL     1      46.267   6.703  12.289  0.00  0.00    +0.000 A 
ATOM      3  C   UNL     1      45.225   6.037  11.639  0.00  0.00    +0.000 A 
ATOM      4  C   UNL     1      44.888   4.752  12.059  0.00  0.00    +0.000 A 
ATOM      5  N   UNL     1      45.581   4.108  13.033  0.00  0.00    +0.000 NA
ATOM      6  C   UNL     1      46.564   4.771  13.649  0.00  0.00    +0.000 A 
ENDROOT
BRANCH   1   7
ATOM      7  C   UNL     1      48.147   6.642  14.014  0.00  0.00    +0.000 C 
BRANCH   7   8
ATOM      8  N   UNL     1      48.373   6.139  15.365  0.00  0.00    +0.000 NA
ATOM      9  H   UNL     1      48.370   5.115  15.390  0.00  0.00    +0.000 HD
BRANCH   8  10
ATOM     10  C   UNL     1      49.648   6.644  15.891  0.00  0.00    +0.000 C 
BRANCH  10  11
ATOM     11  C   UNL     1      49.642   6.677  17.412  0.00  0.00    +0.000 A 
ATOM     12  C   UNL     1      49.909   7.843  18.118  0.00  0.00    +0.000 A 
ATOM     13  S   UNL     1      49.751   7.670  19.807  0.00  0.00    +0.000 S 
ATOM     14  C   UNL     1      49.300   6.038  19.652  0.00  0.00    +0.000 A 
ATOM     15  N   UNL     1      48.913   5.312  20.735  0.00  0.00    +0.000 NA
ATOM     16  C   UNL     1      48.574   4.096  20.461  0.00  0.00    +0.000 A 
ATOM     17  N   UNL     1      48.646   3.524  19.214  0.00  0.00    +0.000 N 
ATOM     18  C   UNL     1      49.164   4.184  18.120  0.00  0.00    +0.000 A 
ATOM     19  O   UNL     1      49.453   3.597  17.083  0.00  0.00    +0.000 OA
ATOM     20  C   UNL     1      49.387   5.601  18.342  0.00  0.00    +0.000 A 
ATOM     21  H   UNL     1      48.451   2.541  19.095  0.00  0.00    +0.000 HD
ENDBRANCH  10  11
BRANCH  10  23
ATOM     22  C   UNL     1      51.476   8.020  14.774  0.00  0.00    +0.000 C 
ATOM     23  C   UNL     1      50.017   7.976  15.221  0.00  0.00    +0.000 C 
ENDBRANCH  10  23
ENDBRANCH   8  10
ENDBRANCH   7   8
ENDBRANCH   1   7
BRANCH   4  24
ATOM     24  C   UNL     1      43.749   3.983  11.417  0.00  0.00    +0.000 C 
BRANCH  24  25
ATOM     25  O   UNL     1      42.512   4.427  11.986  0.00  0.00    +0.000 OA
ATOM     26  H   UNL     1      42.460   4.019  12.869  0.00  0.00    +0.000 HD
ENDBRANCH  24  25
BRANCH  24  27
ATOM     27  C   UNL     1      43.770   4.245   9.894  0.00  0.00    +0.000 C 
BRANCH  27  28
ATOM     28  C   UNL     1      44.798   3.526   9.060  0.00  0.00    +0.000 A 
ATOM     29  C   UNL     1      45.592   4.290   8.189  0.00  0.00    +0.000 A 
ATOM     30  C   UNL     1      46.556   3.685   7.387  0.00  0.00    +0.000 A 
ATOM     31  C   UNL     1      46.753   2.303   7.451  0.00  0.00    +0.000 A 
ATOM     32  C   UNL     1      45.994   1.546   8.354  0.00  0.00    +0.000 A 
ATOM     33  C   UNL     1      45.029   2.154   9.156  0.00  0.00    +0.000 A 
BRANCH  31  34
ATOM     34  C   UNL     1      47.744   1.625   6.549  0.00  0.00    +0.000 C 
BRANCH  34  35
ATOM     35  O   UNL     1      48.822   2.496   6.243  0.00  0.00    +0.000 OA
ATOM     36  H   UNL     1      49.642   2.016   6.456  0.00  0.00    +0.000 HD
ENDBRANCH  34  35
ENDBRANCH  31  34
ENDBRANCH  27  28
ENDBRANCH  24  27
ENDBRANCH   4  24
TORSDOF 11
ENDMDL
MODEL 3
REMARK VINA RESULT:    -8.153      2.074      2.724
REMARK INTER + INTRA:         -14.147
REMARK INTER:                 -12.691
REMARK INTRA:                  -1.456
REMARK UNBOUND:                -1.228
REMARK  Name = 
REMARK  12 active torsions:
REMARK  status: ('A' for Active; 'I' for Inactive)
REMARK    1  A    between atoms: C_1  and  C_2
REMARK    2  A    between atoms: C_2  and  C_3
REMARK    3  A    between atoms: C_3  and  N_4
REMARK    4  A    between atoms: C_3  and  C_23
REMARK    5  A    between atoms: N_4  and  C_5
REMARK    6  A    between atoms: C_5  and  C_6
REMARK    7  A    between atoms: C_9  and  C_10
REMARK    8  A    between atoms: C_10  and  O_11
REMARK    9  A    between atoms: C_10  and  C_12
REMARK   10  A    between atoms: C_12  and  C_13
REMARK   11  A    between atoms: C_16  and  C_17
REMARK   12  A    between atoms: C_17  and  O_18
REMARK                            x       y       z     vdW  Elec       q    Type
REMARK                         _______ _______ _______ _____ _____    ______ ____
ROOT
ATOM      1  C   UNL     1      46.733   5.407  13.730  0.00  0.00    +0.000 A 
ATOM      2  C   UNL     1      46.548   4.036  13.531  0.00  0.00    +0.000 A 
ATOM      3  C   UNL     1      45.479   3.593  12.749  0.00  0.00    +0.000 A 
ATOM      4  C   UNL     1      44.633   4.539  12.175  0.00  0.00    +0.000 A 
ATOM      5  N   UNL     1      44.780   5.870  12.404  0.00  0.00    +0.000 NA
ATOM      6  C   UNL     1      45.820   6.270  13.144  0.00  0.00    +0.000 A 
ENDROOT
BRANCH   1   7
ATOM      7  C   UNL     1      47.779   5.981  14.633  0.00  0.00    +0.000 C 
BRANCH   7   8
ATOM      8  N   UNL     1      48.457   5.003  15.476  0.00  0.00    +0.000 NA
ATOM      9  H   UNL     1      49.386   4.774  15.114  0.00  0.00    +0.000 HD
BRANCH   8  10
ATOM     10  C   UNL     1      48.571   5.507  16.851  0.00  0.00    +0.000 C 
BRANCH  10  11
ATOM     11  C   UNL     1      49.998   5.390  17.364  0.00  0.00    +0.000 A 
ATOM     12  C   UNL     1      50.316   4.612  18.470  0.00  0.00    +0.000 A 
ATOM     13  S   UNL     1      51.987   4.550  18.805  0.00  0.00    +0.000 S 
ATOM     14  C   UNL     1      52.346   5.543  17.472  0.00  0.00    +0.000 A 
ATOM     15  N   UNL     1      53.632   5.802  17.117  0.00  0.00    +0.000 NA
ATOM     16  C   UNL     1      53.751   6.550  16.071  0.00  0.00    +0.000 A 
ATOM     17  N   UNL     1      52.701   7.111  15.385  0.00  0.00    +0.000 N 
ATOM     18  C   UNL     1      51.391   6.986  15.795  0.00  0.00    +0.000 A 
ATOM     19  O   UNL     1      50.495   7.683  15.332  0.00  0.00    +0.000 OA
ATOM     20  C   UNL     1      51.199   6.013  16.855  0.00  0.00    +0.000 A 
ATOM     21  H   UNL     1      52.876   7.758  14.631  0.00  0.00    +0.000 HD
ENDBRANCH  10  11
BRANCH  10  23
ATOM     22  C   UNL     1      47.104   3.468  17.269  0.00  0.00    +0.000 C 
ATOM     23  C   UNL     1      47.510   4.858  17.753  0.00  0.00    +0.000 C 
ENDBRANCH  10  23
ENDBRANCH   8  10
ENDBRANCH   7   8
ENDBRANCH   1   7
BRANCH   4  24
ATOM     24  C   UNL     1      43.469   4.131  11.291  0.00  0.00    +0.000 C 
BRANCH  24  25
ATOM     25  O   UNL     1      42.285   4.790  11.752  0.00  0.00    +0.000 OA
ATOM     26  H   UNL     1      42.017   4.324  12.565  0.00  0.00    +0.000 HD
ENDBRANCH  24  25
BRANCH  24  27
ATOM     27  C   UNL     1      43.785   4.540   9.835  0.00  0.00    +0.000 C 
BRANCH  27  28
ATOM     28  C   UNL     1      44.767   3.704   9.055  0.00  0.00    +0.000 A 
ATOM     29  C   UNL     1      45.636   4.362   8.169  0.00  0.00    +0.000 A 
ATOM     30  C   UNL     1      46.563   3.647   7.415  0.00  0.00    +0.000 A 
ATOM     31  C   UNL     1      46.646   2.258   7.544  0.00  0.00    +0.000 A 
ATOM     32  C   UNL     1      45.811   1.605   8.461  0.00  0.00    +0.000 A 
ATOM     33  C   UNL     1      44.885   2.324   9.216  0.00  0.00    +0.000 A 
BRANCH  31  34
ATOM     34  C   UNL     1      47.594   1.463   6.693  0.00  0.00    +0.000 C 
BRANCH  34  35
ATOM     35  O   UNL     1      48.707   2.256   6.306  0.00  0.00    +0.000 OA
ATOM     36  H   UNL     1      49.150   2.538   7.125  0.00  0.00    +0.000 HD
ENDBRANCH  34  35
ENDBRANCH  31  34
ENDBRANCH  27  28
ENDBRANCH  24  27
ENDBRANCH   4  24
TORSDOF 11
ENDMDL
MODEL 4
REMARK VINA RESULT:    -8.086      1.758      2.119
REMARK INTER + INTRA:         -14.042
REMARK INTER:                 -12.950
REMARK INTRA:                  -1.092
REMARK UNBOUND:                -1.228
REMARK  Name = 
REMARK  12 active torsions:
REMARK  status: ('A' for Active; 'I' for Inactive)
REMARK    1  A    between atoms: C_1  and  C_2
REMARK    2  A    between atoms: C_2  and  C_3
REMARK    3  A    between atoms: C_3  and  N_4
REMARK    4  A    between atoms: C_3  and  C_23
REMARK    5  A    between atoms: N_4  and  C_5
REMARK    6  A    between atoms: C_5  and  C_6
REMARK    7  A    between atoms: C_9  and  C_10
REMARK    8  A    between atoms: C_10  and  O_11
REMARK    9  A    between atoms: C_10  and  C_12
REMARK   10  A    between atoms: C_12  and  C_13
REMARK   11  A    between atoms: C_16  and  C_17
REMARK   12  A    between atoms: C_17  and  O_18
REMARK                            x       y       z     vdW  Elec       q    Type
REMARK                         _______ _______ _______ _____ _____    ______ ____
ROOT
ATOM      1  C   UNL     1      47.155   5.814  13.696  0.00  0.00    +0.000 A 
ATOM      2  C   UNL     1      46.447   6.555  12.746  0.00  0.00    +0.000 A 
ATOM      3  C   UNL     1      45.405   5.949  12.039  0.00  0.00    +0.000 A 
ATOM      4  C   UNL     1      45.093   4.620  12.316  0.00  0.00    +0.000 A 
ATOM      5  N   UNL     1      45.809   3.882  13.204  0.00  0.00    +0.000 NA
ATOM      6  C   UNL     1      46.792   4.489  13.878  0.00  0.00    +0.000 A 
ENDROOT
BRANCH   1   7
ATOM      7  C   UNL     1      48.352   6.333  14.430  0.00  0.00    +0.000 C 
BRANCH   7   8
ATOM      8  N   UNL     1      48.041   7.135  15.608  0.00  0.00    +0.000 NA
ATOM      9  H   UNL     1      47.060   7.034  15.883  0.00  0.00    +0.000 HD
BRANCH   8  10
ATOM     10  C   UNL     1      48.911   6.756  16.728  0.00  0.00    +0.000 C 
BRANCH  10  11
ATOM     11  C   UNL     1      48.751   5.283  17.076  0.00  0.00    +0.000 A 
ATOM     12  C   UNL     1      47.500   4.697  17.216  0.00  0.00    +0.000 A 
ATOM     13  S   UNL     1      47.560   3.018  17.508  0.00  0.00    +0.000 S 
ATOM     14  C   UNL     1      49.260   3.012  17.437  0.00  0.00    +0.000 A 
ATOM     15  N   UNL     1      49.960   1.849  17.502  0.00  0.00    +0.000 NA
ATOM     16  C   UNL     1      51.240   1.997  17.410  0.00  0.00    +0.000 A 
ATOM     17  N   UNL     1      51.884   3.207  17.319  0.00  0.00    +0.000 N 
ATOM     18  C   UNL     1      51.219   4.412  17.389  0.00  0.00    +0.000 A 
ATOM     19  O   UNL     1      51.811   5.473  17.557  0.00  0.00    +0.000 OA
ATOM     20  C   UNL     1      49.775   4.291  17.313  0.00  0.00    +0.000 A 
ATOM     21  H   UNL     1      52.892   3.248  17.342  0.00  0.00    +0.000 HD
ENDBRANCH  10  11
BRANCH  10  23
ATOM     22  C   UNL     1      49.245   7.143  19.223  0.00  0.00    +0.000 C 
ATOM     23  C   UNL     1      48.719   7.718  17.910  0.00  0.00    +0.000 C 
ENDBRANCH  10  23
ENDBRANCH   8  10
ENDBRANCH   7   8
ENDBRANCH   1   7
BRANCH   4  24
ATOM     24  C   UNL     1      43.957   3.908  11.607  0.00  0.00    +0.000 C 
BRANCH  24  25
ATOM     25  O   UNL     1      42.722   4.263  12.240  0.00  0.00    +0.000 OA
ATOM     26  H   UNL     1      42.716   3.797  13.096  0.00  0.00    +0.000 HD
ENDBRANCH  24  25
BRANCH  24  27
ATOM     27  C   UNL     1      43.949   4.343  10.124  0.00  0.00    +0.000 C 
BRANCH  27  28
ATOM     28  C   UNL     1      44.932   3.694   9.185  0.00  0.00    +0.000 A 
ATOM     29  C   UNL     1      45.042   2.294   9.208  0.00  0.00    +0.000 A 
ATOM     30  C   UNL     1      45.935   1.634   8.369  0.00  0.00    +0.000 A 
ATOM     31  C   UNL     1      46.729   2.364   7.479  0.00  0.00    +0.000 A 
ATOM     32  C   UNL     1      46.587   3.757   7.423  0.00  0.00    +0.000 A 
ATOM     33  C   UNL     1      45.691   4.415   8.264  0.00  0.00    +0.000 A 
BRANCH  31  34
ATOM     34  C   UNL     1      47.743   1.675   6.612  0.00  0.00    +0.000 C 
BRANCH  34  35
ATOM     35  O   UNL     1      48.789   2.568   6.257  0.00  0.00    +0.000 OA
ATOM     36  H   UNL     1      49.048   2.350   5.345  0.00  0.00    +0.000 HD
ENDBRANCH  34  35
ENDBRANCH  31  34
ENDBRANCH  27  28
ENDBRANCH  24  27
ENDBRANCH   4  24
TORSDOF 11
ENDMDL
MODEL 5
REMARK VINA RESULT:    -8.018      1.820      2.162
REMARK INTER + INTRA:         -13.933
REMARK INTER:                 -12.613
REMARK INTRA:                  -1.320
REMARK UNBOUND:                -1.228
REMARK  Name = 
REMARK  12 active torsions:
REMARK  status: ('A' for Active; 'I' for Inactive)
REMARK    1  A    between atoms: C_1  and  C_2
REMARK    2  A    between atoms: C_2  and  C_3
REMARK    3  A    between atoms: C_3  and  N_4
REMARK    4  A    between atoms: C_3  and  C_23
REMARK    5  A    between atoms: N_4  and  C_5
REMARK    6  A    between atoms: C_5  and  C_6
REMARK    7  A    between atoms: C_9  and  C_10
REMARK    8  A    between atoms: C_10  and  O_11
REMARK    9  A    between atoms: C_10  and  C_12
REMARK   10  A    between atoms: C_12  and  C_13
REMARK   11  A    between atoms: C_16  and  C_17
REMARK   12  A    between atoms: C_17  and  O_18
REMARK                            x       y       z     vdW  Elec       q    Type
REMARK                         _______ _______ _______ _____ _____    ______ ____
ROOT
ATOM      1  C   UNL     1      47.124   6.029  13.269  0.00  0.00    +0.000 A 
ATOM      2  C   UNL     1      46.624   4.844  13.814  0.00  0.00    +0.000 A 
ATOM      3  C   UNL     1      45.486   4.257  13.256  0.00  0.00    +0.000 A 
ATOM      4  C   UNL     1      44.890   4.869  12.155  0.00  0.00    +0.000 A 
ATOM      5  N   UNL     1      45.344   6.046  11.652  0.00  0.00    +0.000 NA
ATOM      6  C   UNL     1      46.443   6.580  12.194  0.00  0.00    +0.000 A 
ENDROOT
BRANCH   1   7
ATOM      7  C   UNL     1      48.270   6.794  13.854  0.00  0.00    +0.000 C 
BRANCH   7   8
ATOM      8  N   UNL     1      48.871   6.179  15.033  0.00  0.00    +0.000 NA
ATOM      9  H   UNL     1      49.493   5.407  14.778  0.00  0.00    +0.000 HD
BRANCH   8  10
ATOM     10  C   UNL     1      49.615   7.181  15.807  0.00  0.00    +0.000 C 
BRANCH  10  11
ATOM     11  C   UNL     1      50.987   6.660  16.209  0.00  0.00    +0.000 A 
ATOM     12  C   UNL     1      52.154   7.317  15.843  0.00  0.00    +0.000 A 
ATOM     13  S   UNL     1      53.567   6.612  16.486  0.00  0.00    +0.000 S 
ATOM     14  C   UNL     1      52.667   5.416  17.293  0.00  0.00    +0.000 A 
ATOM     15  N   UNL     1      53.269   4.532  18.132  0.00  0.00    +0.000 NA
ATOM     16  C   UNL     1      52.457   3.699  18.694  0.00  0.00    +0.000 A 
ATOM     17  N   UNL     1      51.108   3.632  18.444  0.00  0.00    +0.000 N 
ATOM     18  C   UNL     1      50.484   4.417  17.499  0.00  0.00    +0.000 A 
ATOM     19  O   UNL     1      49.345   4.185  17.108  0.00  0.00    +0.000 OA
ATOM     20  C   UNL     1      51.321   5.482  16.978  0.00  0.00    +0.000 A 
ATOM     21  H   UNL     1      50.553   2.895  18.853  0.00  0.00    +0.000 HD
ENDBRANCH  10  11
BRANCH  10  23
ATOM     22  C   UNL     1      48.288   9.140  16.748  0.00  0.00    +0.000 C 
ATOM     23  C   UNL     1      48.761   7.706  16.971  0.00  0.00    +0.000 C 
ENDBRANCH  10  23
ENDBRANCH   8  10
ENDBRANCH   7   8
ENDBRANCH   1   7
BRANCH   4  24
ATOM     24  C   UNL     1      43.669   4.272  11.481  0.00  0.00    +0.000 C 
BRANCH  24  25
ATOM     25  O   UNL     1      42.493   4.866  12.044  0.00  0.00    +0.000 OA
ATOM     26  H   UNL     1      41.922   5.097  11.289  0.00  0.00    +0.000 HD
ENDBRANCH  24  25
BRANCH  24  27
ATOM     27  C   UNL     1      43.749   4.560   9.965  0.00  0.00    +0.000 C 
BRANCH  27  28
ATOM     28  C   UNL     1      44.744   3.785   9.142  0.00  0.00    +0.000 A 
ATOM     29  C   UNL     1      44.784   2.390   9.298  0.00  0.00    +0.000 A 
ATOM     30  C   UNL     1      45.685   1.616   8.571  0.00  0.00    +0.000 A 
ATOM     31  C   UNL     1      46.556   2.224   7.663  0.00  0.00    +0.000 A 
ATOM     32  C   UNL     1      46.485   3.611   7.473  0.00  0.00    +0.000 A 
ATOM     33  C   UNL     1      45.582   4.383   8.202  0.00  0.00    +0.000 A 
BRANCH  31  34
ATOM     34  C   UNL     1      47.577   1.414   6.917  0.00  0.00    +0.000 C 
BRANCH  34  35
ATOM     35  O   UNL     1      48.651   2.235   6.484  0.00  0.00    +0.000 OA
ATOM     36  H   UNL     1      49.460   1.880   6.892  0.00  0.00    +0.000 HD
ENDBRANCH  34  35
ENDBRANCH  31  34
ENDBRANCH  27  28
ENDBRANCH  24  27
ENDBRANCH   4  24
TORSDOF 11
ENDMDL
MODEL 6
REMARK VINA RESULT:    -7.901      2.990      3.909
REMARK INTER + INTRA:         -13.747
REMARK INTER:                 -12.215
REMARK INTRA:                  -1.532
REMARK UNBOUND:                -1.228
REMARK  Name = 
REMARK  12 active torsions:
REMARK  status: ('A' for Active; 'I' for Inactive)
REMARK    1  A    between atoms: C_1  and  C_2
REMARK    2  A    between atoms: C_2  and  C_3
REMARK    3  A    between atoms: C_3  and  N_4
REMARK    4  A    between atoms: C_3  and  C_23
REMARK    5  A    between atoms: N_4  and  C_5
REMARK    6  A    between atoms: C_5  and  C_6
REMARK    7  A    between atoms: C_9  and  C_10
REMARK    8  A    between atoms: C_10  and  O_11
REMARK    9  A    between atoms: C_10  and  C_12
REMARK   10  A    between atoms: C_12  and  C_13
REMARK   11  A    between atoms: C_16  and  C_17
REMARK   12  A    between atoms: C_17  and  O_18
REMARK                            x       y       z     vdW  Elec       q    Type
REMARK                         _______ _______ _______ _____ _____    ______ ____
ROOT
ATOM      1  C   UNL     1      46.908   6.760  13.126  0.00  0.00    +0.000 A 
ATOM      2  C   UNL     1      46.977   5.395  13.415  0.00  0.00    +0.000 A 
ATOM      3  C   UNL     1      45.974   4.542  12.948  0.00  0.00    +0.000 A 
ATOM      4  C   UNL     1      44.937   5.082  12.191  0.00  0.00    +0.000 A 
ATOM      5  N   UNL     1      44.840   6.414  11.948  0.00  0.00    +0.000 NA
ATOM      6  C   UNL     1      45.820   7.208  12.393  0.00  0.00    +0.000 A 
ENDROOT
BRANCH   1   7
ATOM      7  C   UNL     1      47.869   7.773  13.665  0.00  0.00    +0.000 C 
BRANCH   7   8
ATOM      8  N   UNL     1      47.907   7.860  15.121  0.00  0.00    +0.000 NA
ATOM      9  H   UNL     1      47.032   7.532  15.539  0.00  0.00    +0.000 HD
BRANCH   8  10
ATOM     10  C   UNL     1      49.032   7.078  15.649  0.00  0.00    +0.000 C 
BRANCH  10  11
ATOM     11  C   UNL     1      48.613   6.256  16.858  0.00  0.00    +0.000 A 
ATOM     12  C   UNL     1      48.614   4.867  16.834  0.00  0.00    +0.000 A 
ATOM     13  S   UNL     1      48.205   4.156  18.329  0.00  0.00    +0.000 S 
ATOM     14  C   UNL     1      48.031   5.679  19.066  0.00  0.00    +0.000 A 
ATOM     15  N   UNL     1      47.789   5.788  20.400  0.00  0.00    +0.000 NA
ATOM     16  C   UNL     1      47.707   7.006  20.824  0.00  0.00    +0.000 A 
ATOM     17  N   UNL     1      47.786   8.120  20.024  0.00  0.00    +0.000 N 
ATOM     18  C   UNL     1      47.892   8.048  18.652  0.00  0.00    +0.000 A 
ATOM     19  O   UNL     1      47.713   9.025  17.933  0.00  0.00    +0.000 OA
ATOM     20  C   UNL     1      48.166   6.712  18.155  0.00  0.00    +0.000 A 
ATOM     21  H   UNL     1      47.622   9.037  20.415  0.00  0.00    +0.000 HD
ENDBRANCH  10  11
BRANCH  10  23
ATOM     22  C   UNL     1      51.574   7.235  15.690  0.00  0.00    +0.000 C 
ATOM     23  C   UNL     1      50.254   7.980  15.879  0.00  0.00    +0.000 C 
ENDBRANCH  10  23
ENDBRANCH   8  10
ENDBRANCH   7   8
ENDBRANCH   1   7
BRANCH   4  24
ATOM     24  C   UNL     1      43.830   4.210  11.628  0.00  0.00    +0.000 C 
BRANCH  24  25
ATOM     25  O   UNL     1      42.592   4.575  12.250  0.00  0.00    +0.000 OA
ATOM     26  H   UNL     1      42.780   4.640  13.204  0.00  0.00    +0.000 HD
ENDBRANCH  24  25
BRANCH  24  27
ATOM     27  C   UNL     1      43.753   4.430  10.100  0.00  0.00    +0.000 C 
BRANCH  27  28
ATOM     28  C   UNL     1      44.782   3.758   9.230  0.00  0.00    +0.000 A 
ATOM     29  C   UNL     1      44.881   2.358   9.286  0.00  0.00    +0.000 A 
ATOM     30  C   UNL     1      45.815   1.677   8.510  0.00  0.00    +0.000 A 
ATOM     31  C   UNL     1      46.662   2.384   7.652  0.00  0.00    +0.000 A 
ATOM     32  C   UNL     1      46.533   3.777   7.561  0.00  0.00    +0.000 A 
ATOM     33  C   UNL     1      45.596   4.456   8.338  0.00  0.00    +0.000 A 
BRANCH  31  34
ATOM     34  C   UNL     1      47.718   1.673   6.856  0.00  0.00    +0.000 C 
BRANCH  34  35
ATOM     35  O   UNL     1      48.699   2.588   6.392  0.00  0.00    +0.000 OA
ATOM     36  H   UNL     1      48.897   2.346   5.471  0.00  0.00    +0.000 HD
ENDBRANCH  34  35
ENDBRANCH  31  34
ENDBRANCH  27  28
ENDBRANCH  24  27
ENDBRANCH   4  24
TORSDOF 11
ENDMDL
MODEL 7
REMARK VINA RESULT:    -7.815      2.393      3.412
REMARK INTER + INTRA:         -13.611
REMARK INTER:                 -12.254
REMARK INTRA:                  -1.357
REMARK UNBOUND:                -1.228
REMARK  Name = 
REMARK  12 active torsions:
REMARK  status: ('A' for Active; 'I' for Inactive)
REMARK    1  A    between atoms: C_1  and  C_2
REMARK    2  A    between atoms: C_2  and  C_3
REMARK    3  A    between atoms: C_3  and  N_4
REMARK    4  A    between atoms: C_3  and  C_23
REMARK    5  A    between atoms: N_4  and  C_5
REMARK    6  A    between atoms: C_5  and  C_6
REMARK    7  A    between atoms: C_9  and  C_10
REMARK    8  A    between atoms: C_10  and  O_11
REMARK    9  A    between atoms: C_10  and  C_12
REMARK   10  A    between atoms: C_12  and  C_13
REMARK   11  A    between atoms: C_16  and  C_17
REMARK   12  A    between atoms: C_17  and  O_18
REMARK                            x       y       z     vdW  Elec       q    Type
REMARK                         _______ _______ _______ _____ _____    ______ ____
ROOT
ATOM      1  C   UNL     1      46.786   5.164  13.673  0.00  0.00    +0.000 A 
ATOM      2  C   UNL     1      46.665   3.811  13.347  0.00  0.00    +0.000 A 
ATOM      3  C   UNL     1      45.613   3.393  12.529  0.00  0.00    +0.000 A 
ATOM      4  C   UNL     1      44.720   4.348  12.047  0.00  0.00    +0.000 A 
ATOM      5  N   UNL     1      44.806   5.657  12.400  0.00  0.00    +0.000 NA
ATOM      6  C   UNL     1      45.830   6.034  13.172  0.00  0.00    +0.000 A 
ENDROOT
BRANCH   1   7
ATOM      7  C   UNL     1      47.810   5.701  14.624  0.00  0.00    +0.000 C 
BRANCH   7   8
ATOM      8  N   UNL     1      48.227   4.762  15.661  0.00  0.00    +0.000 NA
ATOM      9  H   UNL     1      49.182   4.431  15.505  0.00  0.00    +0.000 HD
BRANCH   8  10
ATOM     10  C   UNL     1      48.129   5.388  16.985  0.00  0.00    +0.000 C 
BRANCH  10  11
ATOM     11  C   UNL     1      49.461   5.984  17.413  0.00  0.00    +0.000 A 
ATOM     12  C   UNL     1      50.651   5.278  17.291  0.00  0.00    +0.000 A 
ATOM     13  S   UNL     1      52.029   6.176  17.738  0.00  0.00    +0.000 S 
ATOM     14  C   UNL     1      51.087   7.548  18.091  0.00  0.00    +0.000 A 
ATOM     15  N   UNL     1      51.668   8.729  18.432  0.00  0.00    +0.000 NA
ATOM     16  C   UNL     1      50.830   9.687  18.645  0.00  0.00    +0.000 A 
ATOM     17  N   UNL     1      49.463   9.555  18.609  0.00  0.00    +0.000 N 
ATOM     18  C   UNL     1      48.836   8.345  18.404  0.00  0.00    +0.000 A 
ATOM     19  O   UNL     1      47.638   8.188  18.617  0.00  0.00    +0.000 OA
ATOM     20  C   UNL     1      49.732   7.284  17.984  0.00  0.00    +0.000 A 
ATOM     21  H   UNL     1      48.871  10.328  18.877  0.00  0.00    +0.000 HD
ENDBRANCH  10  11
BRANCH  10  23
ATOM     22  C   UNL     1      47.307   3.017  17.415  0.00  0.00    +0.000 C 
ATOM     23  C   UNL     1      47.507   4.414  17.997  0.00  0.00    +0.000 C 
ENDBRANCH  10  23
ENDBRANCH   8  10
ENDBRANCH   7   8
ENDBRANCH   1   7
BRANCH   4  24
ATOM     24  C   UNL     1      43.572   3.969  11.131  0.00  0.00    +0.000 C 
BRANCH  24  25
ATOM     25  O   UNL     1      42.377   4.604  11.600  0.00  0.00    +0.000 OA
ATOM     26  H   UNL     1      41.668   3.941  11.509  0.00  0.00    +0.000 HD
ENDBRANCH  24  25
BRANCH  24  27
ATOM     27  C   UNL     1      43.907   4.437   9.697  0.00  0.00    +0.000 C 
BRANCH  27  28
ATOM     28  C   UNL     1      44.938   3.665   8.916  0.00  0.00    +0.000 A 
ATOM     29  C   UNL     1      44.944   2.266   9.034  0.00  0.00    +0.000 A 
ATOM     30  C   UNL     1      45.874   1.495   8.343  0.00  0.00    +0.000 A 
ATOM     31  C   UNL     1      46.811   2.110   7.509  0.00  0.00    +0.000 A 
ATOM     32  C   UNL     1      46.777   3.503   7.354  0.00  0.00    +0.000 A 
ATOM     33  C   UNL     1      45.844   4.272   8.047  0.00  0.00    +0.000 A 
BRANCH  31  34
ATOM     34  C   UNL     1      47.863   1.301   6.806  0.00  0.00    +0.000 C 
BRANCH  34  35
ATOM     35  O   UNL     1      48.317   1.972   5.640  0.00  0.00    +0.000 OA
ATOM     36  H   UNL     1      48.253   1.337   4.906  0.00  0.00    +0.000 HD
ENDBRANCH  34  35
ENDBRANCH  31  34
ENDBRANCH  27  28
ENDBRANCH  24  27
ENDBRANCH   4  24
TORSDOF 11
ENDMDL
MODEL 8
REMARK VINA RESULT:    -7.564      1.905      2.439
REMARK INTER + INTRA:         -13.213
REMARK INTER:                 -12.376
REMARK INTRA:                  -0.837
REMARK UNBOUND:                -1.228
REMARK  Name = 
REMARK  12 active torsions:
REMARK  status: ('A' for Active; 'I' for Inactive)
REMARK    1  A    between atoms: C_1  and  C_2
REMARK    2  A    between atoms: C_2  and  C_3
REMARK    3  A    between atoms: C_3  and  N_4
REMARK    4  A    between atoms: C_3  and  C_23
REMARK    5  A    between atoms: N_4  and  C_5
REMARK    6  A    between atoms: C_5  and  C_6
REMARK    7  A    between atoms: C_9  and  C_10
REMARK    8  A    between atoms: C_10  and  O_11
REMARK    9  A    between atoms: C_10  and  C_12
REMARK   10  A    between atoms: C_12  and  C_13
REMARK   11  A    between atoms: C_16  and  C_17
REMARK   12  A    between atoms: C_17  and  O_18
REMARK                            x       y       z     vdW  Elec       q    Type
REMARK                         _______ _______ _______ _____ _____    ______ ____
ROOT
ATOM      1  C   UNL     1      46.832   5.654  13.657  0.00  0.00    +0.000 A 
ATOM      2  C   UNL     1      46.355   6.569  12.714  0.00  0.00    +0.000 A 
ATOM      3  C   UNL     1      45.277   6.217  11.899  0.00  0.00    +0.000 A 
ATOM      4  C   UNL     1      44.697   4.961  12.064  0.00  0.00    +0.000 A 
ATOM      5  N   UNL     1      45.187   4.051  12.945  0.00  0.00    +0.000 NA
ATOM      6  C   UNL     1      46.210   4.417  13.724  0.00  0.00    +0.000 A 
ENDROOT
BRANCH   1   7
ATOM      7  C   UNL     1      48.044   5.889  14.504  0.00  0.00    +0.000 C 
BRANCH   7   8
ATOM      8  N   UNL     1      48.238   4.913  15.570  0.00  0.00    +0.000 NA
ATOM      9  H   UNL     1      49.201   4.566  15.591  0.00  0.00    +0.000 HD
BRANCH   8  10
ATOM     10  C   UNL     1      47.896   5.504  16.871  0.00  0.00    +0.000 C 
BRANCH  10  11
ATOM     11  C   UNL     1      48.963   6.486  17.328  0.00  0.00    +0.000 A 
ATOM     12  C   UNL     1      48.701   7.845  17.450  0.00  0.00    +0.000 A 
ATOM     13  S   UNL     1      50.012   8.741  18.072  0.00  0.00    +0.000 S 
ATOM     14  C   UNL     1      50.968   7.342  18.220  0.00  0.00    +0.000 A 
ATOM     15  N   UNL     1      52.196   7.391  18.800  0.00  0.00    +0.000 NA
ATOM     16  C   UNL     1      52.794   6.248  18.867  0.00  0.00    +0.000 A 
ATOM     17  N   UNL     1      52.301   5.075  18.349  0.00  0.00    +0.000 N 
ATOM     18  C   UNL     1      51.126   5.011  17.633  0.00  0.00    +0.000 A 
ATOM     19  O   UNL     1      50.820   4.026  16.970  0.00  0.00    +0.000 OA
ATOM     20  C   UNL     1      50.339   6.229  17.689  0.00  0.00    +0.000 A 
ATOM     21  H   UNL     1      52.867   4.239  18.359  0.00  0.00    +0.000 HD
ENDBRANCH  10  11
BRANCH  10  23
ATOM     22  C   UNL     1      47.393   3.034  17.237  0.00  0.00    +0.000 C 
ATOM     23  C   UNL     1      47.556   4.405  17.889  0.00  0.00    +0.000 C 
ENDBRANCH  10  23
ENDBRANCH   8  10
ENDBRANCH   7   8
ENDBRANCH   1   7
BRANCH   4  24
ATOM     24  C   UNL     1      43.505   4.524  11.233  0.00  0.00    +0.000 C 
BRANCH  24  25
ATOM     25  O   UNL     1      43.278   5.493  10.203  0.00  0.00    +0.000 OA
ATOM     26  H   UNL     1      42.404   5.284   9.826  0.00  0.00    +0.000 HD
ENDBRANCH  24  25
BRANCH  24  27
ATOM     27  C   UNL     1      43.812   3.140  10.617  0.00  0.00    +0.000 C 
BRANCH  27  28
ATOM     28  C   UNL     1      44.781   3.071   9.465  0.00  0.00    +0.000 A 
ATOM     29  C   UNL     1      45.274   1.810   9.093  0.00  0.00    +0.000 A 
ATOM     30  C   UNL     1      46.177   1.678   8.040  0.00  0.00    +0.000 A 
ATOM     31  C   UNL     1      46.593   2.808   7.331  0.00  0.00    +0.000 A 
ATOM     32  C   UNL     1      46.067   4.061   7.672  0.00  0.00    +0.000 A 
ATOM     33  C   UNL     1      45.163   4.189   8.726  0.00  0.00    +0.000 A 
BRANCH  31  34
ATOM     34  C   UNL     1      47.614   2.694   6.236  0.00  0.00    +0.000 C 
BRANCH  34  35
ATOM     35  O   UNL     1      48.357   1.491   6.366  0.00  0.00    +0.000 OA
ATOM     36  H   UNL     1      47.712   0.764   6.411  0.00  0.00    +0.000 HD
ENDBRANCH  34  35
ENDBRANCH  31  34
ENDBRANCH  27  28
ENDBRANCH  24  27
ENDBRANCH   4  24
TORSDOF 11
ENDMDL
MODEL 9
REMARK VINA RESULT:    -7.453      3.387      4.155
REMARK INTER + INTRA:         -13.038
REMARK INTER:                 -11.637
REMARK INTRA:                  -1.401
REMARK UNBOUND:                -1.228
REMARK  Name = 
REMARK  12 active torsions:
REMARK  status: ('A' for Active; 'I' for Inactive)
REMARK    1  A    between atoms: C_1  and  C_2
REMARK    2  A    between atoms: C_2  and  C_3
REMARK    3  A    between atoms: C_3  and  N_4
REMARK    4  A    between atoms: C_3  and  C_23
REMARK    5  A    between atoms: N_4  and  C_5
REMARK    6  A    between atoms: C_5  and  C_6
REMARK    7  A    between atoms: C_9  and  C_10
REMARK    8  A    between atoms: C_10  and  O_11
REMARK    9  A    between atoms: C_10  and  C_12
REMARK   10  A    between atoms: C_12  and  C_13
REMARK   11  A    between atoms: C_16  and  C_17
REMARK   12  A    between atoms: C_17  and  O_18
REMARK                            x       y       z     vdW  Elec       q    Type
REMARK                         _______ _______ _______ _____ _____    ______ ____
ROOT
ATOM      1  C   UNL     1      47.081   6.256  13.445  0.00  0.00    +0.000 A 
ATOM      2  C   UNL     1      46.135   6.583  12.470  0.00  0.00    +0.000 A 
ATOM      3  C   UNL     1      45.301   5.586  11.958  0.00  0.00    +0.000 A 
ATOM      4  C   UNL     1      45.430   4.290  12.451  0.00  0.00    +0.000 A 
ATOM      5  N   UNL     1      46.380   3.956  13.363  0.00  0.00    +0.000 NA
ATOM      6  C   UNL     1      47.156   4.932  13.848  0.00  0.00    +0.000 A 
ENDROOT
BRANCH   1   7
ATOM      7  C   UNL     1      48.091   7.223  13.981  0.00  0.00    +0.000 C 
BRANCH   7   8
ATOM      8  N   UNL     1      49.410   6.649  14.226  0.00  0.00    +0.000 NA
ATOM      9  H   UNL     1      50.072   6.902  13.487  0.00  0.00    +0.000 HD
BRANCH   8  10
ATOM     10  C   UNL     1      49.925   7.092  15.527  0.00  0.00    +0.000 C 
BRANCH  10  11
ATOM     11  C   UNL     1      51.428   7.317  15.477  0.00  0.00    +0.000 A 
ATOM     12  C   UNL     1      52.295   6.659  16.341  0.00  0.00    +0.000 A 
ATOM     13  S   UNL     1      53.941   6.987  16.040  0.00  0.00    +0.000 S 
ATOM     14  C   UNL     1      53.554   8.004  14.733  0.00  0.00    +0.000 A 
ATOM     15  N   UNL     1      54.528   8.541  13.951  0.00  0.00    +0.000 NA
ATOM     16  C   UNL     1      54.085   9.271  12.982  0.00  0.00    +0.000 A 
ATOM     17  N   UNL     1      52.761   9.561  12.762  0.00  0.00    +0.000 N 
ATOM     18  C   UNL     1      51.756   9.150  13.612  0.00  0.00    +0.000 A 
ATOM     19  O   UNL     1      50.622   9.613  13.552  0.00  0.00    +0.000 OA
ATOM     20  C   UNL     1      52.188   8.185  14.606  0.00  0.00    +0.000 A 
ATOM     21  H   UNL     1      52.498  10.213  12.038  0.00  0.00    +0.000 HD
ENDBRANCH  10  11
BRANCH  10  23
ATOM     22  C   UNL     1      48.645   6.872  17.718  0.00  0.00    +0.000 C 
ATOM     23  C   UNL     1      49.454   6.148  16.644  0.00  0.00    +0.000 C 
ENDBRANCH  10  23
ENDBRANCH   8  10
ENDBRANCH   7   8
ENDBRANCH   1   7
BRANCH   4  24
ATOM     24  C   UNL     1      44.539   3.164  11.961  0.00  0.00    +0.000 C 
BRANCH  24  25
ATOM     25  O   UNL     1      43.423   3.038  12.849  0.00  0.00    +0.000 OA
ATOM     26  H   UNL     1      42.823   3.774  12.632  0.00  0.00    +0.000 HD
ENDBRANCH  24  25
BRANCH  24  27
ATOM     27  C   UNL     1      44.059   3.498  10.531  0.00  0.00    +0.000 C 
BRANCH  27  28
ATOM     28  C   UNL     1      44.965   3.160   9.376  0.00  0.00    +0.000 A 
ATOM     29  C   UNL     1      45.458   4.217   8.593  0.00  0.00    +0.000 A 
ATOM     30  C   UNL     1      46.295   3.971   7.508  0.00  0.00    +0.000 A 
ATOM     31  C   UNL     1      46.667   2.661   7.194  0.00  0.00    +0.000 A 
ATOM     32  C   UNL     1      46.214   1.610   8.002  0.00  0.00    +0.000 A 
ATOM     33  C   UNL     1      45.375   1.859   9.088  0.00  0.00    +0.000 A 
BRANCH  31  34
ATOM     34  C   UNL     1      47.517   2.372   5.990  0.00  0.00    +0.000 C 
BRANCH  34  35
ATOM     35  O   UNL     1      48.895   2.509   6.304  0.00  0.00    +0.000 OA
ATOM     36  H   UNL     1      49.172   1.678   6.727  0.00  0.00    +0.000 HD
ENDBRANCH  34  35
ENDBRANCH  31  34
ENDBRANCH  27  28
ENDBRANCH  24  27
ENDBRANCH   4  24
TORSDOF 11
ENDMDL
