MODEL 1
REMARK VINA RESULT:    -8.520      0.000      0.000
REMARK INTER + INTRA:         -11.850
REMARK INTER:                 -11.011
REMARK INTRA:                  -0.840
REMARK UNBOUND:                -0.840
REMARK  Name = 
REMARK  5 active torsions:
REMARK  status: ('A' for Active; 'I' for Inactive)
REMARK    1  A    between atoms: C_2  and  C_3
REMARK    2  A    between atoms: C_6  and  N_7
REMARK    3  A    between atoms: N_7  and  C_8
REMARK    4  A    between atoms: C_8  and  C_9
REMARK    5  A    between atoms: C_13  and  C_14
REMARK                            x       y       z     vdW  Elec       q    Type
REMARK                         _______ _______ _______ _____ _____    ______ ____
ROOT
ATOM      1  C   UNL     1      43.971   4.874  11.322  0.00  0.00    +0.000 C 
ATOM      2  C   UNL     1      43.056   4.095  12.248  0.00  0.00    +0.000 C 
ATOM      3  C   UNL     1      42.675   5.483  11.857  0.00  0.00    +0.000 C 
ENDROOT
BRANCH   1   4
ATOM      4  C   UNL     1      45.232   5.508  11.895  0.00  0.00    +0.000 A 
ATOM      5  C   UNL     1      45.747   6.695  11.349  0.00  0.00    +0.000 A 
ATOM      6  C   UNL     1      46.765   7.396  11.986  0.00  0.00    +0.000 A 
ATOM      7  C   UNL     1      47.319   6.898  13.165  0.00  0.00    +0.000 A 
ATOM      8  C   UNL     1      46.896   5.674  13.710  0.00  0.00    +0.000 A 
ATOM      9  C   UNL     1      45.852   5.000  13.050  0.00  0.00    +0.000 A 
BRANCH   8  10
ATOM     10  C   UNL     1      47.497   5.122  14.944  0.00  0.00    +0.000 A 
ATOM     11  C   UNL     1      47.238   3.802  15.360  0.00  0.00    +0.000 A 
ATOM     12  C   UNL     1      47.798   3.288  16.534  0.00  0.00    +0.000 A 
ATOM     13  C   UNL     1      48.640   4.084  17.296  0.00  0.00    +0.000 A 
ATOM     14  F   UNL     1      49.176   3.592  18.419  0.00  0.00    +0.000 F 
ATOM     15  C   UNL     1      48.930   5.384  16.911  0.00  0.00    +0.000 A 
ATOM     16  C   UNL     1      48.357   5.900  15.746  0.00  0.00    +0.000 A 
ENDBRANCH   8  10
ENDBRANCH   1   4
BRANCH   1  17
ATOM     17  N   UNL     1      44.000   4.637   9.884  0.00  0.00    +0.000 N 
ATOM     18  H   UNL     1      43.471   5.244   9.267  0.00  0.00    +0.000 HD
BRANCH  17  22
ATOM     19  C   UNL     1      46.696   2.674   7.503  0.00  0.00    +0.000 A 
ATOM     20  C   UNL     1      46.538   4.048   7.488  0.00  0.00    +0.000 A 
ATOM     21  N   UNL     1      45.663   4.690   8.300  0.00  0.00    +0.000 NA
ATOM     22  C   UNL     1      44.926   3.928   9.143  0.00  0.00    +0.000 A 
ATOM     23  C   UNL     1      45.100   2.544   9.151  0.00  0.00    +0.000 A 
ATOM     24  N   UNL     1      45.981   1.885   8.343  0.00  0.00    +0.000 NA
BRANCH  19  26
ATOM     25  N   UNL     1      48.351   1.575   5.834  0.00  0.00    +0.000 NA
ATOM     26  C   UNL     1      47.614   2.038   6.604  0.00  0.00    +0.000 C 
ENDBRANCH  19  26
ENDBRANCH  17  22
ENDBRANCH   1  17
TORSDOF 5
ENDMDL
MODEL 2
REMARK VINA RESULT:    -8.145      2.620      3.988
REMARK INTER + INTRA:         -11.365
REMARK INTER:                 -10.426
REMARK INTRA:                  -0.939
REMARK UNBOUND:                -0.840
REMARK  Name = 
REMARK  5 active torsions:
REMARK  status: ('A' for Active; 'I' for Inactive)
REMARK    1  A    between atoms: C_2  and  C_3
REMARK    2  A    between atoms: C_6  and  N_7
REMARK    3  A    between atoms: N_7  and  C_8
REMARK    4  A    between atoms: C_8  and  C_9
REMARK    5  A    between atoms: C_13  and  C_14
REMARK                            x       y       z     vdW  Elec       q    Type
REMARK                         _______ _______ _______ _____ _____    ______ ____
ROOT
ATOM      1  C   UNL     1      43.753   5.325  11.289  0.00  0.00    +0.000 C 
ATOM      2  C   UNL     1      42.523   4.753  11.967  0.00  0.00    +0.000 C 
ATOM      3  C   UNL     1      42.567   6.213  11.665  0.00  0.00    +0.000 C 
ENDROOT
BRANCH   1   4
ATOM      4  C   UNL     1      45.002   5.580  12.123  0.00  0.00    +0.000 A 
ATOM      5  C   UNL     1      45.363   4.703  13.158  0.00  0.00    +0.000 A 
ATOM      6  C   UNL     1      46.600   4.802  13.785  0.00  0.00    +0.000 A 
ATOM      7  C   UNL     1      47.487   5.813  13.415  0.00  0.00    +0.000 A 
ATOM      8  C   UNL     1      47.143   6.765  12.442  0.00  0.00    +0.000 A 
ATOM      9  C   UNL     1      45.891   6.625  11.815  0.00  0.00    +0.000 A 
BRANCH   8  10
ATOM     10  C   UNL     1      48.065   7.860  12.063  0.00  0.00    +0.000 A 
ATOM     11  C   UNL     1      49.424   7.614  11.787  0.00  0.00    +0.000 A 
ATOM     12  C   UNL     1      50.293   8.653  11.443  0.00  0.00    +0.000 A 
ATOM     13  C   UNL     1      49.809   9.949  11.353  0.00  0.00    +0.000 A 
ATOM     14  F   UNL     1      50.642  10.944  11.023  0.00  0.00    +0.000 F 
ATOM     15  C   UNL     1      48.475  10.228  11.604  0.00  0.00    +0.000 A 
ATOM     16  C   UNL     1      47.611   9.191  11.963  0.00  0.00    +0.000 A 
ENDBRANCH   8  10
ENDBRANCH   1   4
BRANCH   1  17
ATOM     17  N   UNL     1      43.988   5.174   9.859  0.00  0.00    +0.000 N 
ATOM     18  H   UNL     1      43.720   5.921   9.226  0.00  0.00    +0.000 HD
BRANCH  17  22
ATOM     19  C   UNL     1      46.544   2.769   7.743  0.00  0.00    +0.000 A 
ATOM     20  C   UNL     1      46.534   4.147   7.624  0.00  0.00    +0.000 A 
ATOM     21  N   UNL     1      45.703   4.935   8.348  0.00  0.00    +0.000 NA
ATOM     22  C   UNL     1      44.859   4.319   9.211  0.00  0.00    +0.000 A 
ATOM     23  C   UNL     1      44.885   2.929   9.325  0.00  0.00    +0.000 A 
ATOM     24  N   UNL     1      45.719   2.123   8.605  0.00  0.00    +0.000 NA
BRANCH  19  26
ATOM     25  N   UNL     1      48.183   1.366   6.303  0.00  0.00    +0.000 NA
ATOM     26  C   UNL     1      47.421   1.976   6.933  0.00  0.00    +0.000 C 
ENDBRANCH  19  26
ENDBRANCH  17  22
ENDBRANCH   1  17
TORSDOF 5
ENDMDL
MODEL 3
REMARK VINA RESULT:    -7.521      2.300      2.892
REMARK INTER + INTRA:         -10.559
REMARK INTER:                  -9.868
REMARK INTRA:                  -0.690
REMARK UNBOUND:                -0.840
REMARK  Name = 
REMARK  5 active torsions:
REMARK  status: ('A' for Active; 'I' for Inactive)
REMARK    1  A    between atoms: C_2  and  C_3
REMARK    2  A    between atoms: C_6  and  N_7
REMARK    3  A    between atoms: N_7  and  C_8
REMARK    4  A    between atoms: C_8  and  C_9
REMARK    5  A    between atoms: C_13  and  C_14
REMARK                            x       y       z     vdW  Elec       q    Type
REMARK                         _______ _______ _______ _____ _____    ______ ____
ROOT
ATOM      1  C   UNL     1      43.951   5.292  11.238  0.00  0.00    +0.000 C 
ATOM      2  C   UNL     1      43.831   4.380  12.444  0.00  0.00    +0.000 C 
ATOM      3  C   UNL     1      42.656   5.208  12.046  0.00  0.00    +0.000 C 
ENDROOT
BRANCH   1   4
ATOM      4  C   UNL     1      44.685   6.619  11.387  0.00  0.00    +0.000 A 
ATOM      5  C   UNL     1      44.028   7.832  11.126  0.00  0.00    +0.000 A 
ATOM      6  C   UNL     1      44.612   9.050  11.457  0.00  0.00    +0.000 A 
ATOM      7  C   UNL     1      45.889   9.079  12.019  0.00  0.00    +0.000 A 
ATOM      8  C   UNL     1      46.621   7.898  12.226  0.00  0.00    +0.000 A 
ATOM      9  C   UNL     1      45.994   6.683  11.897  0.00  0.00    +0.000 A 
BRANCH   8  10
ATOM     10  C   UNL     1      47.987   7.919  12.794  0.00  0.00    +0.000 A 
ATOM     11  C   UNL     1      48.319   7.169  13.939  0.00  0.00    +0.000 A 
ATOM     12  C   UNL     1      49.608   7.202  14.479  0.00  0.00    +0.000 A 
ATOM     13  C   UNL     1      50.586   7.973  13.870  0.00  0.00    +0.000 A 
ATOM     14  F   UNL     1      51.820   8.004  14.388  0.00  0.00    +0.000 F 
ATOM     15  C   UNL     1      50.301   8.714  12.734  0.00  0.00    +0.000 A 
ATOM     16  C   UNL     1      49.009   8.691  12.204  0.00  0.00    +0.000 A 
ENDBRANCH   8  10
ENDBRANCH   1   4
BRANCH   1  17
ATOM     17  N   UNL     1      43.868   4.785   9.874  0.00  0.00    +0.000 N 
ATOM     18  H   UNL     1      43.206   5.199   9.226  0.00  0.00    +0.000 HD
BRANCH  17  22
ATOM     19  C   UNL     1      46.592   2.746   7.591  0.00  0.00    +0.000 A 
ATOM     20  C   UNL     1      46.477   4.124   7.575  0.00  0.00    +0.000 A 
ATOM     21  N   UNL     1      45.591   4.791   8.355  0.00  0.00    +0.000 NA
ATOM     22  C   UNL     1      44.799   4.049   9.166  0.00  0.00    +0.000 A 
ATOM     23  C   UNL     1      44.930   2.661   9.176  0.00  0.00    +0.000 A 
ATOM     24  N   UNL     1      45.821   1.977   8.400  0.00  0.00    +0.000 NA
BRANCH  19  26
ATOM     25  N   UNL     1      48.300   1.512   6.077  0.00  0.00    +0.000 NA
ATOM     26  C   UNL     1      47.525   2.085   6.726  0.00  0.00    +0.000 C 
ENDBRANCH  19  26
ENDBRANCH  17  22
ENDBRANCH   1  17
TORSDOF 5
ENDMDL
MODEL 4
REMARK VINA RESULT:    -7.328      4.375      8.109
REMARK INTER + INTRA:         -10.309
REMARK INTER:                  -9.882
REMARK INTRA:                  -0.427
REMARK UNBOUND:                -0.840
REMARK  Name = 
REMARK  5 active torsions:
REMARK  status: ('A' for Active; 'I' for Inactive)
REMARK    1  A    between atoms: C_2  and  C_3
REMARK    2  A    between atoms: C_6  and  N_7
REMARK    3  A    between atoms: N_7  and  C_8
REMARK    4  A    between atoms: C_8  and  C_9
REMARK    5  A    between atoms: C_13  and  C_14
REMARK                            x       y       z     vdW  Elec       q    Type
REMARK                         _______ _______ _______ _____ _____    ______ ____
ROOT
ATOM      1  C   UNL     1      45.748   5.171  13.096  0.00  0.00    +0.000 C 
ATOM      2  C   UNL     1      46.580   6.303  12.524  0.00  0.00    +0.000 C 
ATOM      3  C   UNL     1      45.160   6.569  12.898  0.00  0.00    +0.000 C 
ENDROOT
BRANCH   1   4
ATOM      4  C   UNL     1      45.178   4.124  12.148  0.00  0.00    +0.000 A 
ATOM      5  C   UNL     1      43.962   3.483  12.438  0.00  0.00    +0.000 A 
ATOM      6  C   UNL     1      43.327   2.687  11.491  0.00  0.00    +0.000 A 
ATOM      7  C   UNL     1      43.920   2.482  10.245  0.00  0.00    +0.000 A 
ATOM      8  C   UNL     1      45.174   3.034   9.934  0.00  0.00    +0.000 A 
ATOM      9  C   UNL     1      45.780   3.849  10.908  0.00  0.00    +0.000 A 
BRANCH   8  10
ATOM     10  C   UNL     1      45.826   2.798   8.627  0.00  0.00    +0.000 A 
ATOM     11  C   UNL     1      46.036   3.847   7.710  0.00  0.00    +0.000 A 
ATOM     12  C   UNL     1      46.641   3.617   6.471  0.00  0.00    +0.000 A 
ATOM     13  C   UNL     1      47.060   2.336   6.141  0.00  0.00    +0.000 A 
ATOM     14  F   UNL     1      47.639   2.117   4.954  0.00  0.00    +0.000 F 
ATOM     15  C   UNL     1      46.882   1.281   7.023  0.00  0.00    +0.000 A 
ATOM     16  C   UNL     1      46.264   1.511   8.254  0.00  0.00    +0.000 A 
ENDBRANCH   8  10
ENDBRANCH   1   4
BRANCH   1  17
ATOM     17  N   UNL     1      45.876   4.741  14.482  0.00  0.00    +0.000 N 
ATOM     18  H   UNL     1      45.124   4.214  14.914  0.00  0.00    +0.000 HD
BRANCH  17  22
ATOM     19  C   UNL     1      49.143   4.239  16.905  0.00  0.00    +0.000 A 
ATOM     20  C   UNL     1      48.188   3.256  16.714  0.00  0.00    +0.000 A 
ATOM     21  N   UNL     1      47.125   3.423  15.889  0.00  0.00    +0.000 NA
ATOM     22  C   UNL     1      47.021   4.610  15.245  0.00  0.00    +0.000 A 
ATOM     23  C   UNL     1      47.994   5.589  15.443  0.00  0.00    +0.000 A 
ATOM     24  N   UNL     1      49.072   5.433  16.266  0.00  0.00    +0.000 NA
BRANCH  19  26
ATOM     25  N   UNL     1      51.147   3.906  18.518  0.00  0.00    +0.000 NA
ATOM     26  C   UNL     1      50.233   4.026  17.811  0.00  0.00    +0.000 C 
ENDBRANCH  19  26
ENDBRANCH  17  22
ENDBRANCH   1  17
TORSDOF 5
ENDMDL
MODEL 5
REMARK VINA RESULT:    -7.091      3.960      7.542
REMARK INTER + INTRA:         -10.003
REMARK INTER:                  -9.997
REMARK INTRA:                  -0.007
REMARK UNBOUND:                -0.840
REMARK  Name = 
REMARK  5 active torsions:
REMARK  status: ('A' for Active; 'I' for Inactive)
REMARK    1  A    between atoms: C_2  and  C_3
REMARK    2  A    between atoms: C_6  and  N_7
REMARK    3  A    between atoms: N_7  and  C_8
REMARK    4  A    between atoms: C_8  and  C_9
REMARK    5  A    between atoms: C_13  and  C_14
REMARK                            x       y       z     vdW  Elec       q    Type
REMARK                         _______ _______ _______ _____ _____    ______ ____
ROOT
ATOM      1  C   UNL     1      46.351   7.429  12.287  0.00  0.00    +0.000 C 
ATOM      2  C   UNL     1      46.337   8.858  11.776  0.00  0.00    +0.000 C 
ATOM      3  C   UNL     1      45.623   8.539  13.047  0.00  0.00    +0.000 C 
ENDROOT
BRANCH   1   4
ATOM      4  C   UNL     1      45.419   6.409  11.646  0.00  0.00    +0.000 A 
ATOM      5  C   UNL     1      44.036   6.457  11.881  0.00  0.00    +0.000 A 
ATOM      6  C   UNL     1      43.155   5.672  11.145  0.00  0.00    +0.000 A 
ATOM      7  C   UNL     1      43.648   4.789  10.185  0.00  0.00    +0.000 A 
ATOM      8  C   UNL     1      45.028   4.643   9.966  0.00  0.00    +0.000 A 
ATOM      9  C   UNL     1      45.890   5.466  10.716  0.00  0.00    +0.000 A 
BRANCH   8  10
ATOM     10  C   UNL     1      45.563   3.688   8.971  0.00  0.00    +0.000 A 
ATOM     11  C   UNL     1      46.197   4.131   7.794  0.00  0.00    +0.000 A 
ATOM     12  C   UNL     1      46.689   3.225   6.851  0.00  0.00    +0.000 A 
ATOM     13  C   UNL     1      46.569   1.862   7.082  0.00  0.00    +0.000 A 
ATOM     14  F   UNL     1      47.040   0.995   6.178  0.00  0.00    +0.000 F 
ATOM     15  C   UNL     1      45.962   1.389   8.235  0.00  0.00    +0.000 A 
ATOM     16  C   UNL     1      45.458   2.296   9.169  0.00  0.00    +0.000 A 
ENDBRANCH   8  10
ENDBRANCH   1   4
BRANCH   1  17
ATOM     17  N   UNL     1      47.508   6.864  12.969  0.00  0.00    +0.000 N 
ATOM     18  H   UNL     1      48.423   7.280  12.831  0.00  0.00    +0.000 HD
BRANCH  17  22
ATOM     19  C   UNL     1      47.840   4.481  16.287  0.00  0.00    +0.000 A 
ATOM     20  C   UNL     1      48.565   5.647  16.121  0.00  0.00    +0.000 A 
ATOM     21  N   UNL     1      48.428   6.443  15.032  0.00  0.00    +0.000 NA
ATOM     22  C   UNL     1      47.541   6.050  14.086  0.00  0.00    +0.000 A 
ATOM     23  C   UNL     1      46.812   4.875  14.270  0.00  0.00    +0.000 A 
ATOM     24  N   UNL     1      46.937   4.068  15.363  0.00  0.00    +0.000 NA
BRANCH  19  26
ATOM     25  N   UNL     1      48.247   2.953  18.344  0.00  0.00    +0.000 NA
ATOM     26  C   UNL     1      48.042   3.658  17.443  0.00  0.00    +0.000 C 
ENDBRANCH  19  26
ENDBRANCH  17  22
ENDBRANCH   1  17
TORSDOF 5
ENDMDL
MODEL 6
REMARK VINA RESULT:    -7.070      4.127      7.113
REMARK INTER + INTRA:          -9.976
REMARK INTER:                  -9.257
REMARK INTRA:                  -0.719
REMARK UNBOUND:                -0.840
REMARK  Name = 
REMARK  5 active torsions:
REMARK  status: ('A' for Active; 'I' for Inactive)
REMARK    1  A    between atoms: C_2  and  C_3
REMARK    2  A    between atoms: C_6  and  N_7
REMARK    3  A    between atoms: N_7  and  C_8
REMARK    4  A    between atoms: C_8  and  C_9
REMARK    5  A    between atoms: C_13  and  C_14
REMARK                            x       y       z     vdW  Elec       q    Type
REMARK                         _______ _______ _______ _____ _____    ______ ____
ROOT
ATOM      1  C   UNL     1      43.762   5.742  11.878  0.00  0.00    +0.000 C 
ATOM      2  C   UNL     1      43.040   6.740  10.992  0.00  0.00    +0.000 C 
ATOM      3  C   UNL     1      42.281   6.062  12.084  0.00  0.00    +0.000 C 
ENDROOT
BRANCH   1   4
ATOM      4  C   UNL     1      44.021   4.338  11.348  0.00  0.00    +0.000 A 
ATOM      5  C   UNL     1      43.365   3.230  11.909  0.00  0.00    +0.000 A 
ATOM      6  C   UNL     1      43.427   1.979  11.306  0.00  0.00    +0.000 A 
ATOM      7  C   UNL     1      44.185   1.801  10.149  0.00  0.00    +0.000 A 
ATOM      8  C   UNL     1      44.924   2.858   9.592  0.00  0.00    +0.000 A 
ATOM      9  C   UNL     1      44.825   4.115  10.217  0.00  0.00    +0.000 A 
BRANCH   8  10
ATOM     10  C   UNL     1      45.755   2.674   8.381  0.00  0.00    +0.000 A 
ATOM     11  C   UNL     1      46.347   1.433   8.078  0.00  0.00    +0.000 A 
ATOM     12  C   UNL     1      47.141   1.267   6.940  0.00  0.00    +0.000 A 
ATOM     13  C   UNL     1      47.340   2.338   6.081  0.00  0.00    +0.000 A 
ATOM     14  F   UNL     1      48.101   2.179   4.992  0.00  0.00    +0.000 F 
ATOM     15  C   UNL     1      46.763   3.572   6.340  0.00  0.00    +0.000 A 
ATOM     16  C   UNL     1      45.981   3.739   7.485  0.00  0.00    +0.000 A 
ENDBRANCH   8  10
ENDBRANCH   1   4
BRANCH   1  17
ATOM     17  N   UNL     1      44.645   6.165  12.957  0.00  0.00    +0.000 N 
ATOM     18  H   UNL     1      44.402   5.947  13.918  0.00  0.00    +0.000 HD
BRANCH  17  22
ATOM     19  C   UNL     1      48.559   7.318  12.567  0.00  0.00    +0.000 A 
ATOM     20  C   UNL     1      47.495   8.139  12.240  0.00  0.00    +0.000 A 
ATOM     21  N   UNL     1      46.204   7.758  12.398  0.00  0.00    +0.000 NA
ATOM     22  C   UNL     1      45.980   6.517  12.894  0.00  0.00    +0.000 A 
ATOM     23  C   UNL     1      47.063   5.702  13.226  0.00  0.00    +0.000 A 
ATOM     24  N   UNL     1      48.367   6.075  13.076  0.00  0.00    +0.000 NA
BRANCH  19  26
ATOM     25  N   UNL     1      50.976   8.162  12.148  0.00  0.00    +0.000 NA
ATOM     26  C   UNL     1      49.907   7.755  12.354  0.00  0.00    +0.000 C 
ENDBRANCH  19  26
ENDBRANCH  17  22
ENDBRANCH   1  17
TORSDOF 5
ENDMDL
MODEL 7
REMARK VINA RESULT:    -6.589      4.032      7.522
REMARK INTER + INTRA:          -9.355
REMARK INTER:                  -9.275
REMARK INTRA:                  -0.080
REMARK UNBOUND:                -0.840
REMARK  Name = 
REMARK  5 active torsions:
REMARK  status: ('A' for Active; 'I' for Inactive)
REMARK    1  A    between atoms: C_2  and  C_3
REMARK    2  A    between atoms: C_6  and  N_7
REMARK    3  A    between atoms: N_7  and  C_8
REMARK    4  A    between atoms: C_8  and  C_9
REMARK    5  A    between atoms: C_13  and  C_14
REMARK                            x       y       z     vdW  Elec       q    Type
REMARK                         _______ _______ _______ _____ _____    ______ ____
ROOT
ATOM      1  C   UNL     1      45.737   7.959  11.914  0.00  0.00    +0.000 C 
ATOM      2  C   UNL     1      45.225   9.282  11.375  0.00  0.00    +0.000 C 
ATOM      3  C   UNL     1      44.907   8.904  12.783  0.00  0.00    +0.000 C 
ENDROOT
BRANCH   1   4
ATOM      4  C   UNL     1      45.009   6.677  11.531  0.00  0.00    +0.000 A 
ATOM      5  C   UNL     1      43.708   6.427  11.997  0.00  0.00    +0.000 A 
ATOM      6  C   UNL     1      42.955   5.373  11.492  0.00  0.00    +0.000 A 
ATOM      7  C   UNL     1      43.508   4.518  10.538  0.00  0.00    +0.000 A 
ATOM      8  C   UNL     1      44.832   4.675  10.098  0.00  0.00    +0.000 A 
ATOM      9  C   UNL     1      45.560   5.763  10.616  0.00  0.00    +0.000 A 
BRANCH   8  10
ATOM     10  C   UNL     1      45.439   3.757   9.109  0.00  0.00    +0.000 A 
ATOM     11  C   UNL     1      45.331   2.359   9.241  0.00  0.00    +0.000 A 
ATOM     12  C   UNL     1      45.916   1.496   8.311  0.00  0.00    +0.000 A 
ATOM     13  C   UNL     1      46.603   2.021   7.226  0.00  0.00    +0.000 A 
ATOM     14  F   UNL     1      47.163   1.193   6.336  0.00  0.00    +0.000 F 
ATOM     15  C   UNL     1      46.719   3.391   7.055  0.00  0.00    +0.000 A 
ATOM     16  C   UNL     1      46.145   4.252   7.993  0.00  0.00    +0.000 A 
ENDBRANCH   8  10
ENDBRANCH   1   4
BRANCH   1  17
ATOM     17  N   UNL     1      47.120   7.779  12.336  0.00  0.00    +0.000 N 
ATOM     18  H   UNL     1      47.853   8.321  11.891  0.00  0.00    +0.000 HD
BRANCH  17  22
ATOM     19  C   UNL     1      48.739   6.320  15.806  0.00  0.00    +0.000 A 
ATOM     20  C   UNL     1      48.807   7.653  15.445  0.00  0.00    +0.000 A 
ATOM     21  N   UNL     1      48.244   8.131  14.308  0.00  0.00    +0.000 NA
ATOM     22  C   UNL     1      47.602   7.240  13.514  0.00  0.00    +0.000 A 
ATOM     23  C   UNL     1      47.536   5.900  13.893  0.00  0.00    +0.000 A 
ATOM     24  N   UNL     1      48.094   5.407  15.037  0.00  0.00    +0.000 NA
BRANCH  19  26
ATOM     25  N   UNL     1      49.948   5.516  17.956  0.00  0.00    +0.000 NA
ATOM     26  C   UNL     1      49.376   5.858  17.004  0.00  0.00    +0.000 C 
ENDBRANCH  19  26
ENDBRANCH  17  22
ENDBRANCH   1  17
TORSDOF 5
ENDMDL
MODEL 8
REMARK VINA RESULT:    -6.507      4.635      7.883
REMARK INTER + INTRA:          -9.248
REMARK INTER:                  -8.514
REMARK INTRA:                  -0.734
REMARK UNBOUND:                -0.840
REMARK  Name = 
REMARK  5 active torsions:
REMARK  status: ('A' for Active; 'I' for Inactive)
REMARK    1  A    between atoms: C_2  and  C_3
REMARK    2  A    between atoms: C_6  and  N_7
REMARK    3  A    between atoms: N_7  and  C_8
REMARK    4  A    between atoms: C_8  and  C_9
REMARK    5  A    between atoms: C_13  and  C_14
REMARK                            x       y       z     vdW  Elec       q    Type
REMARK                         _______ _______ _______ _____ _____    ______ ____
ROOT
ATOM      1  C   UNL     1      49.053   8.245  12.556  0.00  0.00    +0.000 C 
ATOM      2  C   UNL     1      50.037   7.781  11.498  0.00  0.00    +0.000 C 
ATOM      3  C   UNL     1      49.631   9.216  11.527  0.00  0.00    +0.000 C 
ENDROOT
BRANCH   1   4
ATOM      4  C   UNL     1      47.570   7.953  12.361  0.00  0.00    +0.000 A 
ATOM      5  C   UNL     1      46.602   8.905  12.718  0.00  0.00    +0.000 A 
ATOM      6  C   UNL     1      45.269   8.743  12.355  0.00  0.00    +0.000 A 
ATOM      7  C   UNL     1      44.871   7.599  11.664  0.00  0.00    +0.000 A 
ATOM      8  C   UNL     1      45.785   6.579  11.353  0.00  0.00    +0.000 A 
ATOM      9  C   UNL     1      47.129   6.783  11.718  0.00  0.00    +0.000 A 
BRANCH   8  10
ATOM     10  C   UNL     1      45.369   5.348  10.646  0.00  0.00    +0.000 A 
ATOM     11  C   UNL     1      44.659   4.326  11.305  0.00  0.00    +0.000 A 
ATOM     12  C   UNL     1      44.279   3.159  10.636  0.00  0.00    +0.000 A 
ATOM     13  C   UNL     1      44.589   3.008   9.292  0.00  0.00    +0.000 A 
ATOM     14  F   UNL     1      44.224   1.890   8.652  0.00  0.00    +0.000 F 
ATOM     15  C   UNL     1      45.275   3.998   8.606  0.00  0.00    +0.000 A 
ATOM     16  C   UNL     1      45.667   5.157   9.281  0.00  0.00    +0.000 A 
ENDBRANCH   8  10
ENDBRANCH   1   4
BRANCH   1  17
ATOM     17  N   UNL     1      49.456   8.486  13.935  0.00  0.00    +0.000 N 
ATOM     18  H   UNL     1      49.282   9.392  14.356  0.00  0.00    +0.000 HD
BRANCH  17  22
ATOM     19  C   UNL     1      50.476   5.725  16.787  0.00  0.00    +0.000 A 
ATOM     20  C   UNL     1      51.363   6.668  16.299  0.00  0.00    +0.000 A 
ATOM     21  N   UNL     1      51.008   7.594  15.375  0.00  0.00    +0.000 NA
ATOM     22  C   UNL     1      49.729   7.566  14.930  0.00  0.00    +0.000 A 
ATOM     23  C   UNL     1      48.844   6.614  15.435  0.00  0.00    +0.000 A 
ATOM     24  N   UNL     1      49.187   5.679  16.368  0.00  0.00    +0.000 NA
BRANCH  19  26
ATOM     25  N   UNL     1      51.317   3.955  18.487  0.00  0.00    +0.000 NA
ATOM     26  C   UNL     1      50.908   4.747  17.742  0.00  0.00    +0.000 C 
ENDBRANCH  19  26
ENDBRANCH  17  22
ENDBRANCH   1  17
TORSDOF 5
ENDMDL
MODEL 9
REMARK VINA RESULT:    -6.444      4.550      8.074
REMARK INTER + INTRA:          -9.167
REMARK INTER:                  -8.354
REMARK INTRA:                  -0.813
REMARK UNBOUND:                -0.840
REMARK  Name = 
REMARK  5 active torsions:
REMARK  status: ('A' for Active; 'I' for Inactive)
REMARK    1  A    between atoms: C_2  and  C_3
REMARK    2  A    between atoms: C_6  and  N_7
REMARK    3  A    between atoms: N_7  and  C_8
REMARK    4  A    between atoms: C_8  and  C_9
REMARK    5  A    between atoms: C_13  and  C_14
REMARK                            x       y       z     vdW  Elec       q    Type
REMARK                         _______ _______ _______ _____ _____    ______ ____
ROOT
ATOM      1  C   UNL     1      49.078   8.279  12.618  0.00  0.00    +0.000 C 
ATOM      2  C   UNL     1      50.074   7.687  11.639  0.00  0.00    +0.000 C 
ATOM      3  C   UNL     1      49.671   9.115  11.483  0.00  0.00    +0.000 C 
ENDROOT
BRANCH   1   4
ATOM      4  C   UNL     1      47.598   7.965  12.443  0.00  0.00    +0.000 A 
ATOM      5  C   UNL     1      46.620   8.898  12.823  0.00  0.00    +0.000 A 
ATOM      6  C   UNL     1      45.284   8.719  12.480  0.00  0.00    +0.000 A 
ATOM      7  C   UNL     1      44.894   7.575  11.783  0.00  0.00    +0.000 A 
ATOM      8  C   UNL     1      45.820   6.572  11.449  0.00  0.00    +0.000 A 
ATOM      9  C   UNL     1      47.165   6.795  11.796  0.00  0.00    +0.000 A 
BRANCH   8  10
ATOM     10  C   UNL     1      45.412   5.342  10.736  0.00  0.00    +0.000 A 
ATOM     11  C   UNL     1      45.639   5.182   9.355  0.00  0.00    +0.000 A 
ATOM     12  C   UNL     1      45.240   4.023   8.684  0.00  0.00    +0.000 A 
ATOM     13  C   UNL     1      44.624   3.000   9.390  0.00  0.00    +0.000 A 
ATOM     14  F   UNL     1      44.242   1.890   8.746  0.00  0.00    +0.000 F 
ATOM     15  C   UNL     1      44.395   3.115  10.752  0.00  0.00    +0.000 A 
ATOM     16  C   UNL     1      44.781   4.281  11.418  0.00  0.00    +0.000 A 
ENDBRANCH   8  10
ENDBRANCH   1   4
BRANCH   1  17
ATOM     17  N   UNL     1      49.465   8.690  13.961  0.00  0.00    +0.000 N 
ATOM     18  H   UNL     1      49.693   9.663  14.140  0.00  0.00    +0.000 HD
BRANCH  17  22
ATOM     19  C   UNL     1      48.696   6.602  17.402  0.00  0.00    +0.000 A 
ATOM     20  C   UNL     1      49.175   6.006  16.250  0.00  0.00    +0.000 A 
ATOM     21  N   UNL     1      49.452   6.710  15.125  0.00  0.00    +0.000 NA
ATOM     22  C   UNL     1      49.237   8.047  15.163  0.00  0.00    +0.000 A 
ATOM     23  C   UNL     1      48.760   8.636  16.333  0.00  0.00    +0.000 A 
ATOM     24  N   UNL     1      48.481   7.940  17.474  0.00  0.00    +0.000 NA
BRANCH  19  26
ATOM     25  N   UNL     1      48.205   5.148  19.494  0.00  0.00    +0.000 NA
ATOM     26  C   UNL     1      48.390   5.811  18.557  0.00  0.00    +0.000 C 
ENDBRANCH  19  26
ENDBRANCH  17  22
ENDBRANCH   1  17
TORSDOF 5
ENDMDL
