MODEL 1
REMARK VINA RESULT:    -7.759      0.000      0.000
REMARK INTER + INTRA:         -12.072
REMARK INTER:                 -10.934
REMARK INTRA:                  -1.138
REMARK UNBOUND:                -1.138
REMARK  Name = 
REMARK  7 active torsions:
REMARK  status: ('A' for Active; 'I' for Inactive)
REMARK    1  A    between atoms: C_2  and  C_3
REMARK    2  A    between atoms: C_7  and  C_8
REMARK    3  A    between atoms: N_10  and  C_11
REMARK    4  A    between atoms: C_11  and  C_12
REMARK    5  A    between atoms: C_15  and  C_16
REMARK    6  A    between atoms: C_16  and  N_17
REMARK    7  A    between atoms: C_18  and  C_20
REMARK                            x       y       z     vdW  Elec       q    Type
REMARK                         _______ _______ _______ _____ _____    ______ ____
ROOT
ATOM      1  C   UNL     1      45.223   6.916  11.924  0.00  0.00    +0.000 A 
ATOM      2  C   UNL     1      45.187   8.310  12.052  0.00  0.00    +0.000 A 
ATOM      3  C   UNL     1      46.099   8.978  12.882  0.00  0.00    +0.000 A 
ATOM      4  C   UNL     1      47.084   8.268  13.585  0.00  0.00    +0.000 A 
ATOM      5  C   UNL     1      47.114   6.874  13.462  0.00  0.00    +0.000 A 
ATOM      6  C   UNL     1      46.200   6.217  12.634  0.00  0.00    +0.000 A 
ATOM      7  F   UNL     1      46.271   4.881  12.528  0.00  0.00    +0.000 F 
ENDROOT
BRANCH   1   8
ATOM      8  C   UNL     1      44.239   6.194  11.043  0.00  0.00    +0.000 C 
BRANCH   8  11
ATOM      9  C   UNL     1      44.817   4.136   9.800  0.00  0.00    +0.000 C 
ATOM     10  O   UNL     1      44.202   3.406  10.570  0.00  0.00    +0.000 OA
ATOM     11  N   UNL     1      44.884   5.504   9.943  0.00  0.00    +0.000 N 
ATOM     12  H   UNL     1      45.465   6.059   9.332  0.00  0.00    +0.000 HD
BRANCH   9  17
ATOM     13  C   UNL     1      46.432   1.517   7.605  0.00  0.00    +0.000 A 
ATOM     14  C   UNL     1      46.948   2.288   6.558  0.00  0.00    +0.000 A 
ATOM     15  C   UNL     1      46.784   3.675   6.565  0.00  0.00    +0.000 A 
ATOM     16  C   UNL     1      46.103   4.299   7.616  0.00  0.00    +0.000 A 
ATOM     17  C   UNL     1      45.577   3.533   8.664  0.00  0.00    +0.000 A 
ATOM     18  C   UNL     1      45.738   2.139   8.649  0.00  0.00    +0.000 A 
BRANCH  13  20
ATOM     19  N   UNL     1      46.770  -1.055   7.598  0.00  0.00    +0.000 NA
ATOM     20  C   UNL     1      46.624   0.096   7.611  0.00  0.00    +0.000 C 
ENDBRANCH  13  20
ENDBRANCH   9  17
ENDBRANCH   8  11
ENDBRANCH   1   8
BRANCH   4  21
ATOM     21  C   UNL     1      48.069   8.986  14.477  0.00  0.00    +0.000 C 
BRANCH  21  22
ATOM     22  N   UNL     1      48.240   8.309  15.738  0.00  0.00    +0.000 N 
ATOM     23  C   UNL     1      49.483   8.078  16.280  0.00  0.00    +0.000 C 
ATOM     24  O   UNL     1      50.513   8.467  15.738  0.00  0.00    +0.000 OA
ATOM     25  H   UNL     1      47.453   7.764  16.072  0.00  0.00    +0.000 HD
BRANCH  23  26
ATOM     26  C   UNL     1      49.505   7.389  17.577  0.00  0.00    +0.000 A 
ATOM     27  C   UNL     1      49.933   8.059  18.715  0.00  0.00    +0.000 A 
ATOM     28  S   UNL     1      49.862   7.109  20.133  0.00  0.00    +0.000 S 
ATOM     29  C   UNL     1      49.300   5.757  19.266  0.00  0.00    +0.000 A 
ATOM     30  N   UNL     1      49.058   4.574  19.891  0.00  0.00    +0.000 NA
ATOM     31  C   UNL     1      48.649   3.630  19.108  0.00  0.00    +0.000 A 
ATOM     32  N   UNL     1      48.453   3.763  17.760  0.00  0.00    +0.000 N 
ATOM     33  C   UNL     1      48.661   4.947  17.090  0.00  0.00    +0.000 A 
ATOM     34  O   UNL     1      48.428   5.046  15.890  0.00  0.00    +0.000 OA
ATOM     35  C   UNL     1      49.140   6.036  17.920  0.00  0.00    +0.000 A 
ATOM     36  H   UNL     1      48.112   2.995  17.203  0.00  0.00    +0.000 HD
ENDBRANCH  23  26
ENDBRANCH  21  22
ENDBRANCH   4  21
TORSDOF 7
ENDMDL
MODEL 2
REMARK VINA RESULT:    -7.744      2.525      2.973
REMARK INTER + INTRA:         -12.051
REMARK INTER:                 -11.089
REMARK INTRA:                  -0.962
REMARK UNBOUND:                -1.138
REMARK  Name = 
REMARK  7 active torsions:
REMARK  status: ('A' for Active; 'I' for Inactive)
REMARK    1  A    between atoms: C_2  and  C_3
REMARK    2  A    between atoms: C_7  and  C_8
REMARK    3  A    between atoms: N_10  and  C_11
REMARK    4  A    between atoms: C_11  and  C_12
REMARK    5  A    between atoms: C_15  and  C_16
REMARK    6  A    between atoms: C_16  and  N_17
REMARK    7  A    between atoms: C_18  and  C_20
REMARK                            x       y       z     vdW  Elec       q    Type
REMARK                         _______ _______ _______ _____ _____    ______ ____
ROOT
ATOM      1  C   UNL     1      46.261   5.019  13.611  0.00  0.00    +0.000 A 
ATOM      2  C   UNL     1      46.758   4.426  14.778  0.00  0.00    +0.000 A 
ATOM      3  C   UNL     1      47.740   5.067  15.547  0.00  0.00    +0.000 A 
ATOM      4  C   UNL     1      48.230   6.328  15.178  0.00  0.00    +0.000 A 
ATOM      5  C   UNL     1      47.739   6.917  14.007  0.00  0.00    +0.000 A 
ATOM      6  C   UNL     1      46.762   6.270  13.247  0.00  0.00    +0.000 A 
ATOM      7  F   UNL     1      46.302   6.873  12.139  0.00  0.00    +0.000 F 
ENDROOT
BRANCH   1   8
ATOM      8  C   UNL     1      45.215   4.329  12.777  0.00  0.00    +0.000 C 
BRANCH   8  11
ATOM      9  C   UNL     1      44.947   4.009  10.340  0.00  0.00    +0.000 C 
ATOM     10  O   UNL     1      43.796   4.434  10.332  0.00  0.00    +0.000 OA
ATOM     11  N   UNL     1      45.718   3.930  11.478  0.00  0.00    +0.000 N 
ATOM     12  H   UNL     1      46.632   3.502  11.453  0.00  0.00    +0.000 HD
BRANCH   9  17
ATOM     13  C   UNL     1      46.317   1.594   7.775  0.00  0.00    +0.000 A 
ATOM     14  C   UNL     1      46.643   2.447   6.714  0.00  0.00    +0.000 A 
ATOM     15  C   UNL     1      46.430   3.822   6.830  0.00  0.00    +0.000 A 
ATOM     16  C   UNL     1      45.889   4.354   8.006  0.00  0.00    +0.000 A 
ATOM     17  C   UNL     1      45.553   3.506   9.070  0.00  0.00    +0.000 A 
ATOM     18  C   UNL     1      45.762   2.124   8.945  0.00  0.00    +0.000 A 
BRANCH  13  20
ATOM     19  N   UNL     1      46.742  -0.957   7.585  0.00  0.00    +0.000 NA
ATOM     20  C   UNL     1      46.562   0.186   7.665  0.00  0.00    +0.000 C 
ENDBRANCH  13  20
ENDBRANCH   9  17
ENDBRANCH   8  11
ENDBRANCH   1   8
BRANCH   4  21
ATOM     21  C   UNL     1      49.287   7.022  16.006  0.00  0.00    +0.000 C 
BRANCH  21  22
ATOM     22  N   UNL     1      50.288   6.100  16.478  0.00  0.00    +0.000 N 
ATOM     23  C   UNL     1      50.463   5.832  17.816  0.00  0.00    +0.000 C 
ATOM     24  O   UNL     1      49.751   6.336  18.679  0.00  0.00    +0.000 OA
ATOM     25  H   UNL     1      51.038   5.874  15.833  0.00  0.00    +0.000 HD
BRANCH  23  26
ATOM     26  C   UNL     1      51.513   4.862  18.150  0.00  0.00    +0.000 A 
ATOM     27  C   UNL     1      52.677   5.284  18.778  0.00  0.00    +0.000 A 
ATOM     28  S   UNL     1      53.768   4.014  19.115  0.00  0.00    +0.000 S 
ATOM     29  C   UNL     1      52.742   2.865  18.393  0.00  0.00    +0.000 A 
ATOM     30  N   UNL     1      53.098   1.555  18.317  0.00  0.00    +0.000 NA
ATOM     31  C   UNL     1      52.230   0.798  17.731  0.00  0.00    +0.000 A 
ATOM     32  N   UNL     1      51.036   1.230  17.220  0.00  0.00    +0.000 N 
ATOM     33  C   UNL     1      50.623   2.540  17.296  0.00  0.00    +0.000 A 
ATOM     34  O   UNL     1      49.525   2.884  16.873  0.00  0.00    +0.000 OA
ATOM     35  C   UNL     1      51.570   3.437  17.929  0.00  0.00    +0.000 A 
ATOM     36  H   UNL     1      50.389   0.587  16.790  0.00  0.00    +0.000 HD
ENDBRANCH  23  26
ENDBRANCH  21  22
ENDBRANCH   4  21
TORSDOF 7
ENDMDL
MODEL 3
REMARK VINA RESULT:    -7.136      4.520      9.251
REMARK INTER + INTRA:         -11.194
REMARK INTER:                 -10.083
REMARK INTRA:                  -1.111
REMARK UNBOUND:                -1.138
REMARK  Name = 
REMARK  7 active torsions:
REMARK  status: ('A' for Active; 'I' for Inactive)
REMARK    1  A    between atoms: C_2  and  C_3
REMARK    2  A    between atoms: C_7  and  C_8
REMARK    3  A    between atoms: N_10  and  C_11
REMARK    4  A    between atoms: C_11  and  C_12
REMARK    5  A    between atoms: C_15  and  C_16
REMARK    6  A    between atoms: C_16  and  N_17
REMARK    7  A    between atoms: C_18  and  C_20
REMARK                            x       y       z     vdW  Elec       q    Type
REMARK                         _______ _______ _______ _____ _____    ______ ____
ROOT
ATOM      1  C   UNL     1      49.039   4.836  17.323  0.00  0.00    +0.000 A 
ATOM      2  C   UNL     1      49.712   5.986  16.895  0.00  0.00    +0.000 A 
ATOM      3  C   UNL     1      49.325   6.649  15.721  0.00  0.00    +0.000 A 
ATOM      4  C   UNL     1      48.239   6.189  14.962  0.00  0.00    +0.000 A 
ATOM      5  C   UNL     1      47.572   5.034  15.385  0.00  0.00    +0.000 A 
ATOM      6  C   UNL     1      47.967   4.379  16.555  0.00  0.00    +0.000 A 
ATOM      7  F   UNL     1      47.292   3.284  16.940  0.00  0.00    +0.000 F 
ENDROOT
BRANCH   1   8
ATOM      8  C   UNL     1      49.459   4.114  18.575  0.00  0.00    +0.000 C 
BRANCH   8  11
ATOM      9  C   UNL     1      51.207   2.610  17.683  0.00  0.00    +0.000 C 
ATOM     10  O   UNL     1      50.431   2.025  16.935  0.00  0.00    +0.000 OA
ATOM     11  N   UNL     1      50.829   3.644  18.510  0.00  0.00    +0.000 N 
ATOM     12  H   UNL     1      51.482   4.045  19.167  0.00  0.00    +0.000 HD
BRANCH   9  17
ATOM     13  C   UNL     1      54.211   0.319  17.831  0.00  0.00    +0.000 A 
ATOM     14  C   UNL     1      55.273   1.229  17.838  0.00  0.00    +0.000 A 
ATOM     15  C   UNL     1      55.019   2.602  17.806  0.00  0.00    +0.000 A 
ATOM     16  C   UNL     1      53.702   3.074  17.767  0.00  0.00    +0.000 A 
ATOM     17  C   UNL     1      52.633   2.169  17.752  0.00  0.00    +0.000 A 
ATOM     18  C   UNL     1      52.894   0.791  17.776  0.00  0.00    +0.000 A 
BRANCH  13  20
ATOM     19  N   UNL     1      54.671  -2.230  17.956  0.00  0.00    +0.000 NA
ATOM     20  C   UNL     1      54.472  -1.089  17.890  0.00  0.00    +0.000 C 
ENDBRANCH  13  20
ENDBRANCH   9  17
ENDBRANCH   8  11
ENDBRANCH   1   8
BRANCH   4  21
ATOM     21  C   UNL     1      47.818   6.903  13.698  0.00  0.00    +0.000 C 
BRANCH  21  22
ATOM     22  N   UNL     1      47.157   6.015  12.776  0.00  0.00    +0.000 N 
ATOM     23  C   UNL     1      46.220   6.463  11.875  0.00  0.00    +0.000 C 
ATOM     24  O   UNL     1      45.922   7.649  11.781  0.00  0.00    +0.000 OA
ATOM     25  H   UNL     1      47.188   5.025  12.997  0.00  0.00    +0.000 HD
BRANCH  23  26
ATOM     26  C   UNL     1      45.638   5.447  10.988  0.00  0.00    +0.000 A 
ATOM     27  C   UNL     1      45.772   5.565   9.611  0.00  0.00    +0.000 A 
ATOM     28  S   UNL     1      45.058   4.278   8.744  0.00  0.00    +0.000 S 
ATOM     29  C   UNL     1      44.509   3.543  10.177  0.00  0.00    +0.000 A 
ATOM     30  N   UNL     1      43.784   2.393  10.143  0.00  0.00    +0.000 NA
ATOM     31  C   UNL     1      43.421   1.956  11.303  0.00  0.00    +0.000 A 
ATOM     32  N   UNL     1      43.721   2.559  12.495  0.00  0.00    +0.000 N 
ATOM     33  C   UNL     1      44.471   3.709  12.580  0.00  0.00    +0.000 A 
ATOM     34  O   UNL     1      44.765   4.197  13.665  0.00  0.00    +0.000 OA
ATOM     35  C   UNL     1      44.890   4.254  11.302  0.00  0.00    +0.000 A 
ATOM     36  H   UNL     1      43.426   2.159  13.372  0.00  0.00    +0.000 HD
ENDBRANCH  23  26
ENDBRANCH  21  22
ENDBRANCH   4  21
TORSDOF 7
ENDMDL
MODEL 4
REMARK VINA RESULT:    -6.747      1.707      2.320
REMARK INTER + INTRA:         -10.646
REMARK INTER:                  -9.533
REMARK INTRA:                  -1.113
REMARK UNBOUND:                -1.138
REMARK  Name = 
REMARK  7 active torsions:
REMARK  status: ('A' for Active; 'I' for Inactive)
REMARK    1  A    between atoms: C_2  and  C_3
REMARK    2  A    between atoms: C_7  and  C_8
REMARK    3  A    between atoms: N_10  and  C_11
REMARK    4  A    between atoms: C_11  and  C_12
REMARK    5  A    between atoms: C_15  and  C_16
REMARK    6  A    between atoms: C_16  and  N_17
REMARK    7  A    between atoms: C_18  and  C_20
REMARK                            x       y       z     vdW  Elec       q    Type
REMARK                         _______ _______ _______ _____ _____    ______ ____
ROOT
ATOM      1  C   UNL     1      46.080   7.987  12.161  0.00  0.00    +0.000 A 
ATOM      2  C   UNL     1      46.900   6.958  12.637  0.00  0.00    +0.000 A 
ATOM      3  C   UNL     1      48.021   7.243  13.432  0.00  0.00    +0.000 A 
ATOM      4  C   UNL     1      48.331   8.564  13.787  0.00  0.00    +0.000 A 
ATOM      5  C   UNL     1      47.515   9.593  13.303  0.00  0.00    +0.000 A 
ATOM      6  C   UNL     1      46.402   9.299  12.511  0.00  0.00    +0.000 A 
ATOM      7  F   UNL     1      45.633  10.311  12.080  0.00  0.00    +0.000 F 
ENDROOT
BRANCH   1   8
ATOM      8  C   UNL     1      44.883   7.687  11.299  0.00  0.00    +0.000 C 
BRANCH   8  11
ATOM      9  C   UNL     1      44.201   5.381  10.720  0.00  0.00    +0.000 C 
ATOM     10  O   UNL     1      43.259   5.380  11.505  0.00  0.00    +0.000 OA
ATOM     11  N   UNL     1      45.040   6.459  10.543  0.00  0.00    +0.000 N 
ATOM     12  H   UNL     1      45.850   6.391   9.945  0.00  0.00    +0.000 HD
BRANCH   9  17
ATOM     13  C   UNL     1      45.586   3.166   7.988  0.00  0.00    +0.000 A 
ATOM     14  C   UNL     1      45.167   1.896   8.399  0.00  0.00    +0.000 A 
ATOM     15  C   UNL     1      44.416   1.751   9.568  0.00  0.00    +0.000 A 
ATOM     16  C   UNL     1      44.081   2.874  10.333  0.00  0.00    +0.000 A 
ATOM     17  C   UNL     1      44.503   4.148   9.932  0.00  0.00    +0.000 A 
ATOM     18  C   UNL     1      45.264   4.287   8.761  0.00  0.00    +0.000 A 
BRANCH  13  20
ATOM     19  N   UNL     1      46.928   3.423   5.783  0.00  0.00    +0.000 NA
ATOM     20  C   UNL     1      46.334   3.316   6.774  0.00  0.00    +0.000 C 
ENDBRANCH  13  20
ENDBRANCH   9  17
ENDBRANCH   8  11
ENDBRANCH   1   8
BRANCH   4  21
ATOM     21  C   UNL     1      49.536   8.873  14.645  0.00  0.00    +0.000 C 
BRANCH  21  22
ATOM     22  N   UNL     1      49.537   8.104  15.864  0.00  0.00    +0.000 N 
ATOM     23  C   UNL     1      48.714   8.411  16.921  0.00  0.00    +0.000 C 
ATOM     24  O   UNL     1      47.907   9.334  16.873  0.00  0.00    +0.000 OA
ATOM     25  H   UNL     1      50.347   7.516  16.029  0.00  0.00    +0.000 HD
BRANCH  23  26
ATOM     26  C   UNL     1      48.813   7.533  18.094  0.00  0.00    +0.000 A 
ATOM     27  C   UNL     1      49.044   8.074  19.352  0.00  0.00    +0.000 A 
ATOM     28  S   UNL     1      49.098   6.905  20.597  0.00  0.00    +0.000 S 
ATOM     29  C   UNL     1      48.859   5.634  19.491  0.00  0.00    +0.000 A 
ATOM     30  N   UNL     1      48.830   4.339  19.906  0.00  0.00    +0.000 NA
ATOM     31  C   UNL     1      48.657   3.478  18.958  0.00  0.00    +0.000 A 
ATOM     32  N   UNL     1      48.501   3.794  17.635  0.00  0.00    +0.000 N 
ATOM     33  C   UNL     1      48.499   5.090  17.173  0.00  0.00    +0.000 A 
ATOM     34  O   UNL     1      48.308   5.341  15.988  0.00  0.00    +0.000 OA
ATOM     35  C   UNL     1      48.711   6.097  18.196  0.00  0.00    +0.000 A 
ATOM     36  H   UNL     1      48.349   3.078  16.941  0.00  0.00    +0.000 HD
ENDBRANCH  23  26
ENDBRANCH  21  22
ENDBRANCH   4  21
TORSDOF 7
ENDMDL
MODEL 5
REMARK VINA RESULT:    -6.717      3.117      3.937
REMARK INTER + INTRA:         -10.604
REMARK INTER:                  -9.637
REMARK INTRA:                  -0.967
REMARK UNBOUND:                -1.138
REMARK  Name = 
REMARK  7 active torsions:
REMARK  status: ('A' for Active; 'I' for Inactive)
REMARK    1  A    between atoms: C_2  and  C_3
REMARK    2  A    between atoms: C_7  and  C_8
REMARK    3  A    between atoms: N_10  and  C_11
REMARK    4  A    between atoms: C_11  and  C_12
REMARK    5  A    between atoms: C_15  and  C_16
REMARK    6  A    between atoms: C_16  and  N_17
REMARK    7  A    between atoms: C_18  and  C_20
REMARK                            x       y       z     vdW  Elec       q    Type
REMARK                         _______ _______ _______ _____ _____    ______ ____
ROOT
ATOM      1  C   UNL     1      47.641   7.566  13.424  0.00  0.00    +0.000 A 
ATOM      2  C   UNL     1      47.716   6.264  13.933  0.00  0.00    +0.000 A 
ATOM      3  C   UNL     1      48.243   6.022  15.210  0.00  0.00    +0.000 A 
ATOM      4  C   UNL     1      48.686   7.082  16.016  0.00  0.00    +0.000 A 
ATOM      5  C   UNL     1      48.619   8.382  15.502  0.00  0.00    +0.000 A 
ATOM      6  C   UNL     1      48.093   8.613  14.228  0.00  0.00    +0.000 A 
ATOM      7  F   UNL     1      48.029   9.875  13.776  0.00  0.00    +0.000 F 
ENDROOT
BRANCH   1   8
ATOM      8  C   UNL     1      47.086   7.828  12.049  0.00  0.00    +0.000 C 
BRANCH   8  11
ATOM      9  C   UNL     1      45.389   6.318  11.073  0.00  0.00    +0.000 C 
ATOM     10  O   UNL     1      44.454   7.064  11.348  0.00  0.00    +0.000 OA
ATOM     11  N   UNL     1      46.702   6.609  11.365  0.00  0.00    +0.000 N 
ATOM     12  H   UNL     1      47.432   5.933  11.193  0.00  0.00    +0.000 HD
BRANCH   9  17
ATOM     13  C   UNL     1      45.443   3.544   8.506  0.00  0.00    +0.000 A 
ATOM     14  C   UNL     1      44.691   2.547   9.136  0.00  0.00    +0.000 A 
ATOM     15  C   UNL     1      44.148   2.774  10.402  0.00  0.00    +0.000 A 
ATOM     16  C   UNL     1      44.353   3.999  11.046  0.00  0.00    +0.000 A 
ATOM     17  C   UNL     1      45.111   5.000  10.426  0.00  0.00    +0.000 A 
ATOM     18  C   UNL     1      45.661   4.764   9.157  0.00  0.00    +0.000 A 
BRANCH  13  20
ATOM     19  N   UNL     1      46.408   3.117   6.136  0.00  0.00    +0.000 NA
ATOM     20  C   UNL     1      45.978   3.319   7.195  0.00  0.00    +0.000 C 
ENDBRANCH  13  20
ENDBRANCH   9  17
ENDBRANCH   8  11
ENDBRANCH   1   8
BRANCH   4  21
ATOM     21  C   UNL     1      49.252   6.825  17.393  0.00  0.00    +0.000 C 
BRANCH  21  22
ATOM     22  N   UNL     1      50.299   5.834  17.365  0.00  0.00    +0.000 N 
ATOM     23  C   UNL     1      51.350   5.858  18.252  0.00  0.00    +0.000 C 
ATOM     24  O   UNL     1      51.435   6.701  19.139  0.00  0.00    +0.000 OA
ATOM     25  H   UNL     1      50.393   5.297  16.510  0.00  0.00    +0.000 HD
BRANCH  23  26
ATOM     26  C   UNL     1      52.336   4.779  18.114  0.00  0.00    +0.000 A 
ATOM     27  C   UNL     1      53.694   5.063  18.184  0.00  0.00    +0.000 A 
ATOM     28  S   UNL     1      54.688   3.682  18.033  0.00  0.00    +0.000 S 
ATOM     29  C   UNL     1      53.339   2.665  17.826  0.00  0.00    +0.000 A 
ATOM     30  N   UNL     1      53.493   1.330  17.615  0.00  0.00    +0.000 NA
ATOM     31  C   UNL     1      52.385   0.683  17.460  0.00  0.00    +0.000 A 
ATOM     32  N   UNL     1      51.138   1.247  17.504  0.00  0.00    +0.000 N 
ATOM     33  C   UNL     1      50.934   2.587  17.738  0.00  0.00    +0.000 A 
ATOM     34  O   UNL     1      49.803   3.051  17.821  0.00  0.00    +0.000 OA
ATOM     35  C   UNL     1      52.148   3.364  17.901  0.00  0.00    +0.000 A 
ATOM     36  H   UNL     1      50.308   0.686  17.396  0.00  0.00    +0.000 HD
ENDBRANCH  23  26
ENDBRANCH  21  22
ENDBRANCH   4  21
TORSDOF 7
ENDMDL
MODEL 6
REMARK VINA RESULT:    -6.701      5.560      8.173
REMARK INTER + INTRA:         -10.581
REMARK INTER:                  -9.557
REMARK INTRA:                  -1.024
REMARK UNBOUND:                -1.138
REMARK  Name = 
REMARK  7 active torsions:
REMARK  status: ('A' for Active; 'I' for Inactive)
REMARK    1  A    between atoms: C_2  and  C_3
REMARK    2  A    between atoms: C_7  and  C_8
REMARK    3  A    between atoms: N_10  and  C_11
REMARK    4  A    between atoms: C_11  and  C_12
REMARK    5  A    between atoms: C_15  and  C_16
REMARK    6  A    between atoms: C_16  and  N_17
REMARK    7  A    between atoms: C_18  and  C_20
REMARK                            x       y       z     vdW  Elec       q    Type
REMARK                         _______ _______ _______ _____ _____    ______ ____
ROOT
ATOM      1  C   UNL     1      50.135   9.070  11.376  0.00  0.00    +0.000 A 
ATOM      2  C   UNL     1      49.889   7.772  11.839  0.00  0.00    +0.000 A 
ATOM      3  C   UNL     1      48.654   7.437  12.412  0.00  0.00    +0.000 A 
ATOM      4  C   UNL     1      47.627   8.387  12.512  0.00  0.00    +0.000 A 
ATOM      5  C   UNL     1      47.877   9.687  12.056  0.00  0.00    +0.000 A 
ATOM      6  C   UNL     1      49.111  10.012  11.489  0.00  0.00    +0.000 A 
ATOM      7  F   UNL     1      49.308  11.264  11.047  0.00  0.00    +0.000 F 
ENDROOT
BRANCH   1   8
ATOM      8  C   UNL     1      51.464   9.437  10.771  0.00  0.00    +0.000 C 
BRANCH   8  11
ATOM      9  C   UNL     1      52.859   8.186   9.158  0.00  0.00    +0.000 C 
ATOM     10  O   UNL     1      52.827   9.080   8.318  0.00  0.00    +0.000 OA
ATOM     11  N   UNL     1      52.235   8.273  10.382  0.00  0.00    +0.000 N 
ATOM     12  H   UNL     1      52.221   7.484  11.012  0.00  0.00    +0.000 HD
BRANCH   9  17
ATOM     13  C   UNL     1      54.260   5.304   7.154  0.00  0.00    +0.000 A 
ATOM     14  C   UNL     1      54.911   4.552   8.137  0.00  0.00    +0.000 A 
ATOM     15  C   UNL     1      54.890   4.972   9.469  0.00  0.00    +0.000 A 
ATOM     16  C   UNL     1      54.218   6.147   9.825  0.00  0.00    +0.000 A 
ATOM     17  C   UNL     1      53.570   6.909   8.845  0.00  0.00    +0.000 A 
ATOM     18  C   UNL     1      53.601   6.486   7.508  0.00  0.00    +0.000 A 
BRANCH  13  20
ATOM     19  N   UNL     1      54.277   4.486   4.693  0.00  0.00    +0.000 NA
ATOM     20  C   UNL     1      54.259   4.857   5.791  0.00  0.00    +0.000 C 
ENDBRANCH  13  20
ENDBRANCH   9  17
ENDBRANCH   8  11
ENDBRANCH   1   8
BRANCH   4  21
ATOM     21  C   UNL     1      46.294   8.028  13.126  0.00  0.00    +0.000 C 
BRANCH  21  22
ATOM     22  N   UNL     1      45.844   6.725  12.703  0.00  0.00    +0.000 N 
ATOM     23  C   UNL     1      44.855   6.565  11.762  0.00  0.00    +0.000 C 
ATOM     24  O   UNL     1      44.326   7.520  11.202  0.00  0.00    +0.000 OA
ATOM     25  H   UNL     1      46.069   5.947  13.313  0.00  0.00    +0.000 HD
BRANCH  23  26
ATOM     26  C   UNL     1      44.507   5.180  11.419  0.00  0.00    +0.000 A 
ATOM     27  C   UNL     1      43.731   4.421  12.285  0.00  0.00    +0.000 A 
ATOM     28  S   UNL     1      43.404   2.847  11.706  0.00  0.00    +0.000 S 
ATOM     29  C   UNL     1      44.324   3.113  10.300  0.00  0.00    +0.000 A 
ATOM     30  N   UNL     1      44.481   2.133   9.370  0.00  0.00    +0.000 NA
ATOM     31  C   UNL     1      45.216   2.468   8.361  0.00  0.00    +0.000 A 
ATOM     32  N   UNL     1      45.802   3.694   8.193  0.00  0.00    +0.000 N 
ATOM     33  C   UNL     1      45.650   4.722   9.095  0.00  0.00    +0.000 A 
ATOM     34  O   UNL     1      46.147   5.824   8.891  0.00  0.00    +0.000 OA
ATOM     35  C   UNL     1      44.848   4.392  10.258  0.00  0.00    +0.000 A 
ATOM     36  H   UNL     1      46.349   3.904   7.373  0.00  0.00    +0.000 HD
ENDBRANCH  23  26
ENDBRANCH  21  22
ENDBRANCH   4  21
TORSDOF 7
ENDMDL
MODEL 7
REMARK VINA RESULT:    -6.623      3.751      5.228
REMARK INTER + INTRA:         -10.471
REMARK INTER:                  -9.649
REMARK INTRA:                  -0.821
REMARK UNBOUND:                -1.138
REMARK  Name = 
REMARK  7 active torsions:
REMARK  status: ('A' for Active; 'I' for Inactive)
REMARK    1  A    between atoms: C_2  and  C_3
REMARK    2  A    between atoms: C_7  and  C_8
REMARK    3  A    between atoms: N_10  and  C_11
REMARK    4  A    between atoms: C_11  and  C_12
REMARK    5  A    between atoms: C_15  and  C_16
REMARK    6  A    between atoms: C_16  and  N_17
REMARK    7  A    between atoms: C_18  and  C_20
REMARK                            x       y       z     vdW  Elec       q    Type
REMARK                         _______ _______ _______ _____ _____    ______ ____
ROOT
ATOM      1  C   UNL     1      47.671   5.636  14.806  0.00  0.00    +0.000 A 
ATOM      2  C   UNL     1      47.137   4.389  15.151  0.00  0.00    +0.000 A 
ATOM      3  C   UNL     1      47.526   3.744  16.334  0.00  0.00    +0.000 A 
ATOM      4  C   UNL     1      48.441   4.344  17.211  0.00  0.00    +0.000 A 
ATOM      5  C   UNL     1      48.982   5.587  16.861  0.00  0.00    +0.000 A 
ATOM      6  C   UNL     1      48.589   6.221  15.680  0.00  0.00    +0.000 A 
ATOM      7  F   UNL     1      49.115   7.421  15.386  0.00  0.00    +0.000 F 
ENDROOT
BRANCH   1   8
ATOM      8  C   UNL     1      47.264   6.327  13.532  0.00  0.00    +0.000 C 
BRANCH   8  11
ATOM      9  C   UNL     1      45.718   5.706  11.704  0.00  0.00    +0.000 C 
ATOM     10  O   UNL     1      45.126   6.780  11.736  0.00  0.00    +0.000 OA
ATOM     11  N   UNL     1      46.775   5.399  12.531  0.00  0.00    +0.000 N 
ATOM     12  H   UNL     1      47.183   4.475  12.526  0.00  0.00    +0.000 HD
BRANCH   9  17
ATOM     13  C   UNL     1      45.421   3.663   8.538  0.00  0.00    +0.000 A 
ATOM     14  C   UNL     1      44.510   2.670   8.914  0.00  0.00    +0.000 A 
ATOM     15  C   UNL     1      43.974   2.664  10.204  0.00  0.00    +0.000 A 
ATOM     16  C   UNL     1      44.345   3.650  11.125  0.00  0.00    +0.000 A 
ATOM     17  C   UNL     1      45.262   4.643  10.759  0.00  0.00    +0.000 A 
ATOM     18  C   UNL     1      45.803   4.640   9.464  0.00  0.00    +0.000 A 
BRANCH  13  20
ATOM     19  N   UNL     1      46.395   3.710   6.135  0.00  0.00    +0.000 NA
ATOM     20  C   UNL     1      45.949   3.684   7.206  0.00  0.00    +0.000 C 
ENDBRANCH  13  20
ENDBRANCH   9  17
ENDBRANCH   8  11
ENDBRANCH   1   8
BRANCH   4  21
ATOM     21  C   UNL     1      48.860   3.652  18.487  0.00  0.00    +0.000 C 
BRANCH  21  22
ATOM     22  N   UNL     1      50.258   3.300  18.471  0.00  0.00    +0.000 N 
ATOM     23  C   UNL     1      50.762   2.354  17.611  0.00  0.00    +0.000 C 
ATOM     24  O   UNL     1      50.058   1.783  16.784  0.00  0.00    +0.000 OA
ATOM     25  H   UNL     1      50.800   3.555  19.290  0.00  0.00    +0.000 HD
BRANCH  23  26
ATOM     26  C   UNL     1      52.207   2.106  17.697  0.00  0.00    +0.000 A 
ATOM     27  C   UNL     1      52.690   0.805  17.739  0.00  0.00    +0.000 A 
ATOM     28  S   UNL     1      54.394   0.711  17.807  0.00  0.00    +0.000 S 
ATOM     29  C   UNL     1      54.542   2.406  17.828  0.00  0.00    +0.000 A 
ATOM     30  N   UNL     1      55.761   3.003  17.910  0.00  0.00    +0.000 NA
ATOM     31  C   UNL     1      55.723   4.295  17.931  0.00  0.00    +0.000 A 
ATOM     32  N   UNL     1      54.579   5.044  17.870  0.00  0.00    +0.000 N 
ATOM     33  C   UNL     1      53.326   4.485  17.761  0.00  0.00    +0.000 A 
ATOM     34  O   UNL     1      52.326   5.184  17.659  0.00  0.00    +0.000 OA
ATOM     35  C   UNL     1      53.311   3.034  17.753  0.00  0.00    +0.000 A 
ATOM     36  H   UNL     1      54.613   6.052  17.870  0.00  0.00    +0.000 HD
ENDBRANCH  23  26
ENDBRANCH  21  22
ENDBRANCH   4  21
TORSDOF 7
ENDMDL
MODEL 8
REMARK VINA RESULT:    -6.534      1.840      2.235
REMARK INTER + INTRA:         -10.345
REMARK INTER:                  -9.697
REMARK INTRA:                  -0.648
REMARK UNBOUND:                -1.138
REMARK  Name = 
REMARK  7 active torsions:
REMARK  status: ('A' for Active; 'I' for Inactive)
REMARK    1  A    between atoms: C_2  and  C_3
REMARK    2  A    between atoms: C_7  and  C_8
REMARK    3  A    between atoms: N_10  and  C_11
REMARK    4  A    between atoms: C_11  and  C_12
REMARK    5  A    between atoms: C_15  and  C_16
REMARK    6  A    between atoms: C_16  and  N_17
REMARK    7  A    between atoms: C_18  and  C_20
REMARK                            x       y       z     vdW  Elec       q    Type
REMARK                         _______ _______ _______ _____ _____    ______ ____
ROOT
ATOM      1  C   UNL     1      45.087   7.080  11.906  0.00  0.00    +0.000 A 
ATOM      2  C   UNL     1      45.442   8.434  11.918  0.00  0.00    +0.000 A 
ATOM      3  C   UNL     1      46.449   8.904  12.775  0.00  0.00    +0.000 A 
ATOM      4  C   UNL     1      47.139   8.025  13.622  0.00  0.00    +0.000 A 
ATOM      5  C   UNL     1      46.778   6.673  13.615  0.00  0.00    +0.000 A 
ATOM      6  C   UNL     1      45.773   6.214  12.759  0.00  0.00    +0.000 A 
ATOM      7  F   UNL     1      45.465   4.907  12.768  0.00  0.00    +0.000 F 
ENDROOT
BRANCH   1   8
ATOM      8  C   UNL     1      44.000   6.573  10.996  0.00  0.00    +0.000 C 
BRANCH   8  11
ATOM      9  C   UNL     1      45.282   5.047   9.533  0.00  0.00    +0.000 C 
ATOM     10  O   UNL     1      45.998   5.942   9.096  0.00  0.00    +0.000 OA
ATOM     11  N   UNL     1      44.291   5.256  10.466  0.00  0.00    +0.000 N 
ATOM     12  H   UNL     1      43.674   4.506  10.740  0.00  0.00    +0.000 HD
BRANCH   9  17
ATOM     13  C   UNL     1      46.621   2.150   7.507  0.00  0.00    +0.000 A 
ATOM     14  C   UNL     1      45.864   1.078   7.993  0.00  0.00    +0.000 A 
ATOM     15  C   UNL     1      44.900   1.292   8.980  0.00  0.00    +0.000 A 
ATOM     16  C   UNL     1      44.686   2.578   9.488  0.00  0.00    +0.000 A 
ATOM     17  C   UNL     1      45.444   3.656   9.012  0.00  0.00    +0.000 A 
ATOM     18  C   UNL     1      46.417   3.434   8.026  0.00  0.00    +0.000 A 
BRANCH  13  20
ATOM     19  N   UNL     1      48.361   1.757   5.625  0.00  0.00    +0.000 NA
ATOM     20  C   UNL     1      47.591   1.933   6.474  0.00  0.00    +0.000 C 
ENDBRANCH  13  20
ENDBRANCH   9  17
ENDBRANCH   8  11
ENDBRANCH   1   8
BRANCH   4  21
ATOM     21  C   UNL     1      48.226   8.528  14.543  0.00  0.00    +0.000 C 
BRANCH  21  22
ATOM     22  N   UNL     1      48.671   7.505  15.455  0.00  0.00    +0.000 N 
ATOM     23  C   UNL     1      48.669   7.690  16.817  0.00  0.00    +0.000 C 
ATOM     24  O   UNL     1      48.254   8.722  17.334  0.00  0.00    +0.000 OA
ATOM     25  H   UNL     1      49.244   6.765  15.063  0.00  0.00    +0.000 HD
BRANCH  23  26
ATOM     26  C   UNL     1      49.138   6.556  17.625  0.00  0.00    +0.000 A 
ATOM     27  C   UNL     1      48.307   5.992  18.583  0.00  0.00    +0.000 A 
ATOM     28  S   UNL     1      49.010   4.667  19.401  0.00  0.00    +0.000 S 
ATOM     29  C   UNL     1      50.464   4.831  18.532  0.00  0.00    +0.000 A 
ATOM     30  N   UNL     1      51.520   4.008  18.771  0.00  0.00    +0.000 NA
ATOM     31  C   UNL     1      52.564   4.256  18.050  0.00  0.00    +0.000 A 
ATOM     32  N   UNL     1      52.645   5.246  17.108  0.00  0.00    +0.000 N 
ATOM     33  C   UNL     1      51.595   6.085  16.816  0.00  0.00    +0.000 A 
ATOM     34  O   UNL     1      51.685   6.929  15.931  0.00  0.00    +0.000 OA
ATOM     35  C   UNL     1      50.403   5.862  17.612  0.00  0.00    +0.000 A 
ATOM     36  H   UNL     1      53.482   5.378  16.561  0.00  0.00    +0.000 HD
ENDBRANCH  23  26
ENDBRANCH  21  22
ENDBRANCH   4  21
TORSDOF 7
ENDMDL
MODEL 9
REMARK VINA RESULT:    -6.497      6.210      8.143
REMARK INTER + INTRA:         -10.294
REMARK INTER:                  -9.218
REMARK INTRA:                  -1.076
REMARK UNBOUND:                -1.138
REMARK  Name = 
REMARK  7 active torsions:
REMARK  status: ('A' for Active; 'I' for Inactive)
REMARK    1  A    between atoms: C_2  and  C_3
REMARK    2  A    between atoms: C_7  and  C_8
REMARK    3  A    between atoms: N_10  and  C_11
REMARK    4  A    between atoms: C_11  and  C_12
REMARK    5  A    between atoms: C_15  and  C_16
REMARK    6  A    between atoms: C_16  and  N_17
REMARK    7  A    between atoms: C_18  and  C_20
REMARK                            x       y       z     vdW  Elec       q    Type
REMARK                         _______ _______ _______ _____ _____    ______ ____
ROOT
ATOM      1  C   UNL     1      48.527   8.458  11.835  0.00  0.00    +0.000 A 
ATOM      2  C   UNL     1      49.639   7.608  11.821  0.00  0.00    +0.000 A 
ATOM      3  C   UNL     1      50.904   8.086  11.449  0.00  0.00    +0.000 A 
ATOM      4  C   UNL     1      51.089   9.434  11.106  0.00  0.00    +0.000 A 
ATOM      5  C   UNL     1      49.975  10.281  11.111  0.00  0.00    +0.000 A 
ATOM      6  C   UNL     1      48.718   9.795  11.481  0.00  0.00    +0.000 A 
ATOM      7  F   UNL     1      47.676  10.641  11.492  0.00  0.00    +0.000 F 
ENDROOT
BRANCH   1   8
ATOM      8  C   UNL     1      47.165   7.946  12.222  0.00  0.00    +0.000 C 
BRANCH   8  11
ATOM      9  C   UNL     1      45.507   6.499  11.093  0.00  0.00    +0.000 C 
ATOM     10  O   UNL     1      44.578   7.275  11.294  0.00  0.00    +0.000 OA
ATOM     11  N   UNL     1      46.800   6.744  11.498  0.00  0.00    +0.000 N 
ATOM     12  H   UNL     1      47.519   6.044  11.382  0.00  0.00    +0.000 HD
BRANCH   9  17
ATOM     13  C   UNL     1      45.611   3.777   8.472  0.00  0.00    +0.000 A 
ATOM     14  C   UNL     1      44.845   2.769   9.066  0.00  0.00    +0.000 A 
ATOM     15  C   UNL     1      44.275   2.972  10.325  0.00  0.00    +0.000 A 
ATOM     16  C   UNL     1      44.469   4.184  10.998  0.00  0.00    +0.000 A 
ATOM     17  C   UNL     1      45.241   5.196  10.413  0.00  0.00    +0.000 A 
ATOM     18  C   UNL     1      45.817   4.984   9.152  0.00  0.00    +0.000 A 
BRANCH  13  20
ATOM     19  N   UNL     1      46.615   3.401   6.111  0.00  0.00    +0.000 NA
ATOM     20  C   UNL     1      46.173   3.578   7.168  0.00  0.00    +0.000 C 
ENDBRANCH  13  20
ENDBRANCH   9  17
ENDBRANCH   8  11
ENDBRANCH   1   8
BRANCH   4  21
ATOM     21  C   UNL     1      52.451   9.953  10.708  0.00  0.00    +0.000 C 
BRANCH  21  22
ATOM     22  N   UNL     1      52.972   9.261   9.555  0.00  0.00    +0.000 N 
ATOM     23  C   UNL     1      52.762   9.717   8.275  0.00  0.00    +0.000 C 
ATOM     24  O   UNL     1      52.151  10.756   8.044  0.00  0.00    +0.000 OA
ATOM     25  H   UNL     1      53.247   8.295   9.692  0.00  0.00    +0.000 HD
BRANCH  23  26
ATOM     26  C   UNL     1      53.362   8.918   7.198  0.00  0.00    +0.000 A 
ATOM     27  C   UNL     1      53.951   9.547   6.110  0.00  0.00    +0.000 A 
ATOM     28  S   UNL     1      54.621   8.460   4.975  0.00  0.00    +0.000 S 
ATOM     29  C   UNL     1      54.107   7.113   5.878  0.00  0.00    +0.000 A 
ATOM     30  N   UNL     1      54.340   5.846   5.443  0.00  0.00    +0.000 NA
ATOM     31  C   UNL     1      53.882   4.921   6.220  0.00  0.00    +0.000 A 
ATOM     32  N   UNL     1      53.219   5.146   7.397  0.00  0.00    +0.000 N 
ATOM     33  C   UNL     1      52.983   6.409   7.889  0.00  0.00    +0.000 A 
ATOM     34  O   UNL     1      52.430   6.576   8.970  0.00  0.00    +0.000 OA
ATOM     35  C   UNL     1      53.460   7.487   7.043  0.00  0.00    +0.000 A 
ATOM     36  H   UNL     1      52.902   4.382   7.973  0.00  0.00    +0.000 HD
ENDBRANCH  23  26
ENDBRANCH  21  22
ENDBRANCH   4  21
TORSDOF 7
ENDMDL
