MODEL 1
REMARK VINA RESULT:    -7.973      0.000      0.000
REMARK INTER + INTRA:         -12.437
REMARK INTER:                 -11.236
REMARK INTRA:                  -1.201
REMARK UNBOUND:                -1.201
REMARK  Name = 
REMARK  8 active torsions:
REMARK  status: ('A' for Active; 'I' for Inactive)
REMARK    1  A    between atoms: C_1  and  O_2
REMARK    2  A    between atoms: O_2  and  C_3
REMARK    3  A    between atoms: C_10  and  C_11
REMARK    4  A    between atoms: N_13  and  C_14
REMARK    5  A    between atoms: C_14  and  C_15
REMARK    6  A    between atoms: C_18  and  N_19
REMARK    7  A    between atoms: N_19  and  C_20
REMARK    8  A    between atoms: C_20  and  C_21
REMARK                            x       y       z     vdW  Elec       q    Type
REMARK                         _______ _______ _______ _____ _____    ______ ____
ROOT
ATOM      1  C   UNL     1      46.692   8.053  13.159  0.00  0.00    +0.000 C 
ENDROOT
BRANCH   1   2
ATOM      2  C   UNL     1      45.954   7.130  12.221  0.00  0.00    +0.000 A 
ATOM      3  C   UNL     1      46.528   6.738  11.006  0.00  0.00    +0.000 A 
ATOM      4  C   UNL     1      45.920   5.759  10.206  0.00  0.00    +0.000 A 
ATOM      5  C   UNL     1      44.701   5.178  10.565  0.00  0.00    +0.000 A 
ATOM      6  C   UNL     1      44.094   5.638  11.744  0.00  0.00    +0.000 A 
ATOM      7  C   UNL     1      44.703   6.604  12.559  0.00  0.00    +0.000 A 
BRANCH   5   8
ATOM      8  N   UNL     1      44.120   4.093   9.901  0.00  0.00    +0.000 N 
ATOM      9  H   UNL     1      43.790   4.361   8.980  0.00  0.00    +0.000 HD
BRANCH   8  10
ATOM     10  C   UNL     1      44.741   2.764   9.941  0.00  0.00    +0.000 C 
BRANCH  10  11
ATOM     11  C   UNL     1      45.878   2.629   8.881  0.00  0.00    +0.000 C 
ATOM     12  C   UNL     1      45.569   3.542   7.678  0.00  0.00    +0.000 C 
ATOM     13  C   UNL     1      46.593   3.386   6.556  0.00  0.00    +0.000 C 
ATOM     14  C   UNL     1      46.762   1.919   6.185  0.00  0.00    +0.000 C 
ATOM     15  C   UNL     1      47.073   1.078   7.420  0.00  0.00    +0.000 C 
ATOM     16  N   UNL     1      46.035   1.223   8.443  0.00  0.00    +0.000 NA
ATOM     17  H   UNL     1      46.307   0.657   9.244  0.00  0.00    +0.000 HD
ENDBRANCH  10  11
ENDBRANCH   8  10
ENDBRANCH   5   8
ENDBRANCH   1   2
BRANCH   1  20
ATOM     18  C   UNL     1      48.492   7.015  14.468  0.00  0.00    +0.000 C 
ATOM     19  O   UNL     1      49.310   7.255  13.581  0.00  0.00    +0.000 OA
ATOM     20  N   UNL     1      47.177   7.379  14.335  0.00  0.00    +0.000 N 
ATOM     21  H   UNL     1      46.515   7.194  15.074  0.00  0.00    +0.000 HD
BRANCH  18  29
ATOM     22  C   UNL     1      47.278   4.220  16.047  0.00  0.00    +0.000 A 
ATOM     23  N   UNL     1      47.066   3.122  16.798  0.00  0.00    +0.000 NA
ATOM     24  C   UNL     1      47.883   2.904  17.833  0.00  0.00    +0.000 A 
ATOM     25  N   UNL     1      48.895   3.671  18.232  0.00  0.00    +0.000 NA
ATOM     26  C   UNL     1      49.080   4.745  17.445  0.00  0.00    +0.000 A 
ATOM     27  S   UNL     1      50.318   5.849  17.807  0.00  0.00    +0.000 S 
ATOM     28  C   UNL     1      49.934   6.800  16.451  0.00  0.00    +0.000 A 
ATOM     29  C   UNL     1      48.879   6.301  15.694  0.00  0.00    +0.000 A 
ATOM     30  C   UNL     1      48.346   5.093  16.316  0.00  0.00    +0.000 A 
BRANCH  22  32
ATOM     31  C   UNL     1      46.839   3.773  13.793  0.00  0.00    +0.000 C 
ATOM     32  O   UNL     1      46.439   4.452  14.980  0.00  0.00    +0.000 OA
ENDBRANCH  22  32
ENDBRANCH  18  29
ENDBRANCH   1  20
TORSDOF 7
ENDMDL
MODEL 2
REMARK VINA RESULT:    -7.762      1.510      1.848
REMARK INTER + INTRA:         -12.139
REMARK INTER:                 -11.336
REMARK INTRA:                  -0.803
REMARK UNBOUND:                -1.201
REMARK  Name = 
REMARK  8 active torsions:
REMARK  status: ('A' for Active; 'I' for Inactive)
REMARK    1  A    between atoms: C_1  and  O_2
REMARK    2  A    between atoms: O_2  and  C_3
REMARK    3  A    between atoms: C_10  and  C_11
REMARK    4  A    between atoms: N_13  and  C_14
REMARK    5  A    between atoms: C_14  and  C_15
REMARK    6  A    between atoms: C_18  and  N_19
REMARK    7  A    between atoms: N_19  and  C_20
REMARK    8  A    between atoms: C_20  and  C_21
REMARK                            x       y       z     vdW  Elec       q    Type
REMARK                         _______ _______ _______ _____ _____    ______ ____
ROOT
ATOM      1  C   UNL     1      47.285   7.666  12.901  0.00  0.00    +0.000 C 
ENDROOT
BRANCH   1   2
ATOM      2  C   UNL     1      46.486   6.453  12.498  0.00  0.00    +0.000 A 
ATOM      3  C   UNL     1      45.825   6.410  11.265  0.00  0.00    +0.000 A 
ATOM      4  C   UNL     1      45.214   5.228  10.817  0.00  0.00    +0.000 A 
ATOM      5  C   UNL     1      45.201   4.072  11.602  0.00  0.00    +0.000 A 
ATOM      6  C   UNL     1      45.796   4.151  12.870  0.00  0.00    +0.000 A 
ATOM      7  C   UNL     1      46.423   5.322  13.319  0.00  0.00    +0.000 A 
BRANCH   5   8
ATOM      8  N   UNL     1      44.752   2.824  11.158  0.00  0.00    +0.000 N 
ATOM      9  H   UNL     1      44.083   2.423  11.806  0.00  0.00    +0.000 HD
BRANCH   8  10
ATOM     10  C   UNL     1      44.411   2.603   9.747  0.00  0.00    +0.000 C 
BRANCH  10  11
ATOM     11  C   UNL     1      45.684   2.545   8.849  0.00  0.00    +0.000 C 
ATOM     12  C   UNL     1      45.520   3.512   7.661  0.00  0.00    +0.000 C 
ATOM     13  C   UNL     1      46.692   3.435   6.685  0.00  0.00    +0.000 C 
ATOM     14  C   UNL     1      46.948   1.992   6.270  0.00  0.00    +0.000 C 
ATOM     15  C   UNL     1      47.108   1.094   7.494  0.00  0.00    +0.000 C 
ATOM     16  N   UNL     1      45.937   1.167   8.370  0.00  0.00    +0.000 NA
ATOM     17  H   UNL     1      46.111   0.566   9.172  0.00  0.00    +0.000 HD
ENDBRANCH  10  11
ENDBRANCH   8  10
ENDBRANCH   5   8
ENDBRANCH   1   2
BRANCH   1  20
ATOM     18  C   UNL     1      48.621   7.338  14.935  0.00  0.00    +0.000 C 
ATOM     19  O   UNL     1      49.545   6.857  14.281  0.00  0.00    +0.000 OA
ATOM     20  N   UNL     1      47.469   7.764  14.325  0.00  0.00    +0.000 N 
ATOM     21  H   UNL     1      46.722   8.174  14.866  0.00  0.00    +0.000 HD
BRANCH  18  29
ATOM     22  C   UNL     1      48.865   5.030  17.463  0.00  0.00    +0.000 A 
ATOM     23  N   UNL     1      49.055   4.355  18.613  0.00  0.00    +0.000 NA
ATOM     24  C   UNL     1      49.172   5.061  19.742  0.00  0.00    +0.000 A 
ATOM     25  N   UNL     1      49.102   6.384  19.872  0.00  0.00    +0.000 NA
ATOM     26  C   UNL     1      48.929   7.017  18.699  0.00  0.00    +0.000 A 
ATOM     27  S   UNL     1      48.802   8.710  18.667  0.00  0.00    +0.000 S 
ATOM     28  C   UNL     1      48.644   8.716  16.974  0.00  0.00    +0.000 A 
ATOM     29  C   UNL     1      48.696   7.450  16.400  0.00  0.00    +0.000 A 
ATOM     30  C   UNL     1      48.826   6.434  17.440  0.00  0.00    +0.000 A 
BRANCH  22  32
ATOM     31  C   UNL     1      47.574   3.493  16.262  0.00  0.00    +0.000 C 
ATOM     32  O   UNL     1      48.741   4.309  16.297  0.00  0.00    +0.000 OA
ENDBRANCH  22  32
ENDBRANCH  18  29
ENDBRANCH   1  20
TORSDOF 7
ENDMDL
MODEL 3
REMARK VINA RESULT:    -7.546      1.517      1.985
REMARK INTER + INTRA:         -11.835
REMARK INTER:                 -10.785
REMARK INTRA:                  -1.051
REMARK UNBOUND:                -1.201
REMARK  Name = 
REMARK  8 active torsions:
REMARK  status: ('A' for Active; 'I' for Inactive)
REMARK    1  A    between atoms: C_1  and  O_2
REMARK    2  A    between atoms: O_2  and  C_3
REMARK    3  A    between atoms: C_10  and  C_11
REMARK    4  A    between atoms: N_13  and  C_14
REMARK    5  A    between atoms: C_14  and  C_15
REMARK    6  A    between atoms: C_18  and  N_19
REMARK    7  A    between atoms: N_19  and  C_20
REMARK    8  A    between atoms: C_20  and  C_21
REMARK                            x       y       z     vdW  Elec       q    Type
REMARK                         _______ _______ _______ _____ _____    ______ ____
ROOT
ATOM      1  C   UNL     1      47.198   7.259  13.440  0.00  0.00    +0.000 C 
ENDROOT
BRANCH   1   2
ATOM      2  C   UNL     1      46.377   6.146  12.838  0.00  0.00    +0.000 A 
ATOM      3  C   UNL     1      45.814   6.282  11.564  0.00  0.00    +0.000 A 
ATOM      4  C   UNL     1      45.186   5.195  10.936  0.00  0.00    +0.000 A 
ATOM      5  C   UNL     1      45.057   3.959  11.575  0.00  0.00    +0.000 A 
ATOM      6  C   UNL     1      45.554   3.859  12.883  0.00  0.00    +0.000 A 
ATOM      7  C   UNL     1      46.197   4.934  13.513  0.00  0.00    +0.000 A 
BRANCH   5   8
ATOM      8  N   UNL     1      44.588   2.798  10.953  0.00  0.00    +0.000 N 
ATOM      9  H   UNL     1      43.841   2.371  11.491  0.00  0.00    +0.000 HD
BRANCH   8  10
ATOM     10  C   UNL     1      44.368   2.754   9.503  0.00  0.00    +0.000 C 
BRANCH  10  11
ATOM     11  C   UNL     1      45.701   2.531   8.726  0.00  0.00    +0.000 C 
ATOM     12  C   UNL     1      45.723   3.430   7.474  0.00  0.00    +0.000 C 
ATOM     13  C   UNL     1      46.960   3.191   6.611  0.00  0.00    +0.000 C 
ATOM     14  C   UNL     1      47.120   1.708   6.304  0.00  0.00    +0.000 C 
ATOM     15  C   UNL     1      47.098   0.882   7.587  0.00  0.00    +0.000 C 
ATOM     16  N   UNL     1      45.870   1.109   8.351  0.00  0.00    +0.000 NA
ATOM     17  H   UNL     1      45.923   0.548   9.198  0.00  0.00    +0.000 HD
ENDBRANCH  10  11
ENDBRANCH   8  10
ENDBRANCH   5   8
ENDBRANCH   1   2
BRANCH   1  20
ATOM     18  C   UNL     1      49.115   7.622  14.932  0.00  0.00    +0.000 C 
ATOM     19  O   UNL     1      48.903   8.834  14.951  0.00  0.00    +0.000 OA
ATOM     20  N   UNL     1      48.314   6.775  14.209  0.00  0.00    +0.000 N 
ATOM     21  H   UNL     1      48.484   5.780  14.212  0.00  0.00    +0.000 HD
BRANCH  18  29
ATOM     22  C   UNL     1      49.380   5.076  17.218  0.00  0.00    +0.000 A 
ATOM     23  N   UNL     1      49.768   4.079  18.035  0.00  0.00    +0.000 NA
ATOM     24  C   UNL     1      51.075   3.939  18.276  0.00  0.00    +0.000 A 
ATOM     25  N   UNL     1      52.063   4.699  17.809  0.00  0.00    +0.000 NA
ATOM     26  C   UNL     1      51.632   5.670  16.986  0.00  0.00    +0.000 A 
ATOM     27  S   UNL     1      52.749   6.751  16.302  0.00  0.00    +0.000 S 
ATOM     28  C   UNL     1      51.519   7.563  15.454  0.00  0.00    +0.000 A 
ATOM     29  C   UNL     1      50.250   7.031  15.657  0.00  0.00    +0.000 A 
ATOM     30  C   UNL     1      50.318   5.924  16.606  0.00  0.00    +0.000 A 
BRANCH  22  32
ATOM     31  C   UNL     1      47.355   3.989  16.785  0.00  0.00    +0.000 C 
ATOM     32  O   UNL     1      48.034   5.227  16.967  0.00  0.00    +0.000 OA
ENDBRANCH  22  32
ENDBRANCH  18  29
ENDBRANCH   1  20
TORSDOF 7
ENDMDL
MODEL 4
REMARK VINA RESULT:    -7.197      1.422      1.929
REMARK INTER + INTRA:         -11.343
REMARK INTER:                 -10.225
REMARK INTRA:                  -1.117
REMARK UNBOUND:                -1.201
REMARK  Name = 
REMARK  8 active torsions:
REMARK  status: ('A' for Active; 'I' for Inactive)
REMARK    1  A    between atoms: C_1  and  O_2
REMARK    2  A    between atoms: O_2  and  C_3
REMARK    3  A    between atoms: C_10  and  C_11
REMARK    4  A    between atoms: N_13  and  C_14
REMARK    5  A    between atoms: C_14  and  C_15
REMARK    6  A    between atoms: C_18  and  N_19
REMARK    7  A    between atoms: N_19  and  C_20
REMARK    8  A    between atoms: C_20  and  C_21
REMARK                            x       y       z     vdW  Elec       q    Type
REMARK                         _______ _______ _______ _____ _____    ______ ____
ROOT
ATOM      1  C   UNL     1      47.848   8.484  13.709  0.00  0.00    +0.000 C 
ENDROOT
BRANCH   1   2
ATOM      2  C   UNL     1      46.822   7.711  12.920  0.00  0.00    +0.000 A 
ATOM      3  C   UNL     1      45.627   8.317  12.517  0.00  0.00    +0.000 A 
ATOM      4  C   UNL     1      44.742   7.656  11.650  0.00  0.00    +0.000 A 
ATOM      5  C   UNL     1      44.996   6.357  11.201  0.00  0.00    +0.000 A 
ATOM      6  C   UNL     1      46.156   5.729  11.677  0.00  0.00    +0.000 A 
ATOM      7  C   UNL     1      47.055   6.388  12.530  0.00  0.00    +0.000 A 
BRANCH   5   8
ATOM      8  N   UNL     1      44.243   5.703  10.220  0.00  0.00    +0.000 N 
ATOM      9  H   UNL     1      44.493   6.025   9.291  0.00  0.00    +0.000 HD
BRANCH   8  10
ATOM     10  C   UNL     1      44.000   4.257  10.297  0.00  0.00    +0.000 C 
BRANCH  10  11
ATOM     11  C   UNL     1      44.547   3.514   9.040  0.00  0.00    +0.000 C 
ATOM     12  C   UNL     1      45.158   2.165   9.465  0.00  0.00    +0.000 C 
ATOM     13  C   UNL     1      45.802   1.426   8.294  0.00  0.00    +0.000 C 
ATOM     14  C   UNL     1      46.778   2.336   7.559  0.00  0.00    +0.000 C 
ATOM     15  C   UNL     1      46.104   3.647   7.162  0.00  0.00    +0.000 C 
ATOM     16  N   UNL     1      45.549   4.339   8.326  0.00  0.00    +0.000 NA
ATOM     17  H   UNL     1      45.100   5.191   7.996  0.00  0.00    +0.000 HD
ENDBRANCH  10  11
ENDBRANCH   8  10
ENDBRANCH   5   8
ENDBRANCH   1   2
BRANCH   1  20
ATOM     18  C   UNL     1      48.993   7.282  15.520  0.00  0.00    +0.000 C 
ATOM     19  O   UNL     1      49.897   6.944  14.758  0.00  0.00    +0.000 OA
ATOM     20  N   UNL     1      47.944   8.046  15.078  0.00  0.00    +0.000 N 
ATOM     21  H   UNL     1      47.214   8.334  15.712  0.00  0.00    +0.000 HD
BRANCH  18  29
ATOM     22  C   UNL     1      48.502   4.256  17.063  0.00  0.00    +0.000 A 
ATOM     23  N   UNL     1      48.443   3.201  17.898  0.00  0.00    +0.000 NA
ATOM     24  C   UNL     1      48.633   3.422  19.202  0.00  0.00    +0.000 A 
ATOM     25  N   UNL     1      48.860   4.592  19.793  0.00  0.00    +0.000 NA
ATOM     26  C   UNL     1      48.928   5.614  18.922  0.00  0.00    +0.000 A 
ATOM     27  S   UNL     1      49.198   7.190  19.494  0.00  0.00    +0.000 S 
ATOM     28  C   UNL     1      49.176   7.819  17.915  0.00  0.00    +0.000 A 
ATOM     29  C   UNL     1      48.980   6.859  16.928  0.00  0.00    +0.000 A 
ATOM     30  C   UNL     1      48.791   5.546  17.540  0.00  0.00    +0.000 A 
BRANCH  22  32
ATOM     31  C   UNL     1      46.936   4.096  15.334  0.00  0.00    +0.000 C 
ATOM     32  O   UNL     1      48.306   4.037  15.718  0.00  0.00    +0.000 OA
ENDBRANCH  22  32
ENDBRANCH  18  29
ENDBRANCH   1  20
TORSDOF 7
ENDMDL
MODEL 5
REMARK VINA RESULT:    -7.068      2.082      3.448
REMARK INTER + INTRA:         -11.162
REMARK INTER:                 -10.112
REMARK INTRA:                  -1.049
REMARK UNBOUND:                -1.201
REMARK  Name = 
REMARK  8 active torsions:
REMARK  status: ('A' for Active; 'I' for Inactive)
REMARK    1  A    between atoms: C_1  and  O_2
REMARK    2  A    between atoms: O_2  and  C_3
REMARK    3  A    between atoms: C_10  and  C_11
REMARK    4  A    between atoms: N_13  and  C_14
REMARK    5  A    between atoms: C_14  and  C_15
REMARK    6  A    between atoms: C_18  and  N_19
REMARK    7  A    between atoms: N_19  and  C_20
REMARK    8  A    between atoms: C_20  and  C_21
REMARK                            x       y       z     vdW  Elec       q    Type
REMARK                         _______ _______ _______ _____ _____    ______ ____
ROOT
ATOM      1  C   UNL     1      47.136   4.059  14.846  0.00  0.00    +0.000 C 
ENDROOT
BRANCH   1   2
ATOM      2  C   UNL     1      46.440   4.445  13.565  0.00  0.00    +0.000 A 
ATOM      3  C   UNL     1      46.766   5.635  12.905  0.00  0.00    +0.000 A 
ATOM      4  C   UNL     1      46.238   5.921  11.636  0.00  0.00    +0.000 A 
ATOM      5  C   UNL     1      45.336   5.058  11.010  0.00  0.00    +0.000 A 
ATOM      6  C   UNL     1      44.954   3.907  11.716  0.00  0.00    +0.000 A 
ATOM      7  C   UNL     1      45.488   3.604  12.978  0.00  0.00    +0.000 A 
BRANCH   5   8
ATOM      8  N   UNL     1      44.895   5.201   9.690  0.00  0.00    +0.000 N 
ATOM      9  H   UNL     1      45.463   5.873   9.185  0.00  0.00    +0.000 HD
BRANCH   8  10
ATOM     10  C   UNL     1      44.518   4.029   8.890  0.00  0.00    +0.000 C 
BRANCH  10  11
ATOM     11  C   UNL     1      45.760   3.165   8.515  0.00  0.00    +0.000 C 
ATOM     12  C   UNL     1      46.394   3.710   7.220  0.00  0.00    +0.000 C 
ATOM     13  C   UNL     1      47.561   2.849   6.740  0.00  0.00    +0.000 C 
ATOM     14  C   UNL     1      47.146   1.387   6.651  0.00  0.00    +0.000 C 
ATOM     15  C   UNL     1      46.536   0.914   7.968  0.00  0.00    +0.000 C 
ATOM     16  N   UNL     1      45.391   1.740   8.356  0.00  0.00    +0.000 NA
ATOM     17  H   UNL     1      45.042   1.388   9.245  0.00  0.00    +0.000 HD
ENDBRANCH  10  11
ENDBRANCH   8  10
ENDBRANCH   5   8
ENDBRANCH   1   2
BRANCH   1  20
ATOM     18  C   UNL     1      48.450   5.201  16.579  0.00  0.00    +0.000 C 
ATOM     19  O   UNL     1      49.214   4.240  16.668  0.00  0.00    +0.000 OA
ATOM     20  N   UNL     1      47.398   5.189  15.699  0.00  0.00    +0.000 N 
ATOM     21  H   UNL     1      46.786   5.987  15.619  0.00  0.00    +0.000 HD
BRANCH  18  29
ATOM     22  C   UNL     1      48.665   8.561  15.914  0.00  0.00    +0.000 A 
ATOM     23  N   UNL     1      48.676   9.907  15.938  0.00  0.00    +0.000 NA
ATOM     24  C   UNL     1      48.729  10.512  17.129  0.00  0.00    +0.000 A 
ATOM     25  N   UNL     1      48.792   9.928  18.324  0.00  0.00    +0.000 NA
ATOM     26  C   UNL     1      48.761   8.586  18.253  0.00  0.00    +0.000 A 
ATOM     27  S   UNL     1      48.847   7.667  19.678  0.00  0.00    +0.000 S 
ATOM     28  C   UNL     1      48.730   6.212  18.805  0.00  0.00    +0.000 A 
ATOM     29  C   UNL     1      48.610   6.389  17.430  0.00  0.00    +0.000 A 
ATOM     30  C   UNL     1      48.671   7.810  17.102  0.00  0.00    +0.000 A 
BRANCH  22  32
ATOM     31  C   UNL     1      49.899   7.668  14.140  0.00  0.00    +0.000 C 
ATOM     32  O   UNL     1      48.613   7.931  14.691  0.00  0.00    +0.000 OA
ENDBRANCH  22  32
ENDBRANCH  18  29
ENDBRANCH   1  20
TORSDOF 7
ENDMDL
MODEL 6
REMARK VINA RESULT:    -7.053      3.985      8.786
REMARK INTER + INTRA:         -11.140
REMARK INTER:                 -10.136
REMARK INTRA:                  -1.003
REMARK UNBOUND:                -1.201
REMARK  Name = 
REMARK  8 active torsions:
REMARK  status: ('A' for Active; 'I' for Inactive)
REMARK    1  A    between atoms: C_1  and  O_2
REMARK    2  A    between atoms: O_2  and  C_3
REMARK    3  A    between atoms: C_10  and  C_11
REMARK    4  A    between atoms: N_13  and  C_14
REMARK    5  A    between atoms: C_14  and  C_15
REMARK    6  A    between atoms: C_18  and  N_19
REMARK    7  A    between atoms: N_19  and  C_20
REMARK    8  A    between atoms: C_20  and  C_21
REMARK                            x       y       z     vdW  Elec       q    Type
REMARK                         _______ _______ _______ _____ _____    ______ ____
ROOT
ATOM      1  C   UNL     1      47.381   3.327  17.128  0.00  0.00    +0.000 C 
ENDROOT
BRANCH   1   2
ATOM      2  C   UNL     1      48.839   3.266  17.511  0.00  0.00    +0.000 A 
ATOM      3  C   UNL     1      49.647   2.209  17.079  0.00  0.00    +0.000 A 
ATOM      4  C   UNL     1      51.034   2.228  17.296  0.00  0.00    +0.000 A 
ATOM      5  C   UNL     1      51.648   3.273  17.991  0.00  0.00    +0.000 A 
ATOM      6  C   UNL     1      50.817   4.287  18.490  0.00  0.00    +0.000 A 
ATOM      7  C   UNL     1      49.432   4.285  18.264  0.00  0.00    +0.000 A 
BRANCH   5   8
ATOM      8  N   UNL     1      53.033   3.435  18.107  0.00  0.00    +0.000 N 
ATOM      9  H   UNL     1      53.294   4.413  18.043  0.00  0.00    +0.000 HD
BRANCH   8  10
ATOM     10  C   UNL     1      53.798   2.685  19.111  0.00  0.00    +0.000 C 
BRANCH  10  11
ATOM     11  C   UNL     1      54.557   1.481  18.473  0.00  0.00    +0.000 C 
ATOM     12  C   UNL     1      54.876   1.797  16.999  0.00  0.00    +0.000 C 
ATOM     13  C   UNL     1      55.534   0.619  16.284  0.00  0.00    +0.000 C 
ATOM     14  C   UNL     1      54.713  -0.649  16.475  0.00  0.00    +0.000 C 
ATOM     15  C   UNL     1      54.443  -0.904  17.955  0.00  0.00    +0.000 C 
ATOM     16  N   UNL     1      53.765   0.234  18.580  0.00  0.00    +0.000 NA
ATOM     17  H   UNL     1      53.631   0.013  19.565  0.00  0.00    +0.000 HD
ENDBRANCH  10  11
ENDBRANCH   8  10
ENDBRANCH   5   8
ENDBRANCH   1   2
BRANCH   1  20
ATOM     18  C   UNL     1      47.144   4.172  14.834  0.00  0.00    +0.000 C 
ATOM     19  O   UNL     1      47.433   3.070  14.372  0.00  0.00    +0.000 OA
ATOM     20  N   UNL     1      47.095   4.380  16.189  0.00  0.00    +0.000 N 
ATOM     21  H   UNL     1      46.841   5.282  16.562  0.00  0.00    +0.000 HD
BRANCH  18  29
ATOM     22  C   UNL     1      44.583   4.930  12.679  0.00  0.00    +0.000 A 
ATOM     23  N   UNL     1      43.678   5.504  11.863  0.00  0.00    +0.000 NA
ATOM     24  C   UNL     1      43.935   6.736  11.411  0.00  0.00    +0.000 A 
ATOM     25  N   UNL     1      45.013   7.474  11.661  0.00  0.00    +0.000 NA
ATOM     26  C   UNL     1      45.880   6.870  12.491  0.00  0.00    +0.000 A 
ATOM     27  S   UNL     1      47.325   7.654  12.915  0.00  0.00    +0.000 S 
ATOM     28  C   UNL     1      47.792   6.361  13.915  0.00  0.00    +0.000 A 
ATOM     29  C   UNL     1      46.868   5.323  13.960  0.00  0.00    +0.000 A 
ATOM     30  C   UNL     1      45.745   5.615  13.075  0.00  0.00    +0.000 A 
BRANCH  22  32
ATOM     31  C   UNL     1      43.552   2.876  12.246  0.00  0.00    +0.000 C 
ATOM     32  O   UNL     1      44.327   3.661  13.147  0.00  0.00    +0.000 OA
ENDBRANCH  22  32
ENDBRANCH  18  29
ENDBRANCH   1  20
TORSDOF 7
ENDMDL
MODEL 7
REMARK VINA RESULT:    -7.040      3.340      4.739
REMARK INTER + INTRA:         -11.122
REMARK INTER:                  -9.961
REMARK INTRA:                  -1.161
REMARK UNBOUND:                -1.201
REMARK  Name = 
REMARK  8 active torsions:
REMARK  status: ('A' for Active; 'I' for Inactive)
REMARK    1  A    between atoms: C_1  and  O_2
REMARK    2  A    between atoms: O_2  and  C_3
REMARK    3  A    between atoms: C_10  and  C_11
REMARK    4  A    between atoms: N_13  and  C_14
REMARK    5  A    between atoms: C_14  and  C_15
REMARK    6  A    between atoms: C_18  and  N_19
REMARK    7  A    between atoms: N_19  and  C_20
REMARK    8  A    between atoms: C_20  and  C_21
REMARK                            x       y       z     vdW  Elec       q    Type
REMARK                         _______ _______ _______ _____ _____    ______ ____
ROOT
ATOM      1  C   UNL     1      45.257   8.167  12.549  0.00  0.00    +0.000 C 
ENDROOT
BRANCH   1   2
ATOM      2  C   UNL     1      44.996   6.705  12.284  0.00  0.00    +0.000 A 
ATOM      3  C   UNL     1      43.984   6.309  11.403  0.00  0.00    +0.000 A 
ATOM      4  C   UNL     1      43.841   4.963  11.032  0.00  0.00    +0.000 A 
ATOM      5  C   UNL     1      44.667   3.968  11.562  0.00  0.00    +0.000 A 
ATOM      6  C   UNL     1      45.625   4.367  12.506  0.00  0.00    +0.000 A 
ATOM      7  C   UNL     1      45.786   5.712  12.871  0.00  0.00    +0.000 A 
BRANCH   5   8
ATOM      8  N   UNL     1      44.683   2.641  11.121  0.00  0.00    +0.000 N 
ATOM      9  H   UNL     1      44.223   2.028  11.786  0.00  0.00    +0.000 HD
BRANCH   8  10
ATOM     10  C   UNL     1      44.400   2.308   9.720  0.00  0.00    +0.000 C 
BRANCH  10  11
ATOM     11  C   UNL     1      45.680   2.416   8.834  0.00  0.00    +0.000 C 
ATOM     12  C   UNL     1      45.441   3.444   7.711  0.00  0.00    +0.000 C 
ATOM     13  C   UNL     1      46.621   3.530   6.745  0.00  0.00    +0.000 C 
ATOM     14  C   UNL     1      46.998   2.145   6.237  0.00  0.00    +0.000 C 
ATOM     15  C   UNL     1      47.227   1.183   7.401  0.00  0.00    +0.000 C 
ATOM     16  N   UNL     1      46.049   1.099   8.266  0.00  0.00    +0.000 NA
ATOM     17  H   UNL     1      46.268   0.462   9.029  0.00  0.00    +0.000 HD
ENDBRANCH  10  11
ENDBRANCH   8  10
ENDBRANCH   5   8
ENDBRANCH   1   2
BRANCH   1  20
ATOM     18  C   UNL     1      46.971   9.854  12.048  0.00  0.00    +0.000 C 
ATOM     19  O   UNL     1      46.130  10.751  12.069  0.00  0.00    +0.000 OA
ATOM     20  N   UNL     1      46.618   8.548  12.277  0.00  0.00    +0.000 N 
ATOM     21  H   UNL     1      47.316   7.819  12.275  0.00  0.00    +0.000 HD
BRANCH  18  29
ATOM     22  C   UNL     1      49.929   8.666  13.319  0.00  0.00    +0.000 A 
ATOM     23  N   UNL     1      51.203   8.304  13.564  0.00  0.00    +0.000 NA
ATOM     24  C   UNL     1      52.167   8.867  12.830  0.00  0.00    +0.000 A 
ATOM     25  N   UNL     1      52.018   9.781  11.874  0.00  0.00    +0.000 NA
ATOM     26  C   UNL     1      50.732  10.100  11.651  0.00  0.00    +0.000 A 
ATOM     27  S   UNL     1      50.345  11.261  10.475  0.00  0.00    +0.000 S 
ATOM     28  C   UNL     1      48.680  11.078  10.769  0.00  0.00    +0.000 A 
ATOM     29  C   UNL     1      48.383  10.133  11.746  0.00  0.00    +0.000 A 
ATOM     30  C   UNL     1      49.615   9.580  12.298  0.00  0.00    +0.000 A 
BRANCH  22  32
ATOM     31  C   UNL     1      48.663   8.796  15.281  0.00  0.00    +0.000 C 
ATOM     32  O   UNL     1      48.930   8.092  14.072  0.00  0.00    +0.000 OA
ENDBRANCH  22  32
ENDBRANCH  18  29
ENDBRANCH   1  20
TORSDOF 7
ENDMDL
MODEL 8
REMARK VINA RESULT:    -6.852      2.644      3.909
REMARK INTER + INTRA:         -10.857
REMARK INTER:                  -9.669
REMARK INTRA:                  -1.187
REMARK UNBOUND:                -1.201
REMARK  Name = 
REMARK  8 active torsions:
REMARK  status: ('A' for Active; 'I' for Inactive)
REMARK    1  A    between atoms: C_1  and  O_2
REMARK    2  A    between atoms: O_2  and  C_3
REMARK    3  A    between atoms: C_10  and  C_11
REMARK    4  A    between atoms: N_13  and  C_14
REMARK    5  A    between atoms: C_14  and  C_15
REMARK    6  A    between atoms: C_18  and  N_19
REMARK    7  A    between atoms: N_19  and  C_20
REMARK    8  A    between atoms: C_20  and  C_21
REMARK                            x       y       z     vdW  Elec       q    Type
REMARK                         _______ _______ _______ _____ _____    ______ ____
ROOT
ATOM      1  C   UNL     1      49.321   7.292  16.026  0.00  0.00    +0.000 C 
ENDROOT
BRANCH   1   2
ATOM      2  C   UNL     1      48.699   6.954  14.694  0.00  0.00    +0.000 A 
ATOM      3  C   UNL     1      47.856   5.845  14.562  0.00  0.00    +0.000 A 
ATOM      4  C   UNL     1      47.150   5.616  13.370  0.00  0.00    +0.000 A 
ATOM      5  C   UNL     1      47.300   6.454  12.262  0.00  0.00    +0.000 A 
ATOM      6  C   UNL     1      48.210   7.516  12.380  0.00  0.00    +0.000 A 
ATOM      7  C   UNL     1      48.907   7.761  13.572  0.00  0.00    +0.000 A 
BRANCH   5   8
ATOM      8  N   UNL     1      46.517   6.379  11.106  0.00  0.00    +0.000 N 
ATOM      9  H   UNL     1      46.979   5.835  10.385  0.00  0.00    +0.000 HD
BRANCH   8  10
ATOM     10  C   UNL     1      45.071   6.138  11.189  0.00  0.00    +0.000 C 
BRANCH  10  11
ATOM     11  C   UNL     1      44.625   4.982  10.242  0.00  0.00    +0.000 C 
ATOM     12  C   UNL     1      44.725   3.639  10.990  0.00  0.00    +0.000 C 
ATOM     13  C   UNL     1      44.395   2.449  10.089  0.00  0.00    +0.000 C 
ATOM     14  C   UNL     1      45.220   2.502   8.810  0.00  0.00    +0.000 C 
ATOM     15  C   UNL     1      45.067   3.856   8.120  0.00  0.00    +0.000 C 
ATOM     16  N   UNL     1      45.444   4.957   9.009  0.00  0.00    +0.000 NA
ATOM     17  H   UNL     1      45.303   5.827   8.501  0.00  0.00    +0.000 HD
ENDBRANCH  10  11
ENDBRANCH   8  10
ENDBRANCH   5   8
ENDBRANCH   1   2
BRANCH   1  20
ATOM     18  C   UNL     1      50.383   6.045  17.856  0.00  0.00    +0.000 C 
ATOM     19  O   UNL     1      49.812   6.740  18.695  0.00  0.00    +0.000 OA
ATOM     20  N   UNL     1      50.191   6.254  16.514  0.00  0.00    +0.000 N 
ATOM     21  H   UNL     1      50.650   5.669  15.832  0.00  0.00    +0.000 HD
BRANCH  18  29
ATOM     22  C   UNL     1      50.535   2.680  17.197  0.00  0.00    +0.000 A 
ATOM     23  N   UNL     1      50.877   1.390  17.018  0.00  0.00    +0.000 NA
ATOM     24  C   UNL     1      52.009   0.958  17.583  0.00  0.00    +0.000 A 
ATOM     25  N   UNL     1      52.850   1.664  18.335  0.00  0.00    +0.000 NA
ATOM     26  C   UNL     1      52.479   2.948  18.472  0.00  0.00    +0.000 A 
ATOM     27  S   UNL     1      53.423   4.001  19.412  0.00  0.00    +0.000 S 
ATOM     28  C   UNL     1      52.385   5.307  19.082  0.00  0.00    +0.000 A 
ATOM     29  C   UNL     1      51.319   4.981  18.251  0.00  0.00    +0.000 A 
ATOM     30  C   UNL     1      51.357   3.559  17.922  0.00  0.00    +0.000 A 
BRANCH  22  32
ATOM     31  C   UNL     1      48.224   2.943  17.447  0.00  0.00    +0.000 C 
ATOM     32  O   UNL     1      49.368   3.132  16.620  0.00  0.00    +0.000 OA
ENDBRANCH  22  32
ENDBRANCH  18  29
ENDBRANCH   1  20
TORSDOF 7
ENDMDL
MODEL 9
REMARK VINA RESULT:    -6.647      4.037      8.824
REMARK INTER + INTRA:         -10.567
REMARK INTER:                  -9.204
REMARK INTRA:                  -1.364
REMARK UNBOUND:                -1.201
REMARK  Name = 
REMARK  8 active torsions:
REMARK  status: ('A' for Active; 'I' for Inactive)
REMARK    1  A    between atoms: C_1  and  O_2
REMARK    2  A    between atoms: O_2  and  C_3
REMARK    3  A    between atoms: C_10  and  C_11
REMARK    4  A    between atoms: N_13  and  C_14
REMARK    5  A    between atoms: C_14  and  C_15
REMARK    6  A    between atoms: C_18  and  N_19
REMARK    7  A    between atoms: N_19  and  C_20
REMARK    8  A    between atoms: C_20  and  C_21
REMARK                            x       y       z     vdW  Elec       q    Type
REMARK                         _______ _______ _______ _____ _____    ______ ____
ROOT
ATOM      1  C   UNL     1      47.342   3.579  17.132  0.00  0.00    +0.000 C 
ENDROOT
BRANCH   1   2
ATOM      2  C   UNL     1      48.798   3.441  17.500  0.00  0.00    +0.000 A 
ATOM      3  C   UNL     1      49.534   2.321  17.097  0.00  0.00    +0.000 A 
ATOM      4  C   UNL     1      50.922   2.262  17.298  0.00  0.00    +0.000 A 
ATOM      5  C   UNL     1      51.609   3.291  17.948  0.00  0.00    +0.000 A 
ATOM      6  C   UNL     1      50.848   4.372  18.419  0.00  0.00    +0.000 A 
ATOM      7  C   UNL     1      49.463   4.447  18.208  0.00  0.00    +0.000 A 
BRANCH   5   8
ATOM      8  N   UNL     1      53.002   3.371  18.042  0.00  0.00    +0.000 N 
ATOM      9  H   UNL     1      53.323   4.326  17.922  0.00  0.00    +0.000 HD
BRANCH   8  10
ATOM     10  C   UNL     1      53.731   2.630  19.079  0.00  0.00    +0.000 C 
BRANCH  10  11
ATOM     11  C   UNL     1      54.513   1.421  18.479  0.00  0.00    +0.000 C 
ATOM     12  C   UNL     1      54.861   1.715  17.007  0.00  0.00    +0.000 C 
ATOM     13  C   UNL     1      55.544   0.530  16.327  0.00  0.00    +0.000 C 
ATOM     14  C   UNL     1      54.729  -0.741  16.522  0.00  0.00    +0.000 C 
ATOM     15  C   UNL     1      54.428  -0.973  18.001  0.00  0.00    +0.000 C 
ATOM     16  N   UNL     1      53.729   0.170  18.591  0.00  0.00    +0.000 NA
ATOM     17  H   UNL     1      53.574  -0.035  19.576  0.00  0.00    +0.000 HD
ENDBRANCH  10  11
ENDBRANCH   8  10
ENDBRANCH   5   8
ENDBRANCH   1   2
BRANCH   1  20
ATOM     18  C   UNL     1      47.146   4.221  14.769  0.00  0.00    +0.000 C 
ATOM     19  O   UNL     1      47.361   3.064  14.411  0.00  0.00    +0.000 OA
ATOM     20  N   UNL     1      47.118   4.556  16.099  0.00  0.00    +0.000 N 
ATOM     21  H   UNL     1      46.924   5.504  16.386  0.00  0.00    +0.000 HD
BRANCH  18  29
ATOM     22  C   UNL     1      48.863   7.103  14.047  0.00  0.00    +0.000 A 
ATOM     23  N   UNL     1      49.390   8.219  13.508  0.00  0.00    +0.000 NA
ATOM     24  C   UNL     1      48.768   8.761  12.456  0.00  0.00    +0.000 A 
ATOM     25  N   UNL     1      47.652   8.329  11.875  0.00  0.00    +0.000 NA
ATOM     26  C   UNL     1      47.171   7.206  12.433  0.00  0.00    +0.000 A 
ATOM     27  S   UNL     1      45.742   6.513  11.833  0.00  0.00    +0.000 S 
ATOM     28  C   UNL     1      45.830   5.238  12.955  0.00  0.00    +0.000 A 
ATOM     29  C   UNL     1      46.939   5.300  13.792  0.00  0.00    +0.000 A 
ATOM     30  C   UNL     1      47.716   6.502  13.502  0.00  0.00    +0.000 A 
BRANCH  22  32
ATOM     31  C   UNL     1      50.704   7.210  15.486  0.00  0.00    +0.000 C 
ATOM     32  O   UNL     1      49.497   6.541  15.133  0.00  0.00    +0.000 OA
ENDBRANCH  22  32
ENDBRANCH  18  29
ENDBRANCH   1  20
TORSDOF 7
ENDMDL
