MODEL 1
REMARK VINA RESULT:    -8.635      0.000      0.000
REMARK INTER + INTRA:         -12.142
REMARK INTER:                 -11.159
REMARK INTRA:                  -0.982
REMARK UNBOUND:                -0.982
REMARK  Name = 
REMARK  5 active torsions:
REMARK  status: ('A' for Active; 'I' for Inactive)
REMARK    1  A    between atoms: C_2  and  C_4
REMARK    2  A    between atoms: C_7  and  N_8
REMARK    3  A    between atoms: N_8  and  C_9
REMARK    4  A    between atoms: C_9  and  C_10
REMARK    5  A    between atoms: C_12  and  C_13
REMARK                            x       y       z     vdW  Elec       q    Type
REMARK                         _______ _______ _______ _____ _____    ______ ____
ROOT
ATOM      1  C   UNL     1      45.333   6.315  11.560  0.00  0.00    +0.000 C 
ATOM      2  C   UNL     1      44.948   7.764  11.343  0.00  0.00    +0.000 C 
ATOM      3  C   UNL     1      44.541   7.069  12.607  0.00  0.00    +0.000 C 
ENDROOT
BRANCH   1   4
ATOM      4  C   UNL     1      44.686   5.176  10.752  0.00  0.00    +0.000 A 
ATOM      5  C   UNL     1      45.271   4.717   9.568  0.00  0.00    +0.000 A 
ATOM      6  C   UNL     1      45.131   3.378   9.171  0.00  0.00    +0.000 A 
ATOM      7  C   UNL     1      44.283   2.580   9.947  0.00  0.00    +0.000 A 
ATOM      8  C   UNL     1      43.605   3.143  11.014  0.00  0.00    +0.000 A 
ATOM      9  N   UNL     1      43.780   4.414  11.422  0.00  0.00    +0.000 NA
BRANCH   6  10
ATOM     10  C   UNL     1      45.931   2.812   8.059  0.00  0.00    +0.000 A 
ATOM     11  C   UNL     1      46.326   3.580   6.950  0.00  0.00    +0.000 A 
ATOM     12  C   UNL     1      47.107   3.026   5.936  0.00  0.00    +0.000 A 
ATOM     13  C   UNL     1      47.491   1.704   6.052  0.00  0.00    +0.000 A 
ATOM     14  N   UNL     1      47.146   0.921   7.091  0.00  0.00    +0.000 NA
ATOM     15  C   UNL     1      46.382   1.490   8.055  0.00  0.00    +0.000 A 
ENDBRANCH   6  10
ENDBRANCH   1   4
BRANCH   1  16
ATOM     16  N   UNL     1      46.739   5.974  11.949  0.00  0.00    +0.000 N 
ATOM     17  H   UNL     1      47.272   6.850  11.996  0.00  0.00    +0.000 HD
BRANCH  16  21
ATOM     18  C   UNL     1      47.536   3.960  15.526  0.00  0.00    +0.000 A 
ATOM     19  C   UNL     1      47.772   5.326  15.446  0.00  0.00    +0.000 A 
ATOM     20  C   UNL     1      47.515   5.976  14.240  0.00  0.00    +0.000 A 
ATOM     21  C   UNL     1      47.009   5.266  13.149  0.00  0.00    +0.000 A 
ATOM     22  C   UNL     1      46.879   3.887  13.309  0.00  0.00    +0.000 A 
ATOM     23  N   UNL     1      47.109   3.211  14.466  0.00  0.00    +0.000 NA
BRANCH  18  25
ATOM     24  N   UNL     1      49.010   3.024  17.192  0.00  0.00    +0.000 N 
ATOM     25  C   UNL     1      47.716   3.250  16.819  0.00  0.00    +0.000 C 
ATOM     26  O   UNL     1      46.772   2.873  17.499  0.00  0.00    +0.000 OA
ATOM     27  H   UNL     1      49.200   2.494  18.028  0.00  0.00    +0.000 HD
ATOM     28  H   UNL     1      49.761   3.319  16.581  0.00  0.00    +0.000 HD
ENDBRANCH  18  25
ENDBRANCH  16  21
ENDBRANCH   1  16
TORSDOF 5
ENDMDL
MODEL 2
REMARK VINA RESULT:    -8.606      3.125      6.964
REMARK INTER + INTRA:         -12.103
REMARK INTER:                 -11.326
REMARK INTRA:                  -0.777
REMARK UNBOUND:                -0.982
REMARK  Name = 
REMARK  5 active torsions:
REMARK  status: ('A' for Active; 'I' for Inactive)
REMARK    1  A    between atoms: C_2  and  C_4
REMARK    2  A    between atoms: C_7  and  N_8
REMARK    3  A    between atoms: N_8  and  C_9
REMARK    4  A    between atoms: C_9  and  C_10
REMARK    5  A    between atoms: C_12  and  C_13
REMARK                            x       y       z     vdW  Elec       q    Type
REMARK                         _______ _______ _______ _____ _____    ______ ____
ROOT
ATOM      1  C   UNL     1      43.813   4.620  11.443  0.00  0.00    +0.000 C 
ATOM      2  C   UNL     1      42.655   5.122  12.281  0.00  0.00    +0.000 C 
ATOM      3  C   UNL     1      43.020   5.837  11.016  0.00  0.00    +0.000 C 
ENDROOT
BRANCH   1   4
ATOM      4  C   UNL     1      45.272   4.755  11.914  0.00  0.00    +0.000 A 
ATOM      5  C   UNL     1      46.034   5.874  11.567  0.00  0.00    +0.000 A 
ATOM      6  C   UNL     1      47.041   6.348  12.422  0.00  0.00    +0.000 A 
ATOM      7  C   UNL     1      47.317   5.574  13.555  0.00  0.00    +0.000 A 
ATOM      8  C   UNL     1      46.633   4.388  13.752  0.00  0.00    +0.000 A 
ATOM      9  N   UNL     1      45.633   3.962  12.958  0.00  0.00    +0.000 NA
BRANCH   6  10
ATOM     10  C   UNL     1      47.696   7.658  12.196  0.00  0.00    +0.000 A 
ATOM     11  C   UNL     1      49.020   7.768  11.736  0.00  0.00    +0.000 A 
ATOM     12  C   UNL     1      49.596   9.017  11.501  0.00  0.00    +0.000 A 
ATOM     13  C   UNL     1      48.830  10.144  11.724  0.00  0.00    +0.000 A 
ATOM     14  N   UNL     1      47.557  10.101  12.161  0.00  0.00    +0.000 NA
ATOM     15  C   UNL     1      47.031   8.872  12.385  0.00  0.00    +0.000 A 
ENDBRANCH   6  10
ENDBRANCH   1   4
BRANCH   1  16
ATOM     16  N   UNL     1      43.630   3.407  10.581  0.00  0.00    +0.000 N 
ATOM     17  H   UNL     1      42.713   3.482  10.126  0.00  0.00    +0.000 HD
BRANCH  16  21
ATOM     18  C   UNL     1      46.400   2.559   7.567  0.00  0.00    +0.000 A 
ATOM     19  C   UNL     1      45.829   3.822   7.631  0.00  0.00    +0.000 A 
ATOM     20  C   UNL     1      44.896   4.080   8.633  0.00  0.00    +0.000 A 
ATOM     21  C   UNL     1      44.567   3.092   9.563  0.00  0.00    +0.000 A 
ATOM     22  C   UNL     1      45.140   1.836   9.367  0.00  0.00    +0.000 A 
ATOM     23  N   UNL     1      46.059   1.539   8.411  0.00  0.00    +0.000 NA
BRANCH  18  25
ATOM     24  N   UNL     1      47.425   3.037   5.435  0.00  0.00    +0.000 N 
ATOM     25  C   UNL     1      47.462   2.274   6.567  0.00  0.00    +0.000 C 
ATOM     26  O   UNL     1      48.303   1.401   6.731  0.00  0.00    +0.000 OA
ATOM     27  H   UNL     1      48.079   2.853   4.690  0.00  0.00    +0.000 HD
ATOM     28  H   UNL     1      46.688   3.722   5.323  0.00  0.00    +0.000 HD
ENDBRANCH  18  25
ENDBRANCH  16  21
ENDBRANCH   1  16
TORSDOF 5
ENDMDL
MODEL 3
REMARK VINA RESULT:    -7.441      3.359      7.097
REMARK INTER + INTRA:         -10.598
REMARK INTER:                 -10.361
REMARK INTRA:                  -0.237
REMARK UNBOUND:                -0.982
REMARK  Name = 
REMARK  5 active torsions:
REMARK  status: ('A' for Active; 'I' for Inactive)
REMARK    1  A    between atoms: C_2  and  C_4
REMARK    2  A    between atoms: C_7  and  N_8
REMARK    3  A    between atoms: N_8  and  C_9
REMARK    4  A    between atoms: C_9  and  C_10
REMARK    5  A    between atoms: C_12  and  C_13
REMARK                            x       y       z     vdW  Elec       q    Type
REMARK                         _______ _______ _______ _____ _____    ______ ____
ROOT
ATOM      1  C   UNL     1      44.273   4.412  11.784  0.00  0.00    +0.000 C 
ATOM      2  C   UNL     1      44.876   3.231  12.518  0.00  0.00    +0.000 C 
ATOM      3  C   UNL     1      43.444   3.600  12.756  0.00  0.00    +0.000 C 
ENDROOT
BRANCH   1   4
ATOM      4  C   UNL     1      44.677   5.860  12.110  0.00  0.00    +0.000 A 
ATOM      5  C   UNL     1      45.964   6.158  12.568  0.00  0.00    +0.000 A 
ATOM      6  C   UNL     1      46.560   7.394  12.274  0.00  0.00    +0.000 A 
ATOM      7  C   UNL     1      45.759   8.338  11.622  0.00  0.00    +0.000 A 
ATOM      8  C   UNL     1      44.438   8.034  11.344  0.00  0.00    +0.000 A 
ATOM      9  N   UNL     1      43.884   6.830  11.581  0.00  0.00    +0.000 NA
BRANCH   6  10
ATOM     10  C   UNL     1      47.998   7.642  12.537  0.00  0.00    +0.000 A 
ATOM     11  C   UNL     1      48.932   7.826  11.503  0.00  0.00    +0.000 A 
ATOM     12  C   UNL     1      50.272   8.091  11.784  0.00  0.00    +0.000 A 
ATOM     13  C   UNL     1      50.659   8.177  13.107  0.00  0.00    +0.000 A 
ATOM     14  N   UNL     1      49.810   8.013  14.140  0.00  0.00    +0.000 NA
ATOM     15  C   UNL     1      48.517   7.751  13.830  0.00  0.00    +0.000 A 
ENDBRANCH   6  10
ENDBRANCH   1   4
BRANCH   1  16
ATOM     16  N   UNL     1      43.887   4.267  10.343  0.00  0.00    +0.000 N 
ATOM     17  H   UNL     1      43.538   5.177  10.019  0.00  0.00    +0.000 HD
BRANCH  16  21
ATOM     18  C   UNL     1      46.637   2.892   7.509  0.00  0.00    +0.000 A 
ATOM     19  C   UNL     1      45.944   1.974   8.286  0.00  0.00    +0.000 A 
ATOM     20  C   UNL     1      45.044   2.453   9.236  0.00  0.00    +0.000 A 
ATOM     21  C   UNL     1      44.831   3.826   9.379  0.00  0.00    +0.000 A 
ATOM     22  C   UNL     1      45.631   4.664   8.603  0.00  0.00    +0.000 A 
ATOM     23  N   UNL     1      46.515   4.244   7.659  0.00  0.00    +0.000 NA
BRANCH  18  25
ATOM     24  N   UNL     1      47.442   3.088   5.242  0.00  0.00    +0.000 N 
ATOM     25  C   UNL     1      47.539   2.417   6.427  0.00  0.00    +0.000 C 
ATOM     26  O   UNL     1      48.305   1.475   6.577  0.00  0.00    +0.000 OA
ATOM     27  H   UNL     1      47.982   2.776   4.450  0.00  0.00    +0.000 HD
ATOM     28  H   UNL     1      46.767   3.836   5.150  0.00  0.00    +0.000 HD
ENDBRANCH  18  25
ENDBRANCH  16  21
ENDBRANCH   1  16
TORSDOF 5
ENDMDL
MODEL 4
REMARK VINA RESULT:    -6.904      1.686      2.383
REMARK INTER + INTRA:          -9.905
REMARK INTER:                  -8.870
REMARK INTRA:                  -1.035
REMARK UNBOUND:                -0.982
REMARK  Name = 
REMARK  5 active torsions:
REMARK  status: ('A' for Active; 'I' for Inactive)
REMARK    1  A    between atoms: C_2  and  C_4
REMARK    2  A    between atoms: C_7  and  N_8
REMARK    3  A    between atoms: N_8  and  C_9
REMARK    4  A    between atoms: C_9  and  C_10
REMARK    5  A    between atoms: C_12  and  C_13
REMARK                            x       y       z     vdW  Elec       q    Type
REMARK                         _______ _______ _______ _____ _____    ______ ____
ROOT
ATOM      1  C   UNL     1      46.791   7.668  12.407  0.00  0.00    +0.000 C 
ATOM      2  C   UNL     1      47.088   9.119  12.088  0.00  0.00    +0.000 C 
ATOM      3  C   UNL     1      46.514   8.756  13.423  0.00  0.00    +0.000 C 
ENDROOT
BRANCH   1   4
ATOM      4  C   UNL     1      45.636   6.910  11.729  0.00  0.00    +0.000 A 
ATOM      5  C   UNL     1      45.871   6.098  10.615  0.00  0.00    +0.000 A 
ATOM      6  C   UNL     1      45.079   4.964  10.377  0.00  0.00    +0.000 A 
ATOM      7  C   UNL     1      43.986   4.771  11.229  0.00  0.00    +0.000 A 
ATOM      8  C   UNL     1      43.717   5.705  12.213  0.00  0.00    +0.000 A 
ATOM      9  N   UNL     1      44.506   6.765  12.472  0.00  0.00    +0.000 NA
BRANCH   6  10
ATOM     10  C   UNL     1      45.452   3.962   9.349  0.00  0.00    +0.000 A 
ATOM     11  C   UNL     1      45.289   2.580   9.552  0.00  0.00    +0.000 A 
ATOM     12  C   UNL     1      45.618   1.665   8.552  0.00  0.00    +0.000 A 
ATOM     13  C   UNL     1      46.101   2.151   7.352  0.00  0.00    +0.000 A 
ATOM     14  N   UNL     1      46.276   3.462   7.100  0.00  0.00    +0.000 NA
ATOM     15  C   UNL     1      45.952   4.323   8.096  0.00  0.00    +0.000 A 
ENDBRANCH   6  10
ENDBRANCH   1   4
BRANCH   1  16
ATOM     16  N   UNL     1      47.918   6.743  12.756  0.00  0.00    +0.000 N 
ATOM     17  H   UNL     1      48.792   7.278  12.693  0.00  0.00    +0.000 HD
BRANCH  16  21
ATOM     18  C   UNL     1      47.947   4.686  16.395  0.00  0.00    +0.000 A 
ATOM     19  C   UNL     1      47.103   4.259  15.379  0.00  0.00    +0.000 A 
ATOM     20  C   UNL     1      47.097   4.968  14.179  0.00  0.00    +0.000 A 
ATOM     21  C   UNL     1      47.941   6.066  14.003  0.00  0.00    +0.000 A 
ATOM     22  C   UNL     1      48.693   6.458  15.110  0.00  0.00    +0.000 A 
ATOM     23  N   UNL     1      48.738   5.795  16.296  0.00  0.00    +0.000 NA
BRANCH  18  25
ATOM     24  N   UNL     1      47.405   4.445  18.735  0.00  0.00    +0.000 N 
ATOM     25  C   UNL     1      48.044   3.904  17.656  0.00  0.00    +0.000 C 
ATOM     26  O   UNL     1      48.670   2.856  17.733  0.00  0.00    +0.000 OA
ATOM     27  H   UNL     1      47.485   3.996  19.635  0.00  0.00    +0.000 HD
ATOM     28  H   UNL     1      46.931   5.333  18.637  0.00  0.00    +0.000 HD
ENDBRANCH  18  25
ENDBRANCH  16  21
ENDBRANCH   1  16
TORSDOF 5
ENDMDL
MODEL 5
REMARK VINA RESULT:    -6.819      1.922      3.132
REMARK INTER + INTRA:          -9.794
REMARK INTER:                  -8.696
REMARK INTRA:                  -1.098
REMARK UNBOUND:                -0.982
REMARK  Name = 
REMARK  5 active torsions:
REMARK  status: ('A' for Active; 'I' for Inactive)
REMARK    1  A    between atoms: C_2  and  C_4
REMARK    2  A    between atoms: C_7  and  N_8
REMARK    3  A    between atoms: N_8  and  C_9
REMARK    4  A    between atoms: C_9  and  C_10
REMARK    5  A    between atoms: C_12  and  C_13
REMARK                            x       y       z     vdW  Elec       q    Type
REMARK                         _______ _______ _______ _____ _____    ______ ____
ROOT
ATOM      1  C   UNL     1      48.126   7.983  12.288  0.00  0.00    +0.000 C 
ATOM      2  C   UNL     1      48.926   9.097  11.644  0.00  0.00    +0.000 C 
ATOM      3  C   UNL     1      48.418   9.262  13.044  0.00  0.00    +0.000 C 
ENDROOT
BRANCH   1   4
ATOM      4  C   UNL     1      46.695   7.647  11.832  0.00  0.00    +0.000 A 
ATOM      5  C   UNL     1      46.465   6.660  10.868  0.00  0.00    +0.000 A 
ATOM      6  C   UNL     1      45.285   5.902  10.888  0.00  0.00    +0.000 A 
ATOM      7  C   UNL     1      44.317   6.270  11.829  0.00  0.00    +0.000 A 
ATOM      8  C   UNL     1      44.544   7.363  12.646  0.00  0.00    +0.000 A 
ATOM      9  N   UNL     1      45.697   8.058  12.660  0.00  0.00    +0.000 NA
BRANCH   6  10
ATOM     10  C   UNL     1      45.122   4.701  10.034  0.00  0.00    +0.000 A 
ATOM     11  C   UNL     1      45.611   4.642   8.717  0.00  0.00    +0.000 A 
ATOM     12  C   UNL     1      45.471   3.485   7.951  0.00  0.00    +0.000 A 
ATOM     13  C   UNL     1      44.847   2.393   8.521  0.00  0.00    +0.000 A 
ATOM     14  N   UNL     1      44.363   2.389   9.777  0.00  0.00    +0.000 NA
ATOM     15  C   UNL     1      44.510   3.532  10.491  0.00  0.00    +0.000 A 
ENDBRANCH   6  10
ENDBRANCH   1   4
BRANCH   1  16
ATOM     16  N   UNL     1      48.833   6.766  12.801  0.00  0.00    +0.000 N 
ATOM     17  H   UNL     1      49.819   7.015  12.946  0.00  0.00    +0.000 HD
BRANCH  16  21
ATOM     18  C   UNL     1      47.515   4.794  16.244  0.00  0.00    +0.000 A 
ATOM     19  C   UNL     1      47.006   4.420  15.008  0.00  0.00    +0.000 A 
ATOM     20  C   UNL     1      47.447   5.100  13.874  0.00  0.00    +0.000 A 
ATOM     21  C   UNL     1      48.396   6.117  13.985  0.00  0.00    +0.000 A 
ATOM     22  C   UNL     1      48.787   6.466  15.277  0.00  0.00    +0.000 A 
ATOM     23  N   UNL     1      48.392   5.829  16.411  0.00  0.00    +0.000 NA
BRANCH  18  25
ATOM     24  N   UNL     1      47.452   4.631  18.651  0.00  0.00    +0.000 N 
ATOM     25  C   UNL     1      47.134   4.035  17.464  0.00  0.00    +0.000 C 
ATOM     26  O   UNL     1      46.592   2.940  17.415  0.00  0.00    +0.000 OA
ATOM     27  H   UNL     1      47.277   4.140  19.515  0.00  0.00    +0.000 HD
ATOM     28  H   UNL     1      47.936   5.519  18.646  0.00  0.00    +0.000 HD
ENDBRANCH  18  25
ENDBRANCH  16  21
ENDBRANCH   1  16
TORSDOF 5
ENDMDL
MODEL 6
REMARK VINA RESULT:    -6.366      3.042      3.677
REMARK INTER + INTRA:          -9.209
REMARK INTER:                  -9.052
REMARK INTRA:                  -0.156
REMARK UNBOUND:                -0.982
REMARK  Name = 
REMARK  5 active torsions:
REMARK  status: ('A' for Active; 'I' for Inactive)
REMARK    1  A    between atoms: C_2  and  C_4
REMARK    2  A    between atoms: C_7  and  N_8
REMARK    3  A    between atoms: N_8  and  C_9
REMARK    4  A    between atoms: C_9  and  C_10
REMARK    5  A    between atoms: C_12  and  C_13
REMARK                            x       y       z     vdW  Elec       q    Type
REMARK                         _______ _______ _______ _____ _____    ______ ____
ROOT
ATOM      1  C   UNL     1      45.561   6.521  11.728  0.00  0.00    +0.000 C 
ATOM      2  C   UNL     1      45.237   7.994  11.577  0.00  0.00    +0.000 C 
ATOM      3  C   UNL     1      44.878   7.281  12.845  0.00  0.00    +0.000 C 
ENDROOT
BRANCH   1   4
ATOM      4  C   UNL     1      44.807   5.440  10.935  0.00  0.00    +0.000 A 
ATOM      5  C   UNL     1      45.357   4.892   9.773  0.00  0.00    +0.000 A 
ATOM      6  C   UNL     1      45.078   3.566   9.405  0.00  0.00    +0.000 A 
ATOM      7  C   UNL     1      44.136   2.884  10.182  0.00  0.00    +0.000 A 
ATOM      8  C   UNL     1      43.507   3.544  11.223  0.00  0.00    +0.000 A 
ATOM      9  N   UNL     1      43.813   4.798  11.605  0.00  0.00    +0.000 NA
BRANCH   6  10
ATOM     10  C   UNL     1      45.829   2.889   8.320  0.00  0.00    +0.000 A 
ATOM     11  C   UNL     1      46.323   3.582   7.201  0.00  0.00    +0.000 A 
ATOM     12  C   UNL     1      47.055   2.921   6.215  0.00  0.00    +0.000 A 
ATOM     13  C   UNL     1      47.291   1.569   6.368  0.00  0.00    +0.000 A 
ATOM     14  N   UNL     1      46.846   0.854   7.419  0.00  0.00    +0.000 NA
ATOM     15  C   UNL     1      46.133   1.526   8.356  0.00  0.00    +0.000 A 
ENDBRANCH   6  10
ENDBRANCH   1   4
BRANCH   1  16
ATOM     16  N   UNL     1      46.971   6.101  12.015  0.00  0.00    +0.000 N 
ATOM     17  H   UNL     1      47.358   5.697  11.154  0.00  0.00    +0.000 HD
BRANCH  16  21
ATOM     18  C   UNL     1      49.785   8.892  13.345  0.00  0.00    +0.000 A 
ATOM     19  C   UNL     1      49.623   8.685  11.982  0.00  0.00    +0.000 A 
ATOM     20  C   UNL     1      48.692   7.739  11.559  0.00  0.00    +0.000 A 
ATOM     21  C   UNL     1      47.925   7.037  12.492  0.00  0.00    +0.000 A 
ATOM     22  C   UNL     1      48.217   7.265  13.836  0.00  0.00    +0.000 A 
ATOM     23  N   UNL     1      49.109   8.181  14.296  0.00  0.00    +0.000 NA
BRANCH  18  25
ATOM     24  N   UNL     1      51.989   9.553  14.075  0.00  0.00    +0.000 N 
ATOM     25  C   UNL     1      50.706   9.953  13.830  0.00  0.00    +0.000 C 
ATOM     26  O   UNL     1      50.341  11.105  14.019  0.00  0.00    +0.000 OA
ATOM     27  H   UNL     1      52.648  10.210  14.464  0.00  0.00    +0.000 HD
ATOM     28  H   UNL     1      52.239   8.582  13.941  0.00  0.00    +0.000 HD
ENDBRANCH  18  25
ENDBRANCH  16  21
ENDBRANCH   1  16
TORSDOF 5
ENDMDL
MODEL 7
REMARK VINA RESULT:    -6.357      3.671      6.170
REMARK INTER + INTRA:          -9.198
REMARK INTER:                  -9.121
REMARK INTRA:                  -0.077
REMARK UNBOUND:                -0.982
REMARK  Name = 
REMARK  5 active torsions:
REMARK  status: ('A' for Active; 'I' for Inactive)
REMARK    1  A    between atoms: C_2  and  C_4
REMARK    2  A    between atoms: C_7  and  N_8
REMARK    3  A    between atoms: N_8  and  C_9
REMARK    4  A    between atoms: C_9  and  C_10
REMARK    5  A    between atoms: C_12  and  C_13
REMARK                            x       y       z     vdW  Elec       q    Type
REMARK                         _______ _______ _______ _____ _____    ______ ____
ROOT
ATOM      1  C   UNL     1      48.069   4.506  17.007  0.00  0.00    +0.000 C 
ATOM      2  C   UNL     1      46.875   4.632  17.932  0.00  0.00    +0.000 C 
ATOM      3  C   UNL     1      47.352   3.274  17.518  0.00  0.00    +0.000 C 
ENDROOT
BRANCH   1   4
ATOM      4  C   UNL     1      47.989   4.905  15.523  0.00  0.00    +0.000 A 
ATOM      5  C   UNL     1      46.969   4.412  14.704  0.00  0.00    +0.000 A 
ATOM      6  C   UNL     1      46.481   5.174  13.631  0.00  0.00    +0.000 A 
ATOM      7  C   UNL     1      47.150   6.373  13.357  0.00  0.00    +0.000 A 
ATOM      8  C   UNL     1      48.258   6.721  14.109  0.00  0.00    +0.000 A 
ATOM      9  N   UNL     1      48.692   6.014  15.169  0.00  0.00    +0.000 NA
BRANCH   6  10
ATOM     10  C   UNL     1      45.251   4.785  12.901  0.00  0.00    +0.000 A 
ATOM     11  C   UNL     1      44.175   5.669  12.714  0.00  0.00    +0.000 A 
ATOM     12  C   UNL     1      43.045   5.283  11.993  0.00  0.00    +0.000 A 
ATOM     13  C   UNL     1      43.013   4.009  11.459  0.00  0.00    +0.000 A 
ATOM     14  N   UNL     1      44.013   3.120  11.603  0.00  0.00    +0.000 NA
ATOM     15  C   UNL     1      45.093   3.527  12.314  0.00  0.00    +0.000 A 
ENDBRANCH   6  10
ENDBRANCH   1   4
BRANCH   1  16
ATOM     16  N   UNL     1      49.450   4.710  17.551  0.00  0.00    +0.000 N 
ATOM     17  H   UNL     1      49.360   5.044  18.518  0.00  0.00    +0.000 HD
BRANCH  16  21
ATOM     18  C   UNL     1      52.253   1.610  17.671  0.00  0.00    +0.000 A 
ATOM     19  C   UNL     1      52.602   2.862  18.156  0.00  0.00    +0.000 A 
ATOM     20  C   UNL     1      51.659   3.887  18.093  0.00  0.00    +0.000 A 
ATOM     21  C   UNL     1      50.386   3.643  17.574  0.00  0.00    +0.000 A 
ATOM     22  C   UNL     1      50.161   2.372  17.046  0.00  0.00    +0.000 A 
ATOM     23  N   UNL     1      51.045   1.341  17.092  0.00  0.00    +0.000 NA
BRANCH  18  25
ATOM     24  N   UNL     1      53.475  -0.201  16.646  0.00  0.00    +0.000 N 
ATOM     25  C   UNL     1      53.201   0.472  17.802  0.00  0.00    +0.000 C 
ATOM     26  O   UNL     1      53.691   0.144  18.873  0.00  0.00    +0.000 OA
ATOM     27  H   UNL     1      54.063  -1.021  16.677  0.00  0.00    +0.000 HD
ATOM     28  H   UNL     1      53.018   0.080  15.788  0.00  0.00    +0.000 HD
ENDBRANCH  18  25
ENDBRANCH  16  21
ENDBRANCH   1  16
TORSDOF 5
ENDMDL
MODEL 8
REMARK VINA RESULT:    -6.274      3.932      8.860
REMARK INTER + INTRA:          -9.090
REMARK INTER:                  -8.285
REMARK INTRA:                  -0.806
REMARK UNBOUND:                -0.982
REMARK  Name = 
REMARK  5 active torsions:
REMARK  status: ('A' for Active; 'I' for Inactive)
REMARK    1  A    between atoms: C_2  and  C_4
REMARK    2  A    between atoms: C_7  and  N_8
REMARK    3  A    between atoms: N_8  and  C_9
REMARK    4  A    between atoms: C_9  and  C_10
REMARK    5  A    between atoms: C_12  and  C_13
REMARK                            x       y       z     vdW  Elec       q    Type
REMARK                         _______ _______ _______ _____ _____    ______ ____
ROOT
ATOM      1  C   UNL     1      48.040   7.614  13.381  0.00  0.00    +0.000 C 
ATOM      2  C   UNL     1      48.694   8.443  12.295  0.00  0.00    +0.000 C 
ATOM      3  C   UNL     1      48.705   6.948  12.196  0.00  0.00    +0.000 C 
ENDROOT
BRANCH   1   4
ATOM      4  C   UNL     1      48.647   7.502  14.791  0.00  0.00    +0.000 A 
ATOM      5  C   UNL     1      48.453   8.514  15.735  0.00  0.00    +0.000 A 
ATOM      6  C   UNL     1      48.404   8.215  17.106  0.00  0.00    +0.000 A 
ATOM      7  C   UNL     1      48.683   6.893  17.470  0.00  0.00    +0.000 A 
ATOM      8  C   UNL     1      49.029   5.977  16.493  0.00  0.00    +0.000 A 
ATOM      9  N   UNL     1      49.025   6.253  15.175  0.00  0.00    +0.000 NA
BRANCH   6  10
ATOM     10  C   UNL     1      47.966   9.222  18.102  0.00  0.00    +0.000 A 
ATOM     11  C   UNL     1      47.864  10.589  17.796  0.00  0.00    +0.000 A 
ATOM     12  C   UNL     1      47.416  11.506  18.747  0.00  0.00    +0.000 A 
ATOM     13  C   UNL     1      47.066  11.036  19.997  0.00  0.00    +0.000 A 
ATOM     14  N   UNL     1      47.140   9.738  20.347  0.00  0.00    +0.000 NA
ATOM     15  C   UNL     1      47.585   8.875  19.401  0.00  0.00    +0.000 A 
ENDBRANCH   6  10
ENDBRANCH   1   4
BRANCH   1  16
ATOM     16  N   UNL     1      46.546   7.496  13.422  0.00  0.00    +0.000 N 
ATOM     17  H   UNL     1      46.155   8.307  12.929  0.00  0.00    +0.000 HD
BRANCH  16  21
ATOM     18  C   UNL     1      44.627   4.148  11.813  0.00  0.00    +0.000 A 
ATOM     19  C   UNL     1      44.639   5.336  11.095  0.00  0.00    +0.000 A 
ATOM     20  C   UNL     1      45.270   6.445  11.656  0.00  0.00    +0.000 A 
ATOM     21  C   UNL     1      45.895   6.347  12.901  0.00  0.00    +0.000 A 
ATOM     22  C   UNL     1      45.761   5.132  13.572  0.00  0.00    +0.000 A 
ATOM     23  N   UNL     1      45.163   4.023  13.064  0.00  0.00    +0.000 NA
BRANCH  18  25
ATOM     24  N   UNL     1      44.698   2.429  10.120  0.00  0.00    +0.000 N 
ATOM     25  C   UNL     1      44.039   2.923  11.210  0.00  0.00    +0.000 C 
ATOM     26  O   UNL     1      43.023   2.398  11.644  0.00  0.00    +0.000 OA
ATOM     27  H   UNL     1      44.317   1.636   9.627  0.00  0.00    +0.000 HD
ATOM     28  H   UNL     1      45.513   2.917   9.770  0.00  0.00    +0.000 HD
ENDBRANCH  18  25
ENDBRANCH  16  21
ENDBRANCH   1  16
TORSDOF 5
ENDMDL
MODEL 9
REMARK VINA RESULT:    -6.061      3.158      7.741
REMARK INTER + INTRA:          -8.814
REMARK INTER:                  -8.206
REMARK INTRA:                  -0.608
REMARK UNBOUND:                -0.982
REMARK  Name = 
REMARK  5 active torsions:
REMARK  status: ('A' for Active; 'I' for Inactive)
REMARK    1  A    between atoms: C_2  and  C_4
REMARK    2  A    between atoms: C_7  and  N_8
REMARK    3  A    between atoms: N_8  and  C_9
REMARK    4  A    between atoms: C_9  and  C_10
REMARK    5  A    between atoms: C_12  and  C_13
REMARK                            x       y       z     vdW  Elec       q    Type
REMARK                         _______ _______ _______ _____ _____    ______ ____
ROOT
ATOM      1  C   UNL     1      47.949   8.207  13.009  0.00  0.00    +0.000 C 
ATOM      2  C   UNL     1      48.215   9.265  11.957  0.00  0.00    +0.000 C 
ATOM      3  C   UNL     1      48.457   7.822  11.636  0.00  0.00    +0.000 C 
ENDROOT
BRANCH   1   4
ATOM      4  C   UNL     1      48.845   8.057  14.251  0.00  0.00    +0.000 A 
ATOM      5  C   UNL     1      48.485   7.196  15.292  0.00  0.00    +0.000 A 
ATOM      6  C   UNL     1      49.467   6.557  16.065  0.00  0.00    +0.000 A 
ATOM      7  C   UNL     1      50.795   6.925  15.821  0.00  0.00    +0.000 A 
ATOM      8  C   UNL     1      51.068   7.907  14.885  0.00  0.00    +0.000 A 
ATOM      9  N   UNL     1      50.129   8.481  14.110  0.00  0.00    +0.000 NA
BRANCH   6  10
ATOM     10  C   UNL     1      49.122   5.466  17.008  0.00  0.00    +0.000 A 
ATOM     11  C   UNL     1      48.090   4.548  16.750  0.00  0.00    +0.000 A 
ATOM     12  C   UNL     1      47.812   3.512  17.642  0.00  0.00    +0.000 A 
ATOM     13  C   UNL     1      48.583   3.406  18.783  0.00  0.00    +0.000 A 
ATOM     14  N   UNL     1      49.586   4.253  19.082  0.00  0.00    +0.000 NA
ATOM     15  C   UNL     1      49.824   5.251  18.196  0.00  0.00    +0.000 A 
ENDBRANCH   6  10
ENDBRANCH   1   4
BRANCH   1  16
ATOM     16  N   UNL     1      46.538   7.796  13.303  0.00  0.00    +0.000 N 
ATOM     17  H   UNL     1      45.926   8.584  13.062  0.00  0.00    +0.000 HD
BRANCH  16  21
ATOM     18  C   UNL     1      44.906   4.352  11.585  0.00  0.00    +0.000 A 
ATOM     19  C   UNL     1      45.776   4.230  12.659  0.00  0.00    +0.000 A 
ATOM     20  C   UNL     1      46.322   5.389  13.208  0.00  0.00    +0.000 A 
ATOM     21  C   UNL     1      45.977   6.642  12.698  0.00  0.00    +0.000 A 
ATOM     22  C   UNL     1      45.154   6.652  11.572  0.00  0.00    +0.000 A 
ATOM     23  N   UNL     1      44.593   5.550  11.007  0.00  0.00    +0.000 NA
BRANCH  18  25
ATOM     24  N   UNL     1      44.969   2.432  10.124  0.00  0.00    +0.000 N 
ATOM     25  C   UNL     1      44.238   3.146  11.030  0.00  0.00    +0.000 C 
ATOM     26  O   UNL     1      43.102   2.820  11.345  0.00  0.00    +0.000 OA
ATOM     27  H   UNL     1      44.550   1.638   9.664  0.00  0.00    +0.000 HD
ATOM     28  H   UNL     1      45.890   2.759   9.862  0.00  0.00    +0.000 HD
ENDBRANCH  18  25
ENDBRANCH  16  21
ENDBRANCH   1  16
TORSDOF 5
ENDMDL
