MODEL 1
REMARK VINA RESULT:    -9.129      0.000      0.000
REMARK INTER + INTRA:         -13.396
REMARK INTER:                 -12.331
REMARK INTRA:                  -1.065
REMARK UNBOUND:                -1.065
REMARK  Name = 
REMARK  6 active torsions:
REMARK  status: ('A' for Active; 'I' for Inactive)
REMARK    1  A    between atoms: C_2  and  C_4
REMARK    2  A    between atoms: C_7  and  O_8
REMARK    3  A    between atoms: O_8  and  C_9
REMARK    4  A    between atoms: C_9  and  C_10
REMARK    5  A    between atoms: C_15  and  C_16
REMARK    6  A    between atoms: C_20  and  C_21
REMARK                            x       y       z     vdW  Elec       q    Type
REMARK                         _______ _______ _______ _____ _____    ______ ____
ROOT
ATOM      1  C   UNL     1      44.869   4.724  11.950  0.00  0.00    +0.000 A 
ATOM      2  C   UNL     1      45.456   3.857  12.875  0.00  0.00    +0.000 A 
ATOM      3  C   UNL     1      46.643   4.221  13.497  0.00  0.00    +0.000 A 
ATOM      4  F   UNL     1      47.208   3.383  14.377  0.00  0.00    +0.000 F 
ATOM      5  C   UNL     1      47.260   5.438  13.225  0.00  0.00    +0.000 A 
ATOM      6  C   UNL     1      46.687   6.347  12.321  0.00  0.00    +0.000 A 
ATOM      7  C   UNL     1      45.485   5.961  11.692  0.00  0.00    +0.000 A 
ENDROOT
BRANCH   6   8
ATOM      8  C   UNL     1      47.284   7.678  12.068  0.00  0.00    +0.000 A 
ATOM      9  C   UNL     1      46.546   8.863  12.228  0.00  0.00    +0.000 A 
ATOM     10  C   UNL     1      47.138  10.119  12.072  0.00  0.00    +0.000 A 
ATOM     11  C   UNL     1      48.490  10.218  11.755  0.00  0.00    +0.000 A 
ATOM     12  C   UNL     1      49.258   9.063  11.582  0.00  0.00    +0.000 A 
ATOM     13  C   UNL     1      48.641   7.806  11.719  0.00  0.00    +0.000 A 
BRANCH  12  14
ATOM     14  C   UNL     1      50.737   9.135  11.300  0.00  0.00    +0.000 C 
ATOM     15  F   UNL     1      51.216   8.061  10.612  0.00  0.00    +0.000 F 
ATOM     16  F   UNL     1      51.067  10.229  10.556  0.00  0.00    +0.000 F 
ATOM     17  F   UNL     1      51.485   9.217  12.434  0.00  0.00    +0.000 F 
ENDBRANCH  12  14
ENDBRANCH   6   8
BRANCH   1  18
ATOM     18  C   UNL     1      43.608   4.339  11.216  0.00  0.00    +0.000 C 
BRANCH  18  19
ATOM     19  O   UNL     1      43.683   4.725   9.838  0.00  0.00    +0.000 OA
BRANCH  19  23
ATOM     20  C   UNL     1      46.322   2.304   7.784  0.00  0.00    +0.000 A 
ATOM     21  C   UNL     1      45.445   1.734   8.710  0.00  0.00    +0.000 A 
ATOM     22  C   UNL     1      44.548   2.556   9.402  0.00  0.00    +0.000 A 
ATOM     23  C   UNL     1      44.566   3.918   9.140  0.00  0.00    +0.000 A 
ATOM     24  N   UNL     1      45.401   4.491   8.247  0.00  0.00    +0.000 NA
ATOM     25  C   UNL     1      46.266   3.679   7.599  0.00  0.00    +0.000 A 
BRANCH  20  27
ATOM     26  N   UNL     1      48.433   2.231   6.576  0.00  0.00    +0.000 N 
ATOM     27  C   UNL     1      47.333   1.549   7.022  0.00  0.00    +0.000 C 
ATOM     28  O   UNL     1      47.220   0.346   6.827  0.00  0.00    +0.000 OA
ATOM     29  H   UNL     1      49.163   1.670   6.156  0.00  0.00    +0.000 HD
ATOM     30  H   UNL     1      48.686   3.140   6.932  0.00  0.00    +0.000 HD
ENDBRANCH  20  27
ENDBRANCH  19  23
ENDBRANCH  18  19
ENDBRANCH   1  18
TORSDOF 6
ENDMDL
MODEL 2
REMARK VINA RESULT:    -9.107      2.538      4.788
REMARK INTER + INTRA:         -13.365
REMARK INTER:                 -12.264
REMARK INTRA:                  -1.101
REMARK UNBOUND:                -1.065
REMARK  Name = 
REMARK  6 active torsions:
REMARK  status: ('A' for Active; 'I' for Inactive)
REMARK    1  A    between atoms: C_2  and  C_4
REMARK    2  A    between atoms: C_7  and  O_8
REMARK    3  A    between atoms: O_8  and  C_9
REMARK    4  A    between atoms: C_9  and  C_10
REMARK    5  A    between atoms: C_15  and  C_16
REMARK    6  A    between atoms: C_20  and  C_21
REMARK                            x       y       z     vdW  Elec       q    Type
REMARK                         _______ _______ _______ _____ _____    ______ ____
ROOT
ATOM      1  C   UNL     1      44.935   5.461  11.987  0.00  0.00    +0.000 A 
ATOM      2  C   UNL     1      44.924   6.752  11.453  0.00  0.00    +0.000 A 
ATOM      3  C   UNL     1      45.744   7.728  12.005  0.00  0.00    +0.000 A 
ATOM      4  F   UNL     1      45.725   8.967  11.495  0.00  0.00    +0.000 F 
ATOM      5  C   UNL     1      46.585   7.446  13.077  0.00  0.00    +0.000 A 
ATOM      6  C   UNL     1      46.642   6.155  13.624  0.00  0.00    +0.000 A 
ATOM      7  C   UNL     1      45.800   5.176  13.058  0.00  0.00    +0.000 A 
ENDROOT
BRANCH   6   8
ATOM      8  C   UNL     1      47.579   5.811  14.718  0.00  0.00    +0.000 A 
ATOM      9  C   UNL     1      48.579   6.703  15.143  0.00  0.00    +0.000 A 
ATOM     10  C   UNL     1      49.405   6.409  16.231  0.00  0.00    +0.000 A 
ATOM     11  C   UNL     1      49.245   5.213  16.925  0.00  0.00    +0.000 A 
ATOM     12  C   UNL     1      48.266   4.297  16.530  0.00  0.00    +0.000 A 
ATOM     13  C   UNL     1      47.459   4.597  15.418  0.00  0.00    +0.000 A 
BRANCH  12  14
ATOM     14  C   UNL     1      48.025   3.021  17.297  0.00  0.00    +0.000 C 
ATOM     15  F   UNL     1      48.540   1.915  16.694  0.00  0.00    +0.000 F 
ATOM     16  F   UNL     1      48.581   3.057  18.542  0.00  0.00    +0.000 F 
ATOM     17  F   UNL     1      46.702   2.763  17.487  0.00  0.00    +0.000 F 
ENDBRANCH  12  14
ENDBRANCH   6   8
BRANCH   1  18
ATOM     18  C   UNL     1      44.019   4.389  11.447  0.00  0.00    +0.000 C 
BRANCH  18  19
ATOM     19  O   UNL     1      43.756   4.599  10.055  0.00  0.00    +0.000 OA
BRANCH  19  23
ATOM     20  C   UNL     1      46.379   2.421   7.727  0.00  0.00    +0.000 A 
ATOM     21  C   UNL     1      45.612   1.766   8.692  0.00  0.00    +0.000 A 
ATOM     22  C   UNL     1      44.720   2.506   9.479  0.00  0.00    +0.000 A 
ATOM     23  C   UNL     1      44.633   3.874   9.265  0.00  0.00    +0.000 A 
ATOM     24  N   UNL     1      45.360   4.528   8.335  0.00  0.00    +0.000 NA
ATOM     25  C   UNL     1      46.223   3.794   7.595  0.00  0.00    +0.000 A 
BRANCH  20  27
ATOM     26  N   UNL     1      48.458   2.493   6.464  0.00  0.00    +0.000 N 
ATOM     27  C   UNL     1      47.375   1.758   6.865  0.00  0.00    +0.000 C 
ATOM     28  O   UNL     1      47.267   0.580   6.552  0.00  0.00    +0.000 OA
ATOM     29  H   UNL     1      49.181   1.985   5.970  0.00  0.00    +0.000 HD
ATOM     30  H   UNL     1      48.713   3.364   6.903  0.00  0.00    +0.000 HD
ENDBRANCH  20  27
ENDBRANCH  19  23
ENDBRANCH  18  19
ENDBRANCH   1  18
TORSDOF 6
ENDMDL
MODEL 3
REMARK VINA RESULT:    -8.597      2.860      4.639
REMARK INTER + INTRA:         -12.677
REMARK INTER:                 -11.716
REMARK INTRA:                  -0.961
REMARK UNBOUND:                -1.065
REMARK  Name = 
REMARK  6 active torsions:
REMARK  status: ('A' for Active; 'I' for Inactive)
REMARK    1  A    between atoms: C_2  and  C_4
REMARK    2  A    between atoms: C_7  and  O_8
REMARK    3  A    between atoms: O_8  and  C_9
REMARK    4  A    between atoms: C_9  and  C_10
REMARK    5  A    between atoms: C_15  and  C_16
REMARK    6  A    between atoms: C_20  and  C_21
REMARK                            x       y       z     vdW  Elec       q    Type
REMARK                         _______ _______ _______ _____ _____    ______ ____
ROOT
ATOM      1  C   UNL     1      45.344   5.088  12.171  0.00  0.00    +0.000 A 
ATOM      2  C   UNL     1      45.898   6.229  11.588  0.00  0.00    +0.000 A 
ATOM      3  C   UNL     1      46.953   6.876  12.218  0.00  0.00    +0.000 A 
ATOM      4  F   UNL     1      47.477   7.976  11.660  0.00  0.00    +0.000 F 
ATOM      5  C   UNL     1      47.479   6.406  13.418  0.00  0.00    +0.000 A 
ATOM      6  C   UNL     1      46.965   5.248  14.021  0.00  0.00    +0.000 A 
ATOM      7  C   UNL     1      45.889   4.605  13.374  0.00  0.00    +0.000 A 
ENDROOT
BRANCH   6   8
ATOM      8  C   UNL     1      47.551   4.687  15.259  0.00  0.00    +0.000 A 
ATOM      9  C   UNL     1      47.546   3.306  15.521  0.00  0.00    +0.000 A 
ATOM     10  C   UNL     1      48.177   2.773  16.649  0.00  0.00    +0.000 A 
ATOM     11  C   UNL     1      48.835   3.615  17.542  0.00  0.00    +0.000 A 
ATOM     12  C   UNL     1      48.858   4.995  17.320  0.00  0.00    +0.000 A 
ATOM     13  C   UNL     1      48.198   5.517  16.193  0.00  0.00    +0.000 A 
BRANCH  12  14
ATOM     14  C   UNL     1      49.613   5.927  18.233  0.00  0.00    +0.000 C 
ATOM     15  F   UNL     1      50.954   5.688  18.270  0.00  0.00    +0.000 F 
ATOM     16  F   UNL     1      49.481   7.232  17.861  0.00  0.00    +0.000 F 
ATOM     17  F   UNL     1      49.185   5.863  19.523  0.00  0.00    +0.000 F 
ENDBRANCH  12  14
ENDBRANCH   6   8
BRANCH   1  18
ATOM     18  C   UNL     1      44.162   4.389  11.542  0.00  0.00    +0.000 C 
BRANCH  18  19
ATOM     19  O   UNL     1      44.016   4.773  10.170  0.00  0.00    +0.000 OA
BRANCH  19  23
ATOM     20  C   UNL     1      46.429   2.465   7.742  0.00  0.00    +0.000 A 
ATOM     21  C   UNL     1      45.648   1.847   8.721  0.00  0.00    +0.000 A 
ATOM     22  C   UNL     1      44.828   2.631   9.541  0.00  0.00    +0.000 A 
ATOM     23  C   UNL     1      44.822   4.005   9.347  0.00  0.00    +0.000 A 
ATOM     24  N   UNL     1      45.564   4.624   8.405  0.00  0.00    +0.000 NA
ATOM     25  C   UNL     1      46.358   3.847   7.632  0.00  0.00    +0.000 A 
BRANCH  20  27
ATOM     26  N   UNL     1      48.466   2.426   6.412  0.00  0.00    +0.000 N 
ATOM     27  C   UNL     1      47.356   1.752   6.845  0.00  0.00    +0.000 C 
ATOM     28  O   UNL     1      47.169   0.584   6.528  0.00  0.00    +0.000 OA
ATOM     29  H   UNL     1      49.142   1.881   5.892  0.00  0.00    +0.000 HD
ATOM     30  H   UNL     1      48.786   3.277   6.849  0.00  0.00    +0.000 HD
ENDBRANCH  20  27
ENDBRANCH  19  23
ENDBRANCH  18  19
ENDBRANCH   1  18
TORSDOF 6
ENDMDL
MODEL 4
REMARK VINA RESULT:    -8.264      2.432      3.326
REMARK INTER + INTRA:         -12.227
REMARK INTER:                 -11.336
REMARK INTRA:                  -0.891
REMARK UNBOUND:                -1.065
REMARK  Name = 
REMARK  6 active torsions:
REMARK  status: ('A' for Active; 'I' for Inactive)
REMARK    1  A    between atoms: C_2  and  C_4
REMARK    2  A    between atoms: C_7  and  O_8
REMARK    3  A    between atoms: O_8  and  C_9
REMARK    4  A    between atoms: C_9  and  C_10
REMARK    5  A    between atoms: C_15  and  C_16
REMARK    6  A    between atoms: C_20  and  C_21
REMARK                            x       y       z     vdW  Elec       q    Type
REMARK                         _______ _______ _______ _____ _____    ______ ____
ROOT
ATOM      1  C   UNL     1      44.524   4.406  11.523  0.00  0.00    +0.000 A 
ATOM      2  C   UNL     1      43.504   5.314  11.229  0.00  0.00    +0.000 A 
ATOM      3  C   UNL     1      43.735   6.675  11.378  0.00  0.00    +0.000 A 
ATOM      4  F   UNL     1      42.751   7.543  11.103  0.00  0.00    +0.000 F 
ATOM      5  C   UNL     1      44.967   7.158  11.809  0.00  0.00    +0.000 A 
ATOM      6  C   UNL     1      46.024   6.278  12.090  0.00  0.00    +0.000 A 
ATOM      7  C   UNL     1      45.773   4.899  11.940  0.00  0.00    +0.000 A 
ENDROOT
BRANCH   6   8
ATOM      8  C   UNL     1      47.365   6.769  12.480  0.00  0.00    +0.000 A 
ATOM      9  C   UNL     1      48.157   7.533  11.606  0.00  0.00    +0.000 A 
ATOM     10  C   UNL     1      49.384   8.066  12.009  0.00  0.00    +0.000 A 
ATOM     11  C   UNL     1      49.847   7.850  13.304  0.00  0.00    +0.000 A 
ATOM     12  C   UNL     1      49.092   7.090  14.202  0.00  0.00    +0.000 A 
ATOM     13  C   UNL     1      47.870   6.541  13.773  0.00  0.00    +0.000 A 
BRANCH  12  14
ATOM     14  C   UNL     1      49.533   6.889  15.630  0.00  0.00    +0.000 C 
ATOM     15  F   UNL     1      49.334   7.979  16.422  0.00  0.00    +0.000 F 
ATOM     16  F   UNL     1      48.867   5.865  16.236  0.00  0.00    +0.000 F 
ATOM     17  F   UNL     1      50.856   6.586  15.734  0.00  0.00    +0.000 F 
ENDBRANCH  12  14
ENDBRANCH   6   8
BRANCH   1  18
ATOM     18  C   UNL     1      44.292   2.918  11.423  0.00  0.00    +0.000 C 
BRANCH  18  19
ATOM     19  O   UNL     1      43.728   2.575  10.152  0.00  0.00    +0.000 OA
BRANCH  19  23
ATOM     20  C   UNL     1      46.573   2.644   7.161  0.00  0.00    +0.000 A 
ATOM     21  C   UNL     1      45.799   3.782   7.399  0.00  0.00    +0.000 A 
ATOM     22  C   UNL     1      44.837   3.758   8.416  0.00  0.00    +0.000 A 
ATOM     23  C   UNL     1      44.690   2.593   9.155  0.00  0.00    +0.000 A 
ATOM     24  N   UNL     1      45.429   1.483   8.947  0.00  0.00    +0.000 NA
ATOM     25  C   UNL     1      46.344   1.526   7.952  0.00  0.00    +0.000 A 
BRANCH  20  27
ATOM     26  N   UNL     1      48.899   2.421   6.483  0.00  0.00    +0.000 N 
ATOM     27  C   UNL     1      47.590   2.537   6.099  0.00  0.00    +0.000 C 
ATOM     28  O   UNL     1      47.279   2.508   4.916  0.00  0.00    +0.000 OA
ATOM     29  H   UNL     1      49.564   2.235   5.743  0.00  0.00    +0.000 HD
ATOM     30  H   UNL     1      49.167   2.181   7.425  0.00  0.00    +0.000 HD
ENDBRANCH  20  27
ENDBRANCH  19  23
ENDBRANCH  18  19
ENDBRANCH   1  18
TORSDOF 6
ENDMDL
MODEL 5
REMARK VINA RESULT:    -7.942      1.947      2.795
REMARK INTER + INTRA:         -11.792
REMARK INTER:                 -10.723
REMARK INTRA:                  -1.069
REMARK UNBOUND:                -1.065
REMARK  Name = 
REMARK  6 active torsions:
REMARK  status: ('A' for Active; 'I' for Inactive)
REMARK    1  A    between atoms: C_2  and  C_4
REMARK    2  A    between atoms: C_7  and  O_8
REMARK    3  A    between atoms: O_8  and  C_9
REMARK    4  A    between atoms: C_9  and  C_10
REMARK    5  A    between atoms: C_15  and  C_16
REMARK    6  A    between atoms: C_20  and  C_21
REMARK                            x       y       z     vdW  Elec       q    Type
REMARK                         _______ _______ _______ _____ _____    ______ ____
ROOT
ATOM      1  C   UNL     1      45.703   6.413  11.692  0.00  0.00    +0.000 A 
ATOM      2  C   UNL     1      44.820   7.495  11.697  0.00  0.00    +0.000 A 
ATOM      3  C   UNL     1      45.301   8.770  11.966  0.00  0.00    +0.000 A 
ATOM      4  F   UNL     1      44.451   9.805  11.979  0.00  0.00    +0.000 F 
ATOM      5  C   UNL     1      46.651   8.995  12.224  0.00  0.00    +0.000 A 
ATOM      6  C   UNL     1      47.572   7.936  12.202  0.00  0.00    +0.000 A 
ATOM      7  C   UNL     1      47.068   6.647  11.934  0.00  0.00    +0.000 A 
ENDROOT
BRANCH   6   8
ATOM      8  C   UNL     1      49.022   8.159  12.402  0.00  0.00    +0.000 A 
ATOM      9  C   UNL     1      49.564   8.408  13.675  0.00  0.00    +0.000 A 
ATOM     10  C   UNL     1      50.942   8.531  13.871  0.00  0.00    +0.000 A 
ATOM     11  C   UNL     1      51.813   8.405  12.793  0.00  0.00    +0.000 A 
ATOM     12  C   UNL     1      51.313   8.164  11.509  0.00  0.00    +0.000 A 
ATOM     13  C   UNL     1      49.923   8.065  11.326  0.00  0.00    +0.000 A 
BRANCH  12  14
ATOM     14  C   UNL     1      52.232   7.959  10.331  0.00  0.00    +0.000 C 
ATOM     15  F   UNL     1      53.538   7.786  10.681  0.00  0.00    +0.000 F 
ATOM     16  F   UNL     1      51.895   6.857   9.602  0.00  0.00    +0.000 F 
ATOM     17  F   UNL     1      52.212   9.004   9.460  0.00  0.00    +0.000 F 
ENDBRANCH  12  14
ENDBRANCH   6   8
BRANCH   1  18
ATOM     18  C   UNL     1      45.206   5.007  11.456  0.00  0.00    +0.000 C 
BRANCH  18  19
ATOM     19  O   UNL     1      44.479   4.923  10.225  0.00  0.00    +0.000 OA
BRANCH  19  23
ATOM     20  C   UNL     1      46.599   2.772   7.410  0.00  0.00    +0.000 A 
ATOM     21  C   UNL     1      45.833   2.093   8.360  0.00  0.00    +0.000 A 
ATOM     22  C   UNL     1      45.112   2.824   9.311  0.00  0.00    +0.000 A 
ATOM     23  C   UNL     1      45.187   4.209   9.272  0.00  0.00    +0.000 A 
ATOM     24  N   UNL     1      45.917   4.887   8.362  0.00  0.00    +0.000 NA
ATOM     25  C   UNL     1      46.614   4.160   7.460  0.00  0.00    +0.000 A 
BRANCH  20  27
ATOM     26  N   UNL     1      47.755   2.840   5.270  0.00  0.00    +0.000 N 
ATOM     27  C   UNL     1      47.427   2.113   6.383  0.00  0.00    +0.000 C 
ATOM     28  O   UNL     1      47.845   0.973   6.533  0.00  0.00    +0.000 OA
ATOM     29  H   UNL     1      48.415   2.407   4.635  0.00  0.00    +0.000 HD
ATOM     30  H   UNL     1      47.654   3.843   5.229  0.00  0.00    +0.000 HD
ENDBRANCH  20  27
ENDBRANCH  19  23
ENDBRANCH  18  19
ENDBRANCH   1  18
TORSDOF 6
ENDMDL
MODEL 6
REMARK VINA RESULT:    -7.916      2.112      2.734
REMARK INTER + INTRA:         -11.757
REMARK INTER:                 -10.796
REMARK INTRA:                  -0.960
REMARK UNBOUND:                -1.065
REMARK  Name = 
REMARK  6 active torsions:
REMARK  status: ('A' for Active; 'I' for Inactive)
REMARK    1  A    between atoms: C_2  and  C_4
REMARK    2  A    between atoms: C_7  and  O_8
REMARK    3  A    between atoms: O_8  and  C_9
REMARK    4  A    between atoms: C_9  and  C_10
REMARK    5  A    between atoms: C_15  and  C_16
REMARK    6  A    between atoms: C_20  and  C_21
REMARK                            x       y       z     vdW  Elec       q    Type
REMARK                         _______ _______ _______ _____ _____    ______ ____
ROOT
ATOM      1  C   UNL     1      44.481   4.395  11.529  0.00  0.00    +0.000 A 
ATOM      2  C   UNL     1      43.345   5.160  11.254  0.00  0.00    +0.000 A 
ATOM      3  C   UNL     1      43.402   6.541  11.385  0.00  0.00    +0.000 A 
ATOM      4  F   UNL     1      42.307   7.271  11.128  0.00  0.00    +0.000 F 
ATOM      5  C   UNL     1      44.572   7.184  11.777  0.00  0.00    +0.000 A 
ATOM      6  C   UNL     1      45.741   6.452  12.037  0.00  0.00    +0.000 A 
ATOM      7  C   UNL     1      45.667   5.050  11.907  0.00  0.00    +0.000 A 
ENDROOT
BRANCH   6   8
ATOM      8  C   UNL     1      47.017   7.117  12.386  0.00  0.00    +0.000 A 
ATOM      9  C   UNL     1      48.038   6.442  13.076  0.00  0.00    +0.000 A 
ATOM     10  C   UNL     1      49.273   7.046  13.327  0.00  0.00    +0.000 A 
ATOM     11  C   UNL     1      49.516   8.345  12.887  0.00  0.00    +0.000 A 
ATOM     12  C   UNL     1      48.523   9.052  12.202  0.00  0.00    +0.000 A 
ATOM     13  C   UNL     1      47.278   8.438  11.979  0.00  0.00    +0.000 A 
BRANCH  12  14
ATOM     14  C   UNL     1      48.775  10.435  11.658  0.00  0.00    +0.000 C 
ATOM     15  F   UNL     1      49.517  10.446  10.515  0.00  0.00    +0.000 F 
ATOM     16  F   UNL     1      47.617  11.087  11.353  0.00  0.00    +0.000 F 
ATOM     17  F   UNL     1      49.433  11.236  12.539  0.00  0.00    +0.000 F 
ENDBRANCH  12  14
ENDBRANCH   6   8
BRANCH   1  18
ATOM     18  C   UNL     1      44.442   2.888  11.449  0.00  0.00    +0.000 C 
BRANCH  18  19
ATOM     19  O   UNL     1      43.852   2.459  10.217  0.00  0.00    +0.000 OA
BRANCH  19  23
ATOM     20  C   UNL     1      46.542   2.672   7.093  0.00  0.00    +0.000 A 
ATOM     21  C   UNL     1      45.685   3.748   7.336  0.00  0.00    +0.000 A 
ATOM     22  C   UNL     1      44.775   3.675   8.398  0.00  0.00    +0.000 A 
ATOM     23  C   UNL     1      44.762   2.526   9.175  0.00  0.00    +0.000 A 
ATOM     24  N   UNL     1      45.584   1.476   8.963  0.00  0.00    +0.000 NA
ATOM     25  C   UNL     1      46.445   1.565   7.924  0.00  0.00    +0.000 A 
BRANCH  20  27
ATOM     26  N   UNL     1      48.806   2.282   6.293  0.00  0.00    +0.000 N 
ATOM     27  C   UNL     1      47.515   2.617   5.986  0.00  0.00    +0.000 C 
ATOM     28  O   UNL     1      47.178   2.820   4.828  0.00  0.00    +0.000 OA
ATOM     29  H   UNL     1      49.427   2.140   5.506  0.00  0.00    +0.000 HD
ATOM     30  H   UNL     1      49.062   1.861   7.173  0.00  0.00    +0.000 HD
ENDBRANCH  20  27
ENDBRANCH  19  23
ENDBRANCH  18  19
ENDBRANCH   1  18
TORSDOF 6
ENDMDL
MODEL 7
REMARK VINA RESULT:    -7.748      5.376      8.220
REMARK INTER + INTRA:         -11.530
REMARK INTER:                 -10.495
REMARK INTRA:                  -1.035
REMARK UNBOUND:                -1.065
REMARK  Name = 
REMARK  6 active torsions:
REMARK  status: ('A' for Active; 'I' for Inactive)
REMARK    1  A    between atoms: C_2  and  C_4
REMARK    2  A    between atoms: C_7  and  O_8
REMARK    3  A    between atoms: O_8  and  C_9
REMARK    4  A    between atoms: C_9  and  C_10
REMARK    5  A    between atoms: C_15  and  C_16
REMARK    6  A    between atoms: C_20  and  C_21
REMARK                            x       y       z     vdW  Elec       q    Type
REMARK                         _______ _______ _______ _____ _____    ______ ____
ROOT
ATOM      1  C   UNL     1      48.202   6.537  14.464  0.00  0.00    +0.000 A 
ATOM      2  C   UNL     1      48.655   7.505  13.565  0.00  0.00    +0.000 A 
ATOM      3  C   UNL     1      48.137   7.539  12.277  0.00  0.00    +0.000 A 
ATOM      4  F   UNL     1      48.581   8.463  11.414  0.00  0.00    +0.000 F 
ATOM      5  C   UNL     1      47.167   6.632  11.862  0.00  0.00    +0.000 A 
ATOM      6  C   UNL     1      46.668   5.661  12.745  0.00  0.00    +0.000 A 
ATOM      7  C   UNL     1      47.207   5.634  14.048  0.00  0.00    +0.000 A 
ENDROOT
BRANCH   6   8
ATOM      8  C   UNL     1      45.585   4.731  12.352  0.00  0.00    +0.000 A 
ATOM      9  C   UNL     1      44.413   4.594  13.116  0.00  0.00    +0.000 A 
ATOM     10  C   UNL     1      43.358   3.780  12.695  0.00  0.00    +0.000 A 
ATOM     11  C   UNL     1      43.450   3.085  11.492  0.00  0.00    +0.000 A 
ATOM     12  C   UNL     1      44.601   3.191  10.706  0.00  0.00    +0.000 A 
ATOM     13  C   UNL     1      45.663   3.995  11.155  0.00  0.00    +0.000 A 
BRANCH  12  14
ATOM     14  C   UNL     1      44.708   2.502   9.369  0.00  0.00    +0.000 C 
ATOM     15  F   UNL     1      44.104   1.282   9.333  0.00  0.00    +0.000 F 
ATOM     16  F   UNL     1      44.132   3.229   8.368  0.00  0.00    +0.000 F 
ATOM     17  F   UNL     1      45.997   2.295   8.984  0.00  0.00    +0.000 F 
ENDBRANCH  12  14
ENDBRANCH   6   8
BRANCH   1  18
ATOM     18  C   UNL     1      48.780   6.436  15.855  0.00  0.00    +0.000 C 
BRANCH  18  19
ATOM     19  O   UNL     1      48.226   5.318  16.557  0.00  0.00    +0.000 OA
BRANCH  19  23
ATOM     20  C   UNL     1      51.157   2.545  17.432  0.00  0.00    +0.000 A 
ATOM     21  C   UNL     1      51.404   3.900  17.660  0.00  0.00    +0.000 A 
ATOM     22  C   UNL     1      50.407   4.839  17.366  0.00  0.00    +0.000 A 
ATOM     23  C   UNL     1      49.201   4.380  16.855  0.00  0.00    +0.000 A 
ATOM     24  N   UNL     1      48.938   3.076  16.631  0.00  0.00    +0.000 NA
ATOM     25  C   UNL     1      49.920   2.189  16.911  0.00  0.00    +0.000 A 
BRANCH  20  27
ATOM     26  N   UNL     1      51.659   0.250  18.066  0.00  0.00    +0.000 N 
ATOM     27  C   UNL     1      52.137   1.469  17.668  0.00  0.00    +0.000 C 
ATOM     28  O   UNL     1      53.333   1.640  17.475  0.00  0.00    +0.000 OA
ATOM     29  H   UNL     1      52.337  -0.500  18.111  0.00  0.00    +0.000 HD
ATOM     30  H   UNL     1      50.686  -0.002  17.984  0.00  0.00    +0.000 HD
ENDBRANCH  20  27
ENDBRANCH  19  23
ENDBRANCH  18  19
ENDBRANCH   1  18
TORSDOF 6
ENDMDL
MODEL 8
REMARK VINA RESULT:    -7.522      5.262      8.403
REMARK INTER + INTRA:         -11.225
REMARK INTER:                 -10.146
REMARK INTRA:                  -1.079
REMARK UNBOUND:                -1.065
REMARK  Name = 
REMARK  6 active torsions:
REMARK  status: ('A' for Active; 'I' for Inactive)
REMARK    1  A    between atoms: C_2  and  C_4
REMARK    2  A    between atoms: C_7  and  O_8
REMARK    3  A    between atoms: O_8  and  C_9
REMARK    4  A    between atoms: C_9  and  C_10
REMARK    5  A    between atoms: C_15  and  C_16
REMARK    6  A    between atoms: C_20  and  C_21
REMARK                            x       y       z     vdW  Elec       q    Type
REMARK                         _______ _______ _______ _____ _____    ______ ____
ROOT
ATOM      1  C   UNL     1      47.245   7.741  13.377  0.00  0.00    +0.000 A 
ATOM      2  C   UNL     1      46.491   8.907  13.224  0.00  0.00    +0.000 A 
ATOM      3  C   UNL     1      45.340   8.880  12.447  0.00  0.00    +0.000 A 
ATOM      4  F   UNL     1      44.623  10.002  12.295  0.00  0.00    +0.000 F 
ATOM      5  C   UNL     1      44.914   7.712  11.822  0.00  0.00    +0.000 A 
ATOM      6  C   UNL     1      45.632   6.515  11.974  0.00  0.00    +0.000 A 
ATOM      7  C   UNL     1      46.801   6.558  12.760  0.00  0.00    +0.000 A 
ENDROOT
BRANCH   6   8
ATOM      8  C   UNL     1      45.162   5.243  11.379  0.00  0.00    +0.000 A 
ATOM      9  C   UNL     1      44.217   4.428  12.025  0.00  0.00    +0.000 A 
ATOM     10  C   UNL     1      43.713   3.273  11.421  0.00  0.00    +0.000 A 
ATOM     11  C   UNL     1      44.142   2.908  10.148  0.00  0.00    +0.000 A 
ATOM     12  C   UNL     1      45.087   3.689   9.474  0.00  0.00    +0.000 A 
ATOM     13  C   UNL     1      45.601   4.835  10.106  0.00  0.00    +0.000 A 
BRANCH  12  14
ATOM     14  C   UNL     1      45.526   3.356   8.070  0.00  0.00    +0.000 C 
ATOM     15  F   UNL     1      46.091   2.123   7.952  0.00  0.00    +0.000 F 
ATOM     16  F   UNL     1      44.487   3.374   7.188  0.00  0.00    +0.000 F 
ATOM     17  F   UNL     1      46.443   4.236   7.583  0.00  0.00    +0.000 F 
ENDBRANCH  12  14
ENDBRANCH   6   8
BRANCH   1  18
ATOM     18  C   UNL     1      48.529   7.745  14.171  0.00  0.00    +0.000 C 
BRANCH  18  19
ATOM     19  O   UNL     1      48.929   6.409  14.498  0.00  0.00    +0.000 OA
BRANCH  19  23
ATOM     20  C   UNL     1      48.298   5.605  18.498  0.00  0.00    +0.000 A 
ATOM     21  C   UNL     1      48.760   6.866  18.115  0.00  0.00    +0.000 A 
ATOM     22  C   UNL     1      48.970   7.138  16.758  0.00  0.00    +0.000 A 
ATOM     23  C   UNL     1      48.708   6.134  15.837  0.00  0.00    +0.000 A 
ATOM     24  N   UNL     1      48.257   4.910  16.182  0.00  0.00    +0.000 NA
ATOM     25  C   UNL     1      48.072   4.666  17.500  0.00  0.00    +0.000 A 
BRANCH  20  27
ATOM     26  N   UNL     1      48.589   3.984  20.289  0.00  0.00    +0.000 N 
ATOM     27  C   UNL     1      48.073   5.189  19.894  0.00  0.00    +0.000 C 
ATOM     28  O   UNL     1      47.485   5.910  20.689  0.00  0.00    +0.000 OA
ATOM     29  H   UNL     1      48.521   3.774  21.277  0.00  0.00    +0.000 HD
ATOM     30  H   UNL     1      49.288   3.493  19.753  0.00  0.00    +0.000 HD
ENDBRANCH  20  27
ENDBRANCH  19  23
ENDBRANCH  18  19
ENDBRANCH   1  18
TORSDOF 6
ENDMDL
MODEL 9
REMARK VINA RESULT:    -7.214      1.567      2.177
REMARK INTER + INTRA:         -10.809
REMARK INTER:                  -9.726
REMARK INTRA:                  -1.083
REMARK UNBOUND:                -1.065
REMARK  Name = 
REMARK  6 active torsions:
REMARK  status: ('A' for Active; 'I' for Inactive)
REMARK    1  A    between atoms: C_2  and  C_4
REMARK    2  A    between atoms: C_7  and  O_8
REMARK    3  A    between atoms: O_8  and  C_9
REMARK    4  A    between atoms: C_9  and  C_10
REMARK    5  A    between atoms: C_15  and  C_16
REMARK    6  A    between atoms: C_20  and  C_21
REMARK                            x       y       z     vdW  Elec       q    Type
REMARK                         _______ _______ _______ _____ _____    ______ ____
ROOT
ATOM      1  C   UNL     1      46.102   5.943  12.091  0.00  0.00    +0.000 A 
ATOM      2  C   UNL     1      45.702   5.021  13.061  0.00  0.00    +0.000 A 
ATOM      3  C   UNL     1      46.505   4.806  14.173  0.00  0.00    +0.000 A 
ATOM      4  F   UNL     1      46.123   3.914  15.097  0.00  0.00    +0.000 F 
ATOM      5  C   UNL     1      47.700   5.497  14.349  0.00  0.00    +0.000 A 
ATOM      6  C   UNL     1      48.122   6.450  13.408  0.00  0.00    +0.000 A 
ATOM      7  C   UNL     1      47.300   6.654  12.281  0.00  0.00    +0.000 A 
ENDROOT
BRANCH   6   8
ATOM      8  C   UNL     1      49.352   7.250  13.607  0.00  0.00    +0.000 A 
ATOM      9  C   UNL     1      49.998   7.318  14.853  0.00  0.00    +0.000 A 
ATOM     10  C   UNL     1      51.205   8.003  15.015  0.00  0.00    +0.000 A 
ATOM     11  C   UNL     1      51.799   8.636  13.926  0.00  0.00    +0.000 A 
ATOM     12  C   UNL     1      51.185   8.597  12.670  0.00  0.00    +0.000 A 
ATOM     13  C   UNL     1      49.958   7.923  12.530  0.00  0.00    +0.000 A 
BRANCH  12  14
ATOM     14  C   UNL     1      51.831   9.217  11.457  0.00  0.00    +0.000 C 
ATOM     15  F   UNL     1      52.250  10.498  11.657  0.00  0.00    +0.000 F 
ATOM     16  F   UNL     1      52.935   8.526  11.052  0.00  0.00    +0.000 F 
ATOM     17  F   UNL     1      51.001   9.258  10.380  0.00  0.00    +0.000 F 
ENDBRANCH  12  14
ENDBRANCH   6   8
BRANCH   1  18
ATOM     18  C   UNL     1      45.281   6.165  10.844  0.00  0.00    +0.000 C 
BRANCH  18  19
ATOM     19  O   UNL     1      44.510   4.999  10.528  0.00  0.00    +0.000 OA
BRANCH  19  23
ATOM     20  C   UNL     1      46.346   2.736   7.603  0.00  0.00    +0.000 A 
ATOM     21  C   UNL     1      45.612   2.098   8.605  0.00  0.00    +0.000 A 
ATOM     22  C   UNL     1      44.987   2.868   9.594  0.00  0.00    +0.000 A 
ATOM     23  C   UNL     1      45.123   4.248   9.539  0.00  0.00    +0.000 A 
ATOM     24  N   UNL     1      45.823   4.886   8.578  0.00  0.00    +0.000 NA
ATOM     25  C   UNL     1      46.428   4.122   7.640  0.00  0.00    +0.000 A 
BRANCH  20  27
ATOM     26  N   UNL     1      47.468   2.768   5.444  0.00  0.00    +0.000 N 
ATOM     27  C   UNL     1      47.076   2.034   6.531  0.00  0.00    +0.000 C 
ATOM     28  O   UNL     1      47.362   0.848   6.623  0.00  0.00    +0.000 OA
ATOM     29  H   UNL     1      48.064   2.292   4.778  0.00  0.00    +0.000 HD
ATOM     30  H   UNL     1      47.484   3.777   5.450  0.00  0.00    +0.000 HD
ENDBRANCH  20  27
ENDBRANCH  19  23
ENDBRANCH  18  19
ENDBRANCH   1  18
TORSDOF 6
ENDMDL
