MODEL 1
REMARK VINA RESULT:    -8.294      0.000      0.000
REMARK INTER + INTRA:         -11.433
REMARK INTER:                 -10.718
REMARK INTRA:                  -0.714
REMARK UNBOUND:                -0.714
REMARK  Name = 
REMARK  6 active torsions:
REMARK  status: ('A' for Active; 'I' for Inactive)
REMARK    1  A    between atoms: C_1  and  N_2
REMARK    2  A    between atoms: C_8  and  C_9
REMARK    3  A    between atoms: C_9  and  C_10
REMARK    4  A    between atoms: C_10  and  N_11
REMARK    5  A    between atoms: N_11  and  C_12
REMARK    6  A    between atoms: C_15  and  C_16
REMARK                            x       y       z     vdW  Elec       q    Type
REMARK                         _______ _______ _______ _____ _____    ______ ____
ROOT
ATOM      1  C   UNL     1      43.431   5.192  12.371  0.00  0.00    +0.000 C 
ENDROOT
BRANCH   1   9
ATOM      2  C   UNL     1      48.967  11.400  14.012  0.00  0.00    +0.000 C 
ATOM      3  N   UNL     1      48.988  10.018  13.536  0.00  0.00    +0.000 NA
ATOM      4  C   UNL     1      48.926   9.073  14.684  0.00  0.00    +0.000 C 
ATOM      5  C   UNL     1      48.789   7.588  14.254  0.00  0.00    +0.000 C 
ATOM      6  N   UNL     1      47.602   7.492  13.402  0.00  0.00    +0.000 N 
ATOM      7  C   UNL     1      46.950   6.278  13.295  0.00  0.00    +0.000 A 
ATOM      8  C   UNL     1      45.615   6.281  12.879  0.00  0.00    +0.000 A 
ATOM      9  C   UNL     1      44.875   5.101  12.814  0.00  0.00    +0.000 A 
ATOM     10  C   UNL     1      45.525   3.924  13.181  0.00  0.00    +0.000 A 
ATOM     11  C   UNL     1      46.847   3.993  13.591  0.00  0.00    +0.000 A 
ATOM     12  N   UNL     1      47.561   5.137  13.665  0.00  0.00    +0.000 NA
ATOM     13  C   UNL     1      47.718   8.308  12.188  0.00  0.00    +0.000 C 
ATOM     14  C   UNL     1      47.844   9.783  12.621  0.00  0.00    +0.000 C 
ENDBRANCH   1   9
BRANCH   1  15
ATOM     15  C   UNL     1      43.099   4.353  11.139  0.00  0.00    +0.000 C 
BRANCH  15  16
ATOM     16  N   UNL     1      43.722   4.881   9.923  0.00  0.00    +0.000 N 
ATOM     17  H   UNL     1      44.189   5.772  10.080  0.00  0.00    +0.000 HD
BRANCH  16  18
ATOM     18  C   UNL     1      44.548   3.980   9.225  0.00  0.00    +0.000 A 
ATOM     19  C   UNL     1      45.538   4.393   8.324  0.00  0.00    +0.000 A 
ATOM     20  C   UNL     1      46.375   3.467   7.707  0.00  0.00    +0.000 A 
ATOM     21  C   UNL     1      46.226   2.131   8.036  0.00  0.00    +0.000 A 
ATOM     22  N   UNL     1      45.312   1.669   8.934  0.00  0.00    +0.000 NA
ATOM     23  C   UNL     1      44.519   2.609   9.510  0.00  0.00    +0.000 A 
BRANCH  21  24
ATOM     24  C   UNL     1      47.125   1.118   7.400  0.00  0.00    +0.000 C 
ATOM     25  N   UNL     1      48.134   1.629   6.634  0.00  0.00    +0.000 N 
ATOM     26  O   UNL     1      46.972  -0.091   7.549  0.00  0.00    +0.000 OA
ATOM     27  H   UNL     1      48.212   2.630   6.516  0.00  0.00    +0.000 HD
ATOM     28  H   UNL     1      48.755   1.000   6.146  0.00  0.00    +0.000 HD
ENDBRANCH  21  24
ENDBRANCH  16  18
ENDBRANCH  15  16
ENDBRANCH   1  15
TORSDOF 5
ENDMDL
MODEL 2
REMARK VINA RESULT:    -7.640      2.070      2.779
REMARK INTER + INTRA:         -10.587
REMARK INTER:                 -10.129
REMARK INTRA:                  -0.458
REMARK UNBOUND:                -0.714
REMARK  Name = 
REMARK  6 active torsions:
REMARK  status: ('A' for Active; 'I' for Inactive)
REMARK    1  A    between atoms: C_1  and  N_2
REMARK    2  A    between atoms: C_8  and  C_9
REMARK    3  A    between atoms: C_9  and  C_10
REMARK    4  A    between atoms: C_10  and  N_11
REMARK    5  A    between atoms: N_11  and  C_12
REMARK    6  A    between atoms: C_15  and  C_16
REMARK                            x       y       z     vdW  Elec       q    Type
REMARK                         _______ _______ _______ _____ _____    ______ ____
ROOT
ATOM      1  C   UNL     1      45.548   5.182  11.644  0.00  0.00    +0.000 C 
ENDROOT
BRANCH   1   9
ATOM      2  C   UNL     1      52.682   9.524  10.185  0.00  0.00    +0.000 C 
ATOM      3  N   UNL     1      51.615   9.483  11.183  0.00  0.00    +0.000 NA
ATOM      4  C   UNL     1      50.438  10.265  10.716  0.00  0.00    +0.000 C 
ATOM      5  C   UNL     1      49.205  10.143  11.653  0.00  0.00    +0.000 C 
ATOM      6  N   UNL     1      48.899   8.716  11.782  0.00  0.00    +0.000 N 
ATOM      7  C   UNL     1      47.612   8.335  12.108  0.00  0.00    +0.000 A 
ATOM      8  C   UNL     1      47.211   7.033  11.792  0.00  0.00    +0.000 A 
ATOM      9  C   UNL     1      45.907   6.600  12.030  0.00  0.00    +0.000 A 
ATOM     10  C   UNL     1      45.026   7.521  12.594  0.00  0.00    +0.000 A 
ATOM     11  C   UNL     1      45.487   8.798  12.875  0.00  0.00    +0.000 A 
ATOM     12  N   UNL     1      46.747   9.221  12.635  0.00  0.00    +0.000 NA
ATOM     13  C   UNL     1      50.003   7.960  12.383  0.00  0.00    +0.000 C 
ATOM     14  C   UNL     1      51.222   8.076  11.442  0.00  0.00    +0.000 C 
ENDBRANCH   1   9
BRANCH   1  15
ATOM     15  C   UNL     1      44.074   4.978  11.303  0.00  0.00    +0.000 C 
BRANCH  15  16
ATOM     16  N   UNL     1      43.842   4.917   9.858  0.00  0.00    +0.000 N 
ATOM     17  H   UNL     1      43.869   5.836   9.420  0.00  0.00    +0.000 HD
BRANCH  16  18
ATOM     18  C   UNL     1      44.631   3.987   9.155  0.00  0.00    +0.000 A 
ATOM     19  C   UNL     1      45.636   4.363   8.255  0.00  0.00    +0.000 A 
ATOM     20  C   UNL     1      46.434   3.407   7.632  0.00  0.00    +0.000 A 
ATOM     21  C   UNL     1      46.232   2.077   7.956  0.00  0.00    +0.000 A 
ATOM     22  N   UNL     1      45.301   1.648   8.854  0.00  0.00    +0.000 NA
ATOM     23  C   UNL     1      44.547   2.617   9.434  0.00  0.00    +0.000 A 
BRANCH  21  24
ATOM     24  C   UNL     1      47.089   1.031   7.315  0.00  0.00    +0.000 C 
ATOM     25  N   UNL     1      46.794  -0.258   7.655  0.00  0.00    +0.000 N 
ATOM     26  O   UNL     1      48.000   1.305   6.539  0.00  0.00    +0.000 OA
ATOM     27  H   UNL     1      46.052  -0.441   8.318  0.00  0.00    +0.000 HD
ATOM     28  H   UNL     1      47.357  -1.011   7.288  0.00  0.00    +0.000 HD
ENDBRANCH  21  24
ENDBRANCH  16  18
ENDBRANCH  15  16
ENDBRANCH   1  15
TORSDOF 5
ENDMDL
MODEL 3
REMARK VINA RESULT:    -7.624      2.417      3.573
REMARK INTER + INTRA:         -10.567
REMARK INTER:                 -10.278
REMARK INTRA:                  -0.288
REMARK UNBOUND:                -0.714
REMARK  Name = 
REMARK  6 active torsions:
REMARK  status: ('A' for Active; 'I' for Inactive)
REMARK    1  A    between atoms: C_1  and  N_2
REMARK    2  A    between atoms: C_8  and  C_9
REMARK    3  A    between atoms: C_9  and  C_10
REMARK    4  A    between atoms: C_10  and  N_11
REMARK    5  A    between atoms: N_11  and  C_12
REMARK    6  A    between atoms: C_15  and  C_16
REMARK                            x       y       z     vdW  Elec       q    Type
REMARK                         _______ _______ _______ _____ _____    ______ ____
ROOT
ATOM      1  C   UNL     1      45.474   3.457  12.238  0.00  0.00    +0.000 C 
ENDROOT
BRANCH   1   9
ATOM      2  C   UNL     1      50.880   4.277  18.718  0.00  0.00    +0.000 C 
ATOM      3  N   UNL     1      49.834   5.061  18.064  0.00  0.00    +0.000 NA
ATOM      4  C   UNL     1      50.376   5.745  16.858  0.00  0.00    +0.000 C 
ATOM      5  C   UNL     1      49.290   6.475  16.022  0.00  0.00    +0.000 C 
ATOM      6  N   UNL     1      48.270   5.482  15.676  0.00  0.00    +0.000 N 
ATOM      7  C   UNL     1      47.485   5.690  14.558  0.00  0.00    +0.000 A 
ATOM      8  C   UNL     1      46.858   4.583  13.979  0.00  0.00    +0.000 A 
ATOM      9  C   UNL     1      46.106   4.706  12.811  0.00  0.00    +0.000 A 
ATOM     10  C   UNL     1      46.011   5.979  12.251  0.00  0.00    +0.000 A 
ATOM     11  C   UNL     1      46.664   7.031  12.872  0.00  0.00    +0.000 A 
ATOM     12  N   UNL     1      47.401   6.911  13.997  0.00  0.00    +0.000 NA
ATOM     13  C   UNL     1      47.623   4.911  16.862  0.00  0.00    +0.000 C 
ATOM     14  C   UNL     1      48.705   4.178  17.683  0.00  0.00    +0.000 C 
ENDBRANCH   1   9
BRANCH   1  15
ATOM     15  C   UNL     1      43.979   3.583  11.954  0.00  0.00    +0.000 C 
BRANCH  15  16
ATOM     16  N   UNL     1      43.708   3.957  10.564  0.00  0.00    +0.000 N 
ATOM     17  H   UNL     1      43.505   4.949  10.460  0.00  0.00    +0.000 HD
BRANCH  16  18
ATOM     18  C   UNL     1      44.660   3.523   9.622  0.00  0.00    +0.000 A 
ATOM     19  C   UNL     1      44.915   2.171   9.361  0.00  0.00    +0.000 A 
ATOM     20  C   UNL     1      45.820   1.791   8.374  0.00  0.00    +0.000 A 
ATOM     21  C   UNL     1      46.432   2.786   7.631  0.00  0.00    +0.000 A 
ATOM     22  N   UNL     1      46.197   4.116   7.806  0.00  0.00    +0.000 NA
ATOM     23  C   UNL     1      45.307   4.437   8.781  0.00  0.00    +0.000 A 
BRANCH  21  24
ATOM     24  C   UNL     1      47.394   2.403   6.551  0.00  0.00    +0.000 C 
ATOM     25  N   UNL     1      47.343   3.169   5.421  0.00  0.00    +0.000 N 
ATOM     26  O   UNL     1      48.177   1.464   6.662  0.00  0.00    +0.000 OA
ATOM     27  H   UNL     1      46.666   3.918   5.358  0.00  0.00    +0.000 HD
ATOM     28  H   UNL     1      47.939   2.943   4.639  0.00  0.00    +0.000 HD
ENDBRANCH  21  24
ENDBRANCH  16  18
ENDBRANCH  15  16
ENDBRANCH   1  15
TORSDOF 5
ENDMDL
MODEL 4
REMARK VINA RESULT:    -7.485      2.597      7.403
REMARK INTER + INTRA:         -10.387
REMARK INTER:                  -9.732
REMARK INTRA:                  -0.656
REMARK UNBOUND:                -0.714
REMARK  Name = 
REMARK  6 active torsions:
REMARK  status: ('A' for Active; 'I' for Inactive)
REMARK    1  A    between atoms: C_1  and  N_2
REMARK    2  A    between atoms: C_8  and  C_9
REMARK    3  A    between atoms: C_9  and  C_10
REMARK    4  A    between atoms: C_10  and  N_11
REMARK    5  A    between atoms: N_11  and  C_12
REMARK    6  A    between atoms: C_15  and  C_16
REMARK                            x       y       z     vdW  Elec       q    Type
REMARK                         _______ _______ _______ _____ _____    ______ ____
ROOT
ATOM      1  C   UNL     1      45.388   7.555  12.115  0.00  0.00    +0.000 C 
ENDROOT
BRANCH   1   9
ATOM      2  C   UNL     1      47.658   1.437   6.702  0.00  0.00    +0.000 C 
ATOM      3  N   UNL     1      46.432   2.085   7.165  0.00  0.00    +0.000 NA
ATOM      4  C   UNL     1      45.982   1.486   8.451  0.00  0.00    +0.000 C 
ATOM      5  C   UNL     1      44.772   2.223   9.085  0.00  0.00    +0.000 C 
ATOM      6  N   UNL     1      45.153   3.629   9.239  0.00  0.00    +0.000 N 
ATOM      7  C   UNL     1      44.520   4.392  10.201  0.00  0.00    +0.000 A 
ATOM      8  C   UNL     1      45.165   5.548  10.653  0.00  0.00    +0.000 A 
ATOM      9  C   UNL     1      44.618   6.330  11.671  0.00  0.00    +0.000 A 
ATOM     10  C   UNL     1      43.406   5.907  12.212  0.00  0.00    +0.000 A 
ATOM     11  C   UNL     1      42.824   4.749  11.722  0.00  0.00    +0.000 A 
ATOM     12  N   UNL     1      43.358   3.985  10.745  0.00  0.00    +0.000 NA
ATOM     13  C   UNL     1      45.453   4.270   7.954  0.00  0.00    +0.000 C 
ATOM     14  C   UNL     1      46.663   3.540   7.333  0.00  0.00    +0.000 C 
ENDBRANCH   1   9
BRANCH   1  15
ATOM     15  C   UNL     1      46.888   7.326  12.283  0.00  0.00    +0.000 C 
BRANCH  15  16
ATOM     16  N   UNL     1      47.323   7.491  13.672  0.00  0.00    +0.000 N 
ATOM     17  H   UNL     1      46.759   8.171  14.179  0.00  0.00    +0.000 HD
BRANCH  16  18
ATOM     18  C   UNL     1      47.476   6.298  14.405  0.00  0.00    +0.000 A 
ATOM     19  C   UNL     1      46.882   5.088  14.027  0.00  0.00    +0.000 A 
ATOM     20  C   UNL     1      47.116   3.920  14.748  0.00  0.00    +0.000 A 
ATOM     21  C   UNL     1      47.983   3.981  15.826  0.00  0.00    +0.000 A 
ATOM     22  N   UNL     1      48.625   5.117  16.220  0.00  0.00    +0.000 NA
ATOM     23  C   UNL     1      48.364   6.229  15.486  0.00  0.00    +0.000 A 
BRANCH  21  24
ATOM     24  C   UNL     1      48.266   2.736  16.607  0.00  0.00    +0.000 C 
ATOM     25  N   UNL     1      47.605   2.627  17.797  0.00  0.00    +0.000 N 
ATOM     26  O   UNL     1      49.042   1.869  16.213  0.00  0.00    +0.000 OA
ATOM     27  H   UNL     1      46.994   3.375  18.097  0.00  0.00    +0.000 HD
ATOM     28  H   UNL     1      47.778   1.829  18.391  0.00  0.00    +0.000 HD
ENDBRANCH  21  24
ENDBRANCH  16  18
ENDBRANCH  15  16
ENDBRANCH   1  15
TORSDOF 5
ENDMDL
MODEL 5
REMARK VINA RESULT:    -7.475      2.213      3.414
REMARK INTER + INTRA:         -10.375
REMARK INTER:                 -10.011
REMARK INTRA:                  -0.364
REMARK UNBOUND:                -0.714
REMARK  Name = 
REMARK  6 active torsions:
REMARK  status: ('A' for Active; 'I' for Inactive)
REMARK    1  A    between atoms: C_1  and  N_2
REMARK    2  A    between atoms: C_8  and  C_9
REMARK    3  A    between atoms: C_9  and  C_10
REMARK    4  A    between atoms: C_10  and  N_11
REMARK    5  A    between atoms: N_11  and  C_12
REMARK    6  A    between atoms: C_15  and  C_16
REMARK                            x       y       z     vdW  Elec       q    Type
REMARK                         _______ _______ _______ _____ _____    ______ ____
ROOT
ATOM      1  C   UNL     1      45.635   5.103  11.816  0.00  0.00    +0.000 C 
ENDROOT
BRANCH   1   9
ATOM      2  C   UNL     1      51.144   4.006  18.167  0.00  0.00    +0.000 C 
ATOM      3  N   UNL     1      50.187   5.014  17.714  0.00  0.00    +0.000 NA
ATOM      4  C   UNL     1      50.794   5.866  16.655  0.00  0.00    +0.000 C 
ATOM      5  C   UNL     1      49.790   6.863  16.015  0.00  0.00    +0.000 C 
ATOM      6  N   UNL     1      48.663   6.077  15.507  0.00  0.00    +0.000 N 
ATOM      7  C   UNL     1      47.899   6.590  14.477  0.00  0.00    +0.000 A 
ATOM      8  C   UNL     1      47.148   5.697  13.707  0.00  0.00    +0.000 A 
ATOM      9  C   UNL     1      46.406   6.135  12.609  0.00  0.00    +0.000 A 
ATOM     10  C   UNL     1      46.450   7.498  12.319  0.00  0.00    +0.000 A 
ATOM     11  C   UNL     1      47.220   8.326  13.120  0.00  0.00    +0.000 A 
ATOM     12  N   UNL     1      47.947   7.901  14.175  0.00  0.00    +0.000 NA
ATOM     13  C   UNL     1      47.965   5.349  16.573  0.00  0.00    +0.000 C 
ATOM     14  C   UNL     1      48.964   4.353  17.198  0.00  0.00    +0.000 C 
ENDBRANCH   1   9
BRANCH   1  15
ATOM     15  C   UNL     1      44.502   5.680  10.970  0.00  0.00    +0.000 C 
BRANCH  15  16
ATOM     16  N   UNL     1      43.828   4.654  10.172  0.00  0.00    +0.000 N 
ATOM     17  H   UNL     1      43.020   5.019   9.670  0.00  0.00    +0.000 HD
BRANCH  16  18
ATOM     18  C   UNL     1      44.662   3.897   9.327  0.00  0.00    +0.000 A 
ATOM     19  C   UNL     1      45.550   4.476   8.412  0.00  0.00    +0.000 A 
ATOM     20  C   UNL     1      46.401   3.686   7.644  0.00  0.00    +0.000 A 
ATOM     21  C   UNL     1      46.372   2.316   7.837  0.00  0.00    +0.000 A 
ATOM     22  N   UNL     1      45.563   1.694   8.739  0.00  0.00    +0.000 NA
ATOM     23  C   UNL     1      44.750   2.506   9.464  0.00  0.00    +0.000 A 
BRANCH  21  24
ATOM     24  C   UNL     1      47.291   1.447   7.038  0.00  0.00    +0.000 C 
ATOM     25  N   UNL     1      48.327   2.094   6.427  0.00  0.00    +0.000 N 
ATOM     26  O   UNL     1      47.130   0.234   6.929  0.00  0.00    +0.000 OA
ATOM     27  H   UNL     1      48.411   3.098   6.520  0.00  0.00    +0.000 HD
ATOM     28  H   UNL     1      48.963   1.573   5.842  0.00  0.00    +0.000 HD
ENDBRANCH  21  24
ENDBRANCH  16  18
ENDBRANCH  15  16
ENDBRANCH   1  15
TORSDOF 5
ENDMDL
MODEL 6
REMARK VINA RESULT:    -7.467      1.623      2.649
REMARK INTER + INTRA:         -10.365
REMARK INTER:                  -9.937
REMARK INTRA:                  -0.428
REMARK UNBOUND:                -0.714
REMARK  Name = 
REMARK  6 active torsions:
REMARK  status: ('A' for Active; 'I' for Inactive)
REMARK    1  A    between atoms: C_1  and  N_2
REMARK    2  A    between atoms: C_8  and  C_9
REMARK    3  A    between atoms: C_9  and  C_10
REMARK    4  A    between atoms: C_10  and  N_11
REMARK    5  A    between atoms: N_11  and  C_12
REMARK    6  A    between atoms: C_15  and  C_16
REMARK                            x       y       z     vdW  Elec       q    Type
REMARK                         _______ _______ _______ _____ _____    ______ ____
ROOT
ATOM      1  C   UNL     1      45.463   4.923  11.959  0.00  0.00    +0.000 C 
ENDROOT
BRANCH   1   9
ATOM      2  C   UNL     1      52.548   7.975  15.475  0.00  0.00    +0.000 C 
ATOM      3  N   UNL     1      51.120   8.284  15.455  0.00  0.00    +0.000 NA
ATOM      4  C   UNL     1      50.776   9.069  14.238  0.00  0.00    +0.000 C 
ATOM      5  C   UNL     1      49.251   9.305  14.066  0.00  0.00    +0.000 C 
ATOM      6  N   UNL     1      48.606   7.990  14.070  0.00  0.00    +0.000 N 
ATOM      7  C   UNL     1      47.383   7.842  13.446  0.00  0.00    +0.000 A 
ATOM      8  C   UNL     1      46.993   6.557  13.055  0.00  0.00    +0.000 A 
ATOM      9  C   UNL     1      45.803   6.341  12.360  0.00  0.00    +0.000 A 
ATOM     10  C   UNL     1      45.025   7.462  12.075  0.00  0.00    +0.000 A 
ATOM     11  C   UNL     1      45.474   8.707  12.484  0.00  0.00    +0.000 A 
ATOM     12  N   UNL     1      46.631   8.918  13.147  0.00  0.00    +0.000 NA
ATOM     13  C   UNL     1      48.816   7.269  15.331  0.00  0.00    +0.000 C 
ATOM     14  C   UNL     1      50.332   7.028  15.491  0.00  0.00    +0.000 C 
ENDBRANCH   1   9
BRANCH   1  15
ATOM     15  C   UNL     1      44.009   4.722  11.538  0.00  0.00    +0.000 C 
BRANCH  15  16
ATOM     16  N   UNL     1      43.842   4.759  10.084  0.00  0.00    +0.000 N 
ATOM     17  H   UNL     1      43.779   5.710   9.723  0.00  0.00    +0.000 HD
BRANCH  16  18
ATOM     18  C   UNL     1      44.760   3.987   9.347  0.00  0.00    +0.000 A 
ATOM     19  C   UNL     1      44.789   2.588   9.390  0.00  0.00    +0.000 A 
ATOM     20  C   UNL     1      45.672   1.865   8.593  0.00  0.00    +0.000 A 
ATOM     21  C   UNL     1      46.495   2.567   7.729  0.00  0.00    +0.000 A 
ATOM     22  N   UNL     1      46.486   3.923   7.608  0.00  0.00    +0.000 NA
ATOM     23  C   UNL     1      45.608   4.584   8.406  0.00  0.00    +0.000 A 
BRANCH  21  24
ATOM     24  C   UNL     1      47.440   1.812   6.847  0.00  0.00    +0.000 C 
ATOM     25  N   UNL     1      48.495   2.534   6.365  0.00  0.00    +0.000 N 
ATOM     26  O   UNL     1      47.284   0.627   6.568  0.00  0.00    +0.000 OA
ATOM     27  H   UNL     1      48.575   3.515   6.598  0.00  0.00    +0.000 HD
ATOM     28  H   UNL     1      49.151   2.096   5.735  0.00  0.00    +0.000 HD
ENDBRANCH  21  24
ENDBRANCH  16  18
ENDBRANCH  15  16
ENDBRANCH   1  15
TORSDOF 5
ENDMDL
MODEL 7
REMARK VINA RESULT:    -7.270      2.090      2.456
REMARK INTER + INTRA:         -10.109
REMARK INTER:                  -9.722
REMARK INTRA:                  -0.387
REMARK UNBOUND:                -0.714
REMARK  Name = 
REMARK  6 active torsions:
REMARK  status: ('A' for Active; 'I' for Inactive)
REMARK    1  A    between atoms: C_1  and  N_2
REMARK    2  A    between atoms: C_8  and  C_9
REMARK    3  A    between atoms: C_9  and  C_10
REMARK    4  A    between atoms: C_10  and  N_11
REMARK    5  A    between atoms: N_11  and  C_12
REMARK    6  A    between atoms: C_15  and  C_16
REMARK                            x       y       z     vdW  Elec       q    Type
REMARK                         _______ _______ _______ _____ _____    ______ ____
ROOT
ATOM      1  C   UNL     1      45.585   6.496  11.273  0.00  0.00    +0.000 C 
ENDROOT
BRANCH   1   9
ATOM      2  C   UNL     1      52.716  11.054  11.775  0.00  0.00    +0.000 C 
ATOM      3  N   UNL     1      52.246   9.721  12.144  0.00  0.00    +0.000 NA
ATOM      4  C   UNL     1      51.518   9.768  13.442  0.00  0.00    +0.000 C 
ATOM      5  C   UNL     1      50.855   8.418  13.827  0.00  0.00    +0.000 C 
ATOM      6  N   UNL     1      49.976   8.036  12.720  0.00  0.00    +0.000 N 
ATOM      7  C   UNL     1      48.908   7.197  12.972  0.00  0.00    +0.000 A 
ATOM      8  C   UNL     1      47.842   7.197  12.067  0.00  0.00    +0.000 A 
ATOM      9  C   UNL     1      46.701   6.427  12.292  0.00  0.00    +0.000 A 
ATOM     10  C   UNL     1      46.674   5.661  13.456  0.00  0.00    +0.000 A 
ATOM     11  C   UNL     1      47.761   5.713  14.314  0.00  0.00    +0.000 A 
ATOM     12  N   UNL     1      48.861   6.467  14.102  0.00  0.00    +0.000 NA
ATOM     13  C   UNL     1      50.711   7.840  11.465  0.00  0.00    +0.000 C 
ATOM     14  C   UNL     1      51.359   9.187  11.082  0.00  0.00    +0.000 C 
ENDBRANCH   1   9
BRANCH   1  15
ATOM     15  C   UNL     1      44.645   5.293  11.289  0.00  0.00    +0.000 C 
BRANCH  15  16
ATOM     16  N   UNL     1      44.159   4.951   9.950  0.00  0.00    +0.000 N 
ATOM     17  H   UNL     1      43.809   5.762   9.444  0.00  0.00    +0.000 HD
BRANCH  16  18
ATOM     18  C   UNL     1      45.042   4.190   9.160  0.00  0.00    +0.000 A 
ATOM     19  C   UNL     1      45.001   2.792   9.100  0.00  0.00    +0.000 A 
ATOM     20  C   UNL     1      45.851   2.086   8.254  0.00  0.00    +0.000 A 
ATOM     21  C   UNL     1      46.713   2.808   7.445  0.00  0.00    +0.000 A 
ATOM     22  N   UNL     1      46.773   4.168   7.425  0.00  0.00    +0.000 NA
ATOM     23  C   UNL     1      45.925   4.811   8.268  0.00  0.00    +0.000 A 
BRANCH  21  24
ATOM     24  C   UNL     1      47.625   2.074   6.513  0.00  0.00    +0.000 C 
ATOM     25  N   UNL     1      48.017   2.771   5.406  0.00  0.00    +0.000 N 
ATOM     26  O   UNL     1      47.997   0.921   6.718  0.00  0.00    +0.000 OA
ATOM     27  H   UNL     1      47.669   3.710   5.260  0.00  0.00    +0.000 HD
ATOM     28  H   UNL     1      48.602   2.323   4.717  0.00  0.00    +0.000 HD
ENDBRANCH  21  24
ENDBRANCH  16  18
ENDBRANCH  15  16
ENDBRANCH   1  15
TORSDOF 5
ENDMDL
MODEL 8
REMARK VINA RESULT:    -6.478      3.412      7.710
REMARK INTER + INTRA:          -9.086
REMARK INTER:                  -8.320
REMARK INTRA:                  -0.766
REMARK UNBOUND:                -0.714
REMARK  Name = 
REMARK  6 active torsions:
REMARK  status: ('A' for Active; 'I' for Inactive)
REMARK    1  A    between atoms: C_1  and  N_2
REMARK    2  A    between atoms: C_8  and  C_9
REMARK    3  A    between atoms: C_9  and  C_10
REMARK    4  A    between atoms: C_10  and  N_11
REMARK    5  A    between atoms: N_11  and  C_12
REMARK    6  A    between atoms: C_15  and  C_16
REMARK                            x       y       z     vdW  Elec       q    Type
REMARK                         _______ _______ _______ _____ _____    ______ ____
ROOT
ATOM      1  C   UNL     1      49.182   8.491  12.135  0.00  0.00    +0.000 C 
ENDROOT
BRANCH   1   9
ATOM      2  C   UNL     1      43.291   2.406  11.744  0.00  0.00    +0.000 C 
ATOM      3  N   UNL     1      43.482   3.772  11.261  0.00  0.00    +0.000 NA
ATOM      4  C   UNL     1      43.132   4.753  12.325  0.00  0.00    +0.000 C 
ATOM      5  C   UNL     1      43.454   6.222  11.941  0.00  0.00    +0.000 C 
ATOM      6  N   UNL     1      44.876   6.276  11.591  0.00  0.00    +0.000 N 
ATOM      7  C   UNL     1      45.548   7.478  11.706  0.00  0.00    +0.000 A 
ATOM      8  C   UNL     1      46.941   7.445  11.818  0.00  0.00    +0.000 A 
ATOM      9  C   UNL     1      47.680   8.614  12.005  0.00  0.00    +0.000 A 
ATOM     10  C   UNL     1      46.967   9.809  12.074  0.00  0.00    +0.000 A 
ATOM     11  C   UNL     1      45.586   9.769  11.962  0.00  0.00    +0.000 A 
ATOM     12  N   UNL     1      44.869   8.638  11.793  0.00  0.00    +0.000 NA
ATOM     13  C   UNL     1      45.201   5.424  10.442  0.00  0.00    +0.000 C 
ATOM     14  C   UNL     1      44.889   3.964  10.834  0.00  0.00    +0.000 C 
ENDBRANCH   1   9
BRANCH   1  15
ATOM     15  C   UNL     1      49.640   7.426  13.128  0.00  0.00    +0.000 C 
BRANCH  15  16
ATOM     16  N   UNL     1      49.311   7.777  14.511  0.00  0.00    +0.000 N 
ATOM     17  H   UNL     1      48.632   8.534  14.569  0.00  0.00    +0.000 HD
BRANCH  16  18
ATOM     18  C   UNL     1      48.955   6.699  15.343  0.00  0.00    +0.000 A 
ATOM     19  C   UNL     1      49.360   6.601  16.680  0.00  0.00    +0.000 A 
ATOM     20  C   UNL     1      48.928   5.548  17.483  0.00  0.00    +0.000 A 
ATOM     21  C   UNL     1      48.059   4.622  16.933  0.00  0.00    +0.000 A 
ATOM     22  N   UNL     1      47.596   4.683  15.654  0.00  0.00    +0.000 NA
ATOM     23  C   UNL     1      48.045   5.727  14.910  0.00  0.00    +0.000 A 
BRANCH  21  24
ATOM     24  C   UNL     1      47.567   3.491  17.781  0.00  0.00    +0.000 C 
ATOM     25  N   UNL     1      48.303   3.234  18.901  0.00  0.00    +0.000 N 
ATOM     26  O   UNL     1      46.571   2.832  17.493  0.00  0.00    +0.000 OA
ATOM     27  H   UNL     1      49.131   3.783  19.090  0.00  0.00    +0.000 HD
ATOM     28  H   UNL     1      48.048   2.461  19.498  0.00  0.00    +0.000 HD
ENDBRANCH  21  24
ENDBRANCH  16  18
ENDBRANCH  15  16
ENDBRANCH   1  15
TORSDOF 5
ENDMDL
MODEL 9
REMARK VINA RESULT:    -6.270      2.930      5.527
REMARK INTER + INTRA:          -8.817
REMARK INTER:                  -8.044
REMARK INTRA:                  -0.772
REMARK UNBOUND:                -0.714
REMARK  Name = 
REMARK  6 active torsions:
REMARK  status: ('A' for Active; 'I' for Inactive)
REMARK    1  A    between atoms: C_1  and  N_2
REMARK    2  A    between atoms: C_8  and  C_9
REMARK    3  A    between atoms: C_9  and  C_10
REMARK    4  A    between atoms: C_10  and  N_11
REMARK    5  A    between atoms: N_11  and  C_12
REMARK    6  A    between atoms: C_15  and  C_16
REMARK                            x       y       z     vdW  Elec       q    Type
REMARK                         _______ _______ _______ _____ _____    ______ ____
ROOT
ATOM      1  C   UNL     1      47.570   8.099  12.569  0.00  0.00    +0.000 C 
ENDROOT
BRANCH   1   9
ATOM      2  C   UNL     1      50.461   1.815  17.472  0.00  0.00    +0.000 C 
ATOM      3  N   UNL     1      49.760   3.088  17.630  0.00  0.00    +0.000 NA
ATOM      4  C   UNL     1      50.728   4.218  17.626  0.00  0.00    +0.000 C 
ATOM      5  C   UNL     1      50.048   5.614  17.636  0.00  0.00    +0.000 C 
ATOM      6  N   UNL     1      49.144   5.663  16.484  0.00  0.00    +0.000 N 
ATOM      7  C   UNL     1      48.808   6.891  15.949  0.00  0.00    +0.000 A 
ATOM      8  C   UNL     1      48.344   6.931  14.631  0.00  0.00    +0.000 A 
ATOM      9  C   UNL     1      48.050   8.141  14.003  0.00  0.00    +0.000 A 
ATOM     10  C   UNL     1      48.239   9.303  14.748  0.00  0.00    +0.000 A 
ATOM     11  C   UNL     1      48.708   9.193  16.047  0.00  0.00    +0.000 A 
ATOM     12  N   UNL     1      49.004   8.023  16.652  0.00  0.00    +0.000 NA
ATOM     13  C   UNL     1      48.091   4.643  16.557  0.00  0.00    +0.000 C 
ATOM     14  C   UNL     1      48.773   3.259  16.536  0.00  0.00    +0.000 C 
ENDBRANCH   1   9
BRANCH   1  15
ATOM     15  C   UNL     1      46.166   8.662  12.360  0.00  0.00    +0.000 C 
BRANCH  15  16
ATOM     16  N   UNL     1      45.148   7.899  13.084  0.00  0.00    +0.000 N 
ATOM     17  H   UNL     1      44.284   8.424  13.209  0.00  0.00    +0.000 HD
BRANCH  16  18
ATOM     18  C   UNL     1      44.899   6.603  12.595  0.00  0.00    +0.000 A 
ATOM     19  C   UNL     1      45.326   5.443  13.253  0.00  0.00    +0.000 A 
ATOM     20  C   UNL     1      44.999   4.181  12.764  0.00  0.00    +0.000 A 
ATOM     21  C   UNL     1      44.207   4.105  11.631  0.00  0.00    +0.000 A 
ATOM     22  N   UNL     1      43.725   5.193  10.969  0.00  0.00    +0.000 NA
ATOM     23  C   UNL     1      44.071   6.401  11.483  0.00  0.00    +0.000 A 
BRANCH  21  24
ATOM     24  C   UNL     1      43.826   2.761  11.096  0.00  0.00    +0.000 C 
ATOM     25  N   UNL     1      44.575   2.313  10.046  0.00  0.00    +0.000 N 
ATOM     26  O   UNL     1      42.901   2.099  11.562  0.00  0.00    +0.000 OA
ATOM     27  H   UNL     1      45.312   2.898   9.675  0.00  0.00    +0.000 HD
ATOM     28  H   UNL     1      44.348   1.430   9.613  0.00  0.00    +0.000 HD
ENDBRANCH  21  24
ENDBRANCH  16  18
ENDBRANCH  15  16
ENDBRANCH   1  15
TORSDOF 5
ENDMDL
