MODEL 1
REMARK VINA RESULT:    -9.259      0.000      0.000
REMARK INTER + INTRA:         -12.318
REMARK INTER:                 -11.424
REMARK INTRA:                  -0.895
REMARK UNBOUND:                -0.895
REMARK  Name = 
REMARK  4 active torsions:
REMARK  status: ('A' for Active; 'I' for Inactive)
REMARK    1  A    between atoms: C_2  and  C_4
REMARK    2  A    between atoms: N_8  and  C_9
REMARK    3  A    between atoms: C_9  and  C_10
REMARK    4  A    between atoms: C_15  and  C_16
REMARK                            x       y       z     vdW  Elec       q    Type
REMARK                         _______ _______ _______ _____ _____    ______ ____
ROOT
ATOM      1  C   UNL     1      43.445   4.850  11.012  0.00  0.00    +0.000 C 
ENDROOT
BRANCH   1   6
ATOM      2  C   UNL     1      46.372   2.274   7.673  0.00  0.00    +0.000 A 
ATOM      3  C   UNL     1      45.607   1.778   8.724  0.00  0.00    +0.000 A 
ATOM      4  C   UNL     1      44.744   2.638   9.405  0.00  0.00    +0.000 A 
ATOM      5  C   UNL     1      44.674   3.979   9.042  0.00  0.00    +0.000 A 
ATOM      6  N   UNL     1      43.787   4.873   9.603  0.00  0.00    +0.000 N 
ATOM      7  N   UNL     1      45.421   4.470   8.031  0.00  0.00    +0.000 NA
ATOM      8  C   UNL     1      46.255   3.619   7.375  0.00  0.00    +0.000 A 
ATOM      9  H   UNL     1      44.006   5.791   9.227  0.00  0.00    +0.000 HD
BRANCH   2  11
ATOM     10  N   UNL     1      48.385   2.023   6.335  0.00  0.00    +0.000 N 
ATOM     11  C   UNL     1      47.285   1.424   6.883  0.00  0.00    +0.000 C 
ATOM     12  O   UNL     1      47.084   0.224   6.746  0.00  0.00    +0.000 OA
ATOM     13  H   UNL     1      49.052   1.411   5.883  0.00  0.00    +0.000 HD
ATOM     14  H   UNL     1      48.719   2.927   6.639  0.00  0.00    +0.000 HD
ENDBRANCH   2  11
ENDBRANCH   1   6
BRANCH   1  15
ATOM     15  C   UNL     1      44.624   5.194  11.892  0.00  0.00    +0.000 A 
ATOM     16  C   UNL     1      45.026   4.328  12.910  0.00  0.00    +0.000 A 
ATOM     17  C   UNL     1      46.111   4.658  13.718  0.00  0.00    +0.000 A 
ATOM     18  C   UNL     1      46.819   5.854  13.522  0.00  0.00    +0.000 A 
ATOM     19 CL   UNL     1      48.073   6.166  14.680  0.00  0.00    +0.000 Cl
ATOM     20  C   UNL     1      46.474   6.743  12.480  0.00  0.00    +0.000 A 
ATOM     21  C   UNL     1      45.360   6.376  11.682  0.00  0.00    +0.000 A 
BRANCH  20  22
ATOM     22  C   UNL     1      47.213   7.998  12.179  0.00  0.00    +0.000 A 
ATOM     23  C   UNL     1      48.542   8.011  11.745  0.00  0.00    +0.000 A 
ATOM     24  C   UNL     1      49.185   9.229  11.515  0.00  0.00    +0.000 A 
ATOM     25  C   UNL     1      48.484  10.411  11.694  0.00  0.00    +0.000 A 
ATOM     26  C   UNL     1      47.174  10.326  12.122  0.00  0.00    +0.000 A 
ATOM     27  N   UNL     1      46.547   9.159  12.391  0.00  0.00    +0.000 NA
ENDBRANCH  20  22
ENDBRANCH   1  15
TORSDOF 4
ENDMDL
MODEL 2
REMARK VINA RESULT:    -9.183      2.234      3.953
REMARK INTER + INTRA:         -12.225
REMARK INTER:                 -11.383
REMARK INTRA:                  -0.843
REMARK UNBOUND:                -0.895
REMARK  Name = 
REMARK  4 active torsions:
REMARK  status: ('A' for Active; 'I' for Inactive)
REMARK    1  A    between atoms: C_2  and  C_4
REMARK    2  A    between atoms: N_8  and  C_9
REMARK    3  A    between atoms: C_9  and  C_10
REMARK    4  A    between atoms: C_15  and  C_16
REMARK                            x       y       z     vdW  Elec       q    Type
REMARK                         _______ _______ _______ _____ _____    ______ ____
ROOT
ATOM      1  C   UNL     1      44.067   4.953  11.418  0.00  0.00    +0.000 C 
ENDROOT
BRANCH   1   6
ATOM      2  C   UNL     1      46.502   2.518   7.610  0.00  0.00    +0.000 A 
ATOM      3  C   UNL     1      45.828   1.977   8.700  0.00  0.00    +0.000 A 
ATOM      4  C   UNL     1      45.083   2.817   9.529  0.00  0.00    +0.000 A 
ATOM      5  C   UNL     1      45.041   4.183   9.270  0.00  0.00    +0.000 A 
ATOM      6  N   UNL     1      44.261   5.068   9.984  0.00  0.00    +0.000 N 
ATOM      7  N   UNL     1      45.700   4.718   8.222  0.00  0.00    +0.000 NA
ATOM      8  C   UNL     1      46.420   3.886   7.421  0.00  0.00    +0.000 A 
ATOM      9  H   UNL     1      44.484   6.002   9.652  0.00  0.00    +0.000 HD
BRANCH   2  11
ATOM     10  N   UNL     1      48.268   2.319   5.953  0.00  0.00    +0.000 N 
ATOM     11  C   UNL     1      47.285   1.694   6.668  0.00  0.00    +0.000 C 
ATOM     12  O   UNL     1      47.085   0.491   6.551  0.00  0.00    +0.000 OA
ATOM     13  H   UNL     1      48.862   1.724   5.389  0.00  0.00    +0.000 HD
ATOM     14  H   UNL     1      48.632   3.226   6.208  0.00  0.00    +0.000 HD
ENDBRANCH   2  11
ENDBRANCH   1   6
BRANCH   1  15
ATOM     15  C   UNL     1      45.275   5.421  12.196  0.00  0.00    +0.000 A 
ATOM     16  C   UNL     1      45.946   6.588  11.828  0.00  0.00    +0.000 A 
ATOM     17  C   UNL     1      47.061   7.009  12.549  0.00  0.00    +0.000 A 
ATOM     18  C   UNL     1      47.523   6.276  13.654  0.00  0.00    +0.000 A 
ATOM     19 CL   UNL     1      48.983   6.874  14.375  0.00  0.00    +0.000 Cl
ATOM     20  C   UNL     1      46.853   5.112  14.089  0.00  0.00    +0.000 A 
ATOM     21  C   UNL     1      45.725   4.711  13.325  0.00  0.00    +0.000 A 
BRANCH  20  22
ATOM     22  C   UNL     1      47.251   4.319  15.282  0.00  0.00    +0.000 A 
ATOM     23  C   UNL     1      47.104   4.791  16.590  0.00  0.00    +0.000 A 
ATOM     24  C   UNL     1      47.532   4.007  17.663  0.00  0.00    +0.000 A 
ATOM     25  C   UNL     1      48.075   2.755  17.415  0.00  0.00    +0.000 A 
ATOM     26  C   UNL     1      48.189   2.350  16.100  0.00  0.00    +0.000 A 
ATOM     27  N   UNL     1      47.819   3.112  15.046  0.00  0.00    +0.000 NA
ENDBRANCH  20  22
ENDBRANCH   1  15
TORSDOF 4
ENDMDL
MODEL 3
REMARK VINA RESULT:    -7.690      2.072      2.641
REMARK INTER + INTRA:         -10.383
REMARK INTER:                 -10.042
REMARK INTRA:                  -0.341
REMARK UNBOUND:                -0.895
REMARK  Name = 
REMARK  4 active torsions:
REMARK  status: ('A' for Active; 'I' for Inactive)
REMARK    1  A    between atoms: C_2  and  C_4
REMARK    2  A    between atoms: N_8  and  C_9
REMARK    3  A    between atoms: C_9  and  C_10
REMARK    4  A    between atoms: C_15  and  C_16
REMARK                            x       y       z     vdW  Elec       q    Type
REMARK                         _______ _______ _______ _____ _____    ______ ____
ROOT
ATOM      1  C   UNL     1      43.480   3.436  11.065  0.00  0.00    +0.000 C 
ENDROOT
BRANCH   1   6
ATOM      2  C   UNL     1      46.666   2.519   7.146  0.00  0.00    +0.000 A 
ATOM      3  C   UNL     1      46.140   3.733   7.575  0.00  0.00    +0.000 A 
ATOM      4  C   UNL     1      45.428   3.783   8.775  0.00  0.00    +0.000 A 
ATOM      5  C   UNL     1      45.234   2.620   9.513  0.00  0.00    +0.000 A 
ATOM      6  N   UNL     1      44.620   2.597  10.747  0.00  0.00    +0.000 N 
ATOM      7  N   UNL     1      45.731   1.437   9.098  0.00  0.00    +0.000 NA
ATOM      8  C   UNL     1      46.425   1.404   7.929  0.00  0.00    +0.000 A 
ATOM      9  H   UNL     1      44.529   1.623  11.020  0.00  0.00    +0.000 HD
BRANCH   2  11
ATOM     10  N   UNL     1      47.220   3.291   4.910  0.00  0.00    +0.000 N 
ATOM     11  C   UNL     1      47.457   2.387   5.906  0.00  0.00    +0.000 C 
ATOM     12  O   UNL     1      48.315   1.521   5.784  0.00  0.00    +0.000 OA
ATOM     13  H   UNL     1      47.838   3.251   4.109  0.00  0.00    +0.000 HD
ATOM     14  H   UNL     1      46.726   4.158   5.069  0.00  0.00    +0.000 HD
ENDBRANCH   2  11
ENDBRANCH   1   6
BRANCH   1  15
ATOM     15  C   UNL     1      43.877   4.876  11.293  0.00  0.00    +0.000 A 
ATOM     16  C   UNL     1      42.956   5.906  11.095  0.00  0.00    +0.000 A 
ATOM     17  C   UNL     1      43.334   7.230  11.303  0.00  0.00    +0.000 A 
ATOM     18  C   UNL     1      44.636   7.551  11.718  0.00  0.00    +0.000 A 
ATOM     19 CL   UNL     1      44.976   9.249  11.826  0.00  0.00    +0.000 Cl
ATOM     20  C   UNL     1      45.591   6.542  11.970  0.00  0.00    +0.000 A 
ATOM     21  C   UNL     1      45.171   5.205  11.741  0.00  0.00    +0.000 A 
BRANCH  20  22
ATOM     22  C   UNL     1      46.968   6.805  12.466  0.00  0.00    +0.000 A 
ATOM     23  C   UNL     1      47.982   7.318  11.652  0.00  0.00    +0.000 A 
ATOM     24  C   UNL     1      49.262   7.508  12.175  0.00  0.00    +0.000 A 
ATOM     25  C   UNL     1      49.503   7.207  13.507  0.00  0.00    +0.000 A 
ATOM     26  C   UNL     1      48.457   6.705  14.254  0.00  0.00    +0.000 A 
ATOM     27  N   UNL     1      47.221   6.475  13.756  0.00  0.00    +0.000 NA
ENDBRANCH  20  22
ENDBRANCH   1  15
TORSDOF 4
ENDMDL
MODEL 4
REMARK VINA RESULT:    -6.873      3.600      7.266
REMARK INTER + INTRA:          -9.374
REMARK INTER:                  -9.144
REMARK INTRA:                  -0.230
REMARK UNBOUND:                -0.895
REMARK  Name = 
REMARK  4 active torsions:
REMARK  status: ('A' for Active; 'I' for Inactive)
REMARK    1  A    between atoms: C_2  and  C_4
REMARK    2  A    between atoms: N_8  and  C_9
REMARK    3  A    between atoms: C_9  and  C_10
REMARK    4  A    between atoms: C_15  and  C_16
REMARK                            x       y       z     vdW  Elec       q    Type
REMARK                         _______ _______ _______ _____ _____    ______ ____
ROOT
ATOM      1  C   UNL     1      45.378   6.710  11.225  0.00  0.00    +0.000 C 
ENDROOT
BRANCH   1   6
ATOM      2  C   UNL     1      47.704   5.042  15.486  0.00  0.00    +0.000 A 
ATOM      3  C   UNL     1      46.735   4.407  14.717  0.00  0.00    +0.000 A 
ATOM      4  C   UNL     1      46.360   4.964  13.494  0.00  0.00    +0.000 A 
ATOM      5  C   UNL     1      46.941   6.154  13.069  0.00  0.00    +0.000 A 
ATOM      6  N   UNL     1      46.692   6.724  11.839  0.00  0.00    +0.000 N 
ATOM      7  N   UNL     1      47.873   6.783  13.814  0.00  0.00    +0.000 NA
ATOM      8  C   UNL     1      48.230   6.227  15.003  0.00  0.00    +0.000 A 
ATOM      9  H   UNL     1      47.167   7.622  11.821  0.00  0.00    +0.000 HD
BRANCH   2  11
ATOM     10  N   UNL     1      47.234   4.207  17.720  0.00  0.00    +0.000 N 
ATOM     11  C   UNL     1      48.178   4.502  16.777  0.00  0.00    +0.000 C 
ATOM     12  O   UNL     1      49.367   4.298  16.985  0.00  0.00    +0.000 OA
ATOM     13  H   UNL     1      47.565   3.745  18.557  0.00  0.00    +0.000 HD
ATOM     14  H   UNL     1      46.254   4.112  17.496  0.00  0.00    +0.000 HD
ENDBRANCH   2  11
ENDBRANCH   1   6
BRANCH   1  15
ATOM     15  C   UNL     1      45.027   5.353  10.658  0.00  0.00    +0.000 A 
ATOM     16  C   UNL     1      43.992   4.600  11.213  0.00  0.00    +0.000 A 
ATOM     17  C   UNL     1      43.680   3.349  10.687  0.00  0.00    +0.000 A 
ATOM     18  C   UNL     1      44.392   2.829   9.594  0.00  0.00    +0.000 A 
ATOM     19 CL   UNL     1      43.952   1.216   9.130  0.00  0.00    +0.000 Cl
ATOM     20  C   UNL     1      45.421   3.571   8.974  0.00  0.00    +0.000 A 
ATOM     21  C   UNL     1      45.714   4.838   9.542  0.00  0.00    +0.000 A 
BRANCH  20  22
ATOM     22  C   UNL     1      46.177   3.108   7.781  0.00  0.00    +0.000 A 
ATOM     23  C   UNL     1      46.782   1.850   7.706  0.00  0.00    +0.000 A 
ATOM     24  C   UNL     1      47.506   1.495   6.567  0.00  0.00    +0.000 A 
ATOM     25  C   UNL     1      47.593   2.389   5.511  0.00  0.00    +0.000 A 
ATOM     26  C   UNL     1      46.971   3.614   5.650  0.00  0.00    +0.000 A 
ATOM     27  N   UNL     1      46.300   3.993   6.761  0.00  0.00    +0.000 NA
ENDBRANCH  20  22
ENDBRANCH   1  15
TORSDOF 4
ENDMDL
MODEL 5
REMARK VINA RESULT:    -6.483      3.452      7.099
REMARK INTER + INTRA:          -8.893
REMARK INTER:                  -8.565
REMARK INTRA:                  -0.328
REMARK UNBOUND:                -0.895
REMARK  Name = 
REMARK  4 active torsions:
REMARK  status: ('A' for Active; 'I' for Inactive)
REMARK    1  A    between atoms: C_2  and  C_4
REMARK    2  A    between atoms: N_8  and  C_9
REMARK    3  A    between atoms: C_9  and  C_10
REMARK    4  A    between atoms: C_15  and  C_16
REMARK                            x       y       z     vdW  Elec       q    Type
REMARK                         _______ _______ _______ _____ _____    ______ ____
ROOT
ATOM      1  C   UNL     1      45.154   8.030  12.130  0.00  0.00    +0.000 C 
ENDROOT
BRANCH   1   6
ATOM      2  C   UNL     1      50.181   8.313  13.129  0.00  0.00    +0.000 A 
ATOM      3  C   UNL     1      49.465   8.897  12.090  0.00  0.00    +0.000 A 
ATOM      4  C   UNL     1      48.071   8.836  12.102  0.00  0.00    +0.000 A 
ATOM      5  C   UNL     1      47.417   8.176  13.136  0.00  0.00    +0.000 A 
ATOM      6  N   UNL     1      46.045   8.144  13.269  0.00  0.00    +0.000 N 
ATOM      7  N   UNL     1      48.103   7.596  14.142  0.00  0.00    +0.000 NA
ATOM      8  C   UNL     1      49.462   7.666  14.118  0.00  0.00    +0.000 A 
ATOM      9  H   UNL     1      45.831   7.527  14.048  0.00  0.00    +0.000 HD
BRANCH   2  11
ATOM     10  N   UNL     1      52.356   7.997  12.092  0.00  0.00    +0.000 N 
ATOM     11  C   UNL     1      51.655   8.360  13.207  0.00  0.00    +0.000 C 
ATOM     12  O   UNL     1      52.230   8.738  14.221  0.00  0.00    +0.000 OA
ATOM     13  H   UNL     1      53.359   8.130  12.127  0.00  0.00    +0.000 HD
ATOM     14  H   UNL     1      51.930   7.937  11.178  0.00  0.00    +0.000 HD
ENDBRANCH   2  11
ENDBRANCH   1   6
BRANCH   1  15
ATOM     15  C   UNL     1      44.683   6.610  11.914  0.00  0.00    +0.000 A 
ATOM     16  C   UNL     1      43.726   6.045  12.759  0.00  0.00    +0.000 A 
ATOM     17  C   UNL     1      43.302   4.735  12.554  0.00  0.00    +0.000 A 
ATOM     18  C   UNL     1      43.820   3.965  11.501  0.00  0.00    +0.000 A 
ATOM     19 CL   UNL     1      43.270   2.321  11.451  0.00  0.00    +0.000 Cl
ATOM     20  C   UNL     1      44.760   4.507  10.597  0.00  0.00    +0.000 A 
ATOM     21  C   UNL     1      45.173   5.843  10.841  0.00  0.00    +0.000 A 
BRANCH  20  22
ATOM     22  C   UNL     1      45.309   3.770   9.427  0.00  0.00    +0.000 A 
ATOM     23  C   UNL     1      45.391   2.375   9.378  0.00  0.00    +0.000 A 
ATOM     24  C   UNL     1      45.949   1.752   8.262  0.00  0.00    +0.000 A 
ATOM     25  C   UNL     1      46.393   2.527   7.201  0.00  0.00    +0.000 A 
ATOM     26  C   UNL     1      46.281   3.898   7.314  0.00  0.00    +0.000 A 
ATOM     27  N   UNL     1      45.781   4.523   8.404  0.00  0.00    +0.000 NA
ENDBRANCH  20  22
ENDBRANCH   1  15
TORSDOF 4
ENDMDL
MODEL 6
REMARK VINA RESULT:    -6.460      4.103      6.366
REMARK INTER + INTRA:          -8.866
REMARK INTER:                  -8.127
REMARK INTRA:                  -0.739
REMARK UNBOUND:                -0.895
REMARK  Name = 
REMARK  4 active torsions:
REMARK  status: ('A' for Active; 'I' for Inactive)
REMARK    1  A    between atoms: C_2  and  C_4
REMARK    2  A    between atoms: N_8  and  C_9
REMARK    3  A    between atoms: C_9  and  C_10
REMARK    4  A    between atoms: C_15  and  C_16
REMARK                            x       y       z     vdW  Elec       q    Type
REMARK                         _______ _______ _______ _____ _____    ______ ____
ROOT
ATOM      1  C   UNL     1      48.016   8.356  13.771  0.00  0.00    +0.000 C 
ENDROOT
BRANCH   1   6
ATOM      2  C   UNL     1      44.599   5.402  11.331  0.00  0.00    +0.000 A 
ATOM      3  C   UNL     1      45.729   5.019  12.045  0.00  0.00    +0.000 A 
ATOM      4  C   UNL     1      46.429   5.976  12.781  0.00  0.00    +0.000 A 
ATOM      5  C   UNL     1      46.004   7.300  12.775  0.00  0.00    +0.000 A 
ATOM      6  N   UNL     1      46.585   8.288  13.542  0.00  0.00    +0.000 N 
ATOM      7  N   UNL     1      44.916   7.683  12.076  0.00  0.00    +0.000 NA
ATOM      8  C   UNL     1      44.242   6.738  11.366  0.00  0.00    +0.000 A 
ATOM      9  H   UNL     1      46.147   9.168  13.283  0.00  0.00    +0.000 HD
BRANCH   2  11
ATOM     10  N   UNL     1      43.894   4.490   9.192  0.00  0.00    +0.000 N 
ATOM     11  C   UNL     1      43.785   4.447  10.553  0.00  0.00    +0.000 C 
ATOM     12  O   UNL     1      43.063   3.625  11.104  0.00  0.00    +0.000 OA
ATOM     13  H   UNL     1      43.410   3.765   8.678  0.00  0.00    +0.000 HD
ATOM     14  H   UNL     1      44.657   4.958   8.722  0.00  0.00    +0.000 HD
ENDBRANCH   2  11
ENDBRANCH   1   6
BRANCH   1  15
ATOM     15  C   UNL     1      48.387   7.969  15.183  0.00  0.00    +0.000 A 
ATOM     16  C   UNL     1      48.265   8.889  16.225  0.00  0.00    +0.000 A 
ATOM     17  C   UNL     1      48.614   8.524  17.523  0.00  0.00    +0.000 A 
ATOM     18  C   UNL     1      49.086   7.232  17.806  0.00  0.00    +0.000 A 
ATOM     19 CL   UNL     1      49.578   6.972  19.449  0.00  0.00    +0.000 Cl
ATOM     20  C   UNL     1      49.188   6.254  16.792  0.00  0.00    +0.000 A 
ATOM     21  C   UNL     1      48.829   6.666  15.482  0.00  0.00    +0.000 A 
BRANCH  20  22
ATOM     22  C   UNL     1      49.624   4.853  17.029  0.00  0.00    +0.000 A 
ATOM     23  C   UNL     1      50.909   4.522  17.467  0.00  0.00    +0.000 A 
ATOM     24  C   UNL     1      51.261   3.181  17.635  0.00  0.00    +0.000 A 
ATOM     25  C   UNL     1      50.318   2.195  17.389  0.00  0.00    +0.000 A 
ATOM     26  C   UNL     1      49.068   2.592  16.959  0.00  0.00    +0.000 A 
ATOM     27  N   UNL     1      48.720   3.882  16.751  0.00  0.00    +0.000 NA
ENDBRANCH  20  22
ENDBRANCH   1  15
TORSDOF 4
ENDMDL
MODEL 7
REMARK VINA RESULT:    -6.355      5.956      8.388
REMARK INTER + INTRA:          -8.735
REMARK INTER:                  -8.002
REMARK INTRA:                  -0.734
REMARK UNBOUND:                -0.895
REMARK  Name = 
REMARK  4 active torsions:
REMARK  status: ('A' for Active; 'I' for Inactive)
REMARK    1  A    between atoms: C_2  and  C_4
REMARK    2  A    between atoms: N_8  and  C_9
REMARK    3  A    between atoms: C_9  and  C_10
REMARK    4  A    between atoms: C_15  and  C_16
REMARK                            x       y       z     vdW  Elec       q    Type
REMARK                         _______ _______ _______ _____ _____    ______ ____
ROOT
ATOM      1  C   UNL     1      48.593   5.461  17.032  0.00  0.00    +0.000 C 
ENDROOT
BRANCH   1   6
ATOM      2  C   UNL     1      52.107   1.758  17.570  0.00  0.00    +0.000 A 
ATOM      3  C   UNL     1      52.136   3.063  18.051  0.00  0.00    +0.000 A 
ATOM      4  C   UNL     1      50.993   3.857  17.940  0.00  0.00    +0.000 A 
ATOM      5  C   UNL     1      49.852   3.345  17.333  0.00  0.00    +0.000 A 
ATOM      6  N   UNL     1      48.657   4.030  17.262  0.00  0.00    +0.000 N 
ATOM      7  N   UNL     1      49.818   2.084  16.854  0.00  0.00    +0.000 NA
ATOM      8  C   UNL     1      50.939   1.321  16.972  0.00  0.00    +0.000 A 
ATOM      9  H   UNL     1      48.023   3.473  16.696  0.00  0.00    +0.000 HD
BRANCH   2  11
ATOM     10  N   UNL     1      53.084  -0.315  18.379  0.00  0.00    +0.000 N 
ATOM     11  C   UNL     1      53.262   0.843  17.677  0.00  0.00    +0.000 C 
ATOM     12  O   UNL     1      54.329   1.096  17.132  0.00  0.00    +0.000 OA
ATOM     13  H   UNL     1      53.849  -0.976  18.359  0.00  0.00    +0.000 HD
ATOM     14  H   UNL     1      52.168  -0.675  18.610  0.00  0.00    +0.000 HD
ENDBRANCH   2  11
ENDBRANCH   1   6
BRANCH   1  15
ATOM     15  C   UNL     1      48.225   5.794  15.604  0.00  0.00    +0.000 A 
ATOM     16  C   UNL     1      49.024   6.653  14.848  0.00  0.00    +0.000 A 
ATOM     17  C   UNL     1      48.674   6.957  13.535  0.00  0.00    +0.000 A 
ATOM     18  C   UNL     1      47.523   6.405  12.951  0.00  0.00    +0.000 A 
ATOM     19 CL   UNL     1      47.170   6.969  11.348  0.00  0.00    +0.000 Cl
ATOM     20  C   UNL     1      46.706   5.500  13.662  0.00  0.00    +0.000 A 
ATOM     21  C   UNL     1      47.091   5.219  14.999  0.00  0.00    +0.000 A 
BRANCH  20  22
ATOM     22  C   UNL     1      45.506   4.834  13.088  0.00  0.00    +0.000 A 
ATOM     23  C   UNL     1      44.270   5.475  12.962  0.00  0.00    +0.000 A 
ATOM     24  C   UNL     1      43.176   4.778  12.446  0.00  0.00    +0.000 A 
ATOM     25  C   UNL     1      43.340   3.462  12.040  0.00  0.00    +0.000 A 
ATOM     26  C   UNL     1      44.587   2.891  12.192  0.00  0.00    +0.000 A 
ATOM     27  N   UNL     1      45.648   3.536  12.727  0.00  0.00    +0.000 NA
ENDBRANCH  20  22
ENDBRANCH   1  15
TORSDOF 4
ENDMDL
