MODEL 1
REMARK VINA RESULT:    -8.932      0.000      0.000
REMARK INTER + INTRA:         -12.502
REMARK INTER:                 -11.543
REMARK INTRA:                  -0.959
REMARK UNBOUND:                -0.959
REMARK  Name = 
REMARK  5 active torsions:
REMARK  status: ('A' for Active; 'I' for Inactive)
REMARK    1  A    between atoms: C_2  and  C_3
REMARK    2  A    between atoms: C_6  and  N_7
REMARK    3  A    between atoms: N_7  and  C_8
REMARK    4  A    between atoms: C_8  and  C_9
REMARK    5  A    between atoms: C_13  and  C_14
REMARK                            x       y       z     vdW  Elec       q    Type
REMARK                         _______ _______ _______ _____ _____    ______ ____
ROOT
ATOM      1  C   UNL     1      44.143   4.467  11.703  0.00  0.00    +0.000 C 
ATOM      2  C   UNL     1      43.401   3.401  12.496  0.00  0.00    +0.000 C 
ATOM      3  C   UNL     1      42.979   4.821  12.629  0.00  0.00    +0.000 C 
ENDROOT
BRANCH   1   4
ATOM      4  C   UNL     1      45.459   5.058  12.202  0.00  0.00    +0.000 A 
ATOM      5  C   UNL     1      45.947   6.273  11.690  0.00  0.00    +0.000 A 
ATOM      6  C   UNL     1      46.964   6.974  12.336  0.00  0.00    +0.000 A 
ATOM      7  C   UNL     1      47.519   6.461  13.508  0.00  0.00    +0.000 A 
ATOM      8  C   UNL     1      47.123   5.211  14.009  0.00  0.00    +0.000 A 
ATOM      9  C   UNL     1      46.122   4.512  13.311  0.00  0.00    +0.000 A 
BRANCH   8  10
ATOM     10  C   UNL     1      47.632   4.700  15.291  0.00  0.00    +0.000 A 
ATOM     11  C   UNL     1      48.255   5.521  16.232  0.00  0.00    +0.000 A 
ATOM     12  C   UNL     1      48.829   4.943  17.361  0.00  0.00    +0.000 A 
ATOM     13  C   UNL     1      48.766   3.566  17.526  0.00  0.00    +0.000 A 
ATOM     14  C   UNL     1      48.116   2.823  16.557  0.00  0.00    +0.000 A 
ATOM     15  N   UNL     1      47.547   3.356  15.457  0.00  0.00    +0.000 NA
ENDBRANCH   8  10
ENDBRANCH   1   4
BRANCH   1  16
ATOM     16  N   UNL     1      43.963   4.503  10.246  0.00  0.00    +0.000 N 
ATOM     17  H   UNL     1      43.036   4.696   9.884  0.00  0.00    +0.000 HD
BRANCH  16  21
ATOM     18  C   UNL     1      46.659   2.654   7.545  0.00  0.00    +0.000 A 
ATOM     19  C   UNL     1      45.911   1.865   8.421  0.00  0.00    +0.000 A 
ATOM     20  C   UNL     1      45.018   2.466   9.322  0.00  0.00    +0.000 A 
ATOM     21  C   UNL     1      44.814   3.851   9.331  0.00  0.00    +0.000 A 
ATOM     22  C   UNL     1      45.586   4.631   8.455  0.00  0.00    +0.000 A 
ATOM     23  C   UNL     1      46.497   4.035   7.567  0.00  0.00    +0.000 A 
BRANCH  18  25
ATOM     24  N   UNL     1      48.332   1.548   5.906  0.00  0.00    +0.000 NA
ATOM     25  C   UNL     1      47.582   2.046   6.640  0.00  0.00    +0.000 C 
ENDBRANCH  18  25
ENDBRANCH  16  21
ENDBRANCH   1  16
TORSDOF 5
ENDMDL
MODEL 2
REMARK VINA RESULT:    -8.178      2.131      3.779
REMARK INTER + INTRA:         -11.527
REMARK INTER:                 -10.423
REMARK INTRA:                  -1.104
REMARK UNBOUND:                -0.959
REMARK  Name = 
REMARK  5 active torsions:
REMARK  status: ('A' for Active; 'I' for Inactive)
REMARK    1  A    between atoms: C_2  and  C_3
REMARK    2  A    between atoms: C_6  and  N_7
REMARK    3  A    between atoms: N_7  and  C_8
REMARK    4  A    between atoms: C_8  and  C_9
REMARK    5  A    between atoms: C_13  and  C_14
REMARK                            x       y       z     vdW  Elec       q    Type
REMARK                         _______ _______ _______ _____ _____    ______ ____
ROOT
ATOM      1  C   UNL     1      43.947   4.814  11.517  0.00  0.00    +0.000 C 
ATOM      2  C   UNL     1      43.039   3.710  12.039  0.00  0.00    +0.000 C 
ATOM      3  C   UNL     1      42.646   5.128  12.255  0.00  0.00    +0.000 C 
ENDROOT
BRANCH   1   4
ATOM      4  C   UNL     1      45.168   5.278  12.307  0.00  0.00    +0.000 A 
ATOM      5  C   UNL     1      45.885   4.384  13.123  0.00  0.00    +0.000 A 
ATOM      6  C   UNL     1      47.157   4.699  13.598  0.00  0.00    +0.000 A 
ATOM      7  C   UNL     1      47.731   5.927  13.271  0.00  0.00    +0.000 A 
ATOM      8  C   UNL     1      47.018   6.885  12.532  0.00  0.00    +0.000 A 
ATOM      9  C   UNL     1      45.722   6.550  12.101  0.00  0.00    +0.000 A 
BRANCH   8  10
ATOM     10  C   UNL     1      47.643   8.146  12.102  0.00  0.00    +0.000 A 
ATOM     11  C   UNL     1      48.966   8.216  11.662  0.00  0.00    +0.000 A 
ATOM     12  C   UNL     1      49.527   9.462  11.399  0.00  0.00    +0.000 A 
ATOM     13  C   UNL     1      48.758  10.604  11.577  0.00  0.00    +0.000 A 
ATOM     14  C   UNL     1      47.450  10.451  11.999  0.00  0.00    +0.000 A 
ATOM     15  N   UNL     1      46.879   9.256  12.256  0.00  0.00    +0.000 NA
ENDBRANCH   8  10
ENDBRANCH   1   4
BRANCH   1  16
ATOM     16  N   UNL     1      44.039   5.012  10.065  0.00  0.00    +0.000 N 
ATOM     17  H   UNL     1      43.257   5.453   9.594  0.00  0.00    +0.000 HD
BRANCH  16  21
ATOM     18  C   UNL     1      46.681   2.817   7.579  0.00  0.00    +0.000 A 
ATOM     19  C   UNL     1      45.753   2.136   8.369  0.00  0.00    +0.000 A 
ATOM     20  C   UNL     1      44.875   2.852   9.198  0.00  0.00    +0.000 A 
ATOM     21  C   UNL     1      44.869   4.252   9.217  0.00  0.00    +0.000 A 
ATOM     22  C   UNL     1      45.819   4.920   8.429  0.00  0.00    +0.000 A 
ATOM     23  C   UNL     1      46.714   4.207   7.614  0.00  0.00    +0.000 A 
BRANCH  18  25
ATOM     24  N   UNL     1      48.324   1.495   6.074  0.00  0.00    +0.000 NA
ATOM     25  C   UNL     1      47.588   2.090   6.747  0.00  0.00    +0.000 C 
ENDBRANCH  18  25
ENDBRANCH  16  21
ENDBRANCH   1  16
TORSDOF 5
ENDMDL
MODEL 3
REMARK VINA RESULT:    -7.809      2.167      2.883
REMARK INTER + INTRA:         -11.050
REMARK INTER:                 -10.162
REMARK INTRA:                  -0.888
REMARK UNBOUND:                -0.959
REMARK  Name = 
REMARK  5 active torsions:
REMARK  status: ('A' for Active; 'I' for Inactive)
REMARK    1  A    between atoms: C_2  and  C_3
REMARK    2  A    between atoms: C_6  and  N_7
REMARK    3  A    between atoms: N_7  and  C_8
REMARK    4  A    between atoms: C_8  and  C_9
REMARK    5  A    between atoms: C_13  and  C_14
REMARK                            x       y       z     vdW  Elec       q    Type
REMARK                         _______ _______ _______ _____ _____    ______ ____
ROOT
ATOM      1  C   UNL     1      44.110   4.628  11.644  0.00  0.00    +0.000 C 
ATOM      2  C   UNL     1      44.247   3.687  12.832  0.00  0.00    +0.000 C 
ATOM      3  C   UNL     1      43.067   4.590  12.761  0.00  0.00    +0.000 C 
ENDROOT
BRANCH   1   4
ATOM      4  C   UNL     1      44.842   5.967  11.603  0.00  0.00    +0.000 A 
ATOM      5  C   UNL     1      44.153   7.159  11.313  0.00  0.00    +0.000 A 
ATOM      6  C   UNL     1      44.724   8.405  11.569  0.00  0.00    +0.000 A 
ATOM      7  C   UNL     1      46.006   8.477  12.114  0.00  0.00    +0.000 A 
ATOM      8  C   UNL     1      46.763   7.317  12.339  0.00  0.00    +0.000 A 
ATOM      9  C   UNL     1      46.172   6.078  12.032  0.00  0.00    +0.000 A 
BRANCH   8  10
ATOM     10  C   UNL     1      48.078   7.371  12.996  0.00  0.00    +0.000 A 
ATOM     11  C   UNL     1      48.280   6.938  14.308  0.00  0.00    +0.000 A 
ATOM     12  C   UNL     1      49.520   7.144  14.907  0.00  0.00    +0.000 A 
ATOM     13  C   UNL     1      50.526   7.771  14.185  0.00  0.00    +0.000 A 
ATOM     14  C   UNL     1      50.253   8.157  12.885  0.00  0.00    +0.000 A 
ATOM     15  N   UNL     1      49.064   7.965  12.278  0.00  0.00    +0.000 NA
ENDBRANCH   8  10
ENDBRANCH   1   4
BRANCH   1  16
ATOM     16  N   UNL     1      43.804   4.050  10.329  0.00  0.00    +0.000 N 
ATOM     17  H   UNL     1      42.885   3.647  10.187  0.00  0.00    +0.000 HD
BRANCH  16  21
ATOM     18  C   UNL     1      46.621   2.535   7.545  0.00  0.00    +0.000 A 
ATOM     19  C   UNL     1      46.388   3.910   7.611  0.00  0.00    +0.000 A 
ATOM     20  C   UNL     1      45.455   4.422   8.526  0.00  0.00    +0.000 A 
ATOM     21  C   UNL     1      44.781   3.587   9.425  0.00  0.00    +0.000 A 
ATOM     22  C   UNL     1      45.015   2.206   9.334  0.00  0.00    +0.000 A 
ATOM     23  C   UNL     1      45.931   1.686   8.404  0.00  0.00    +0.000 A 
BRANCH  18  25
ATOM     24  N   UNL     1      48.319   1.586   5.835  0.00  0.00    +0.000 NA
ATOM     25  C   UNL     1      47.557   2.009   6.602  0.00  0.00    +0.000 C 
ENDBRANCH  18  25
ENDBRANCH  16  21
ENDBRANCH   1  16
TORSDOF 5
ENDMDL
MODEL 4
REMARK VINA RESULT:    -6.593      1.727      7.365
REMARK INTER + INTRA:          -9.479
REMARK INTER:                  -9.370
REMARK INTRA:                  -0.109
REMARK UNBOUND:                -0.959
REMARK  Name = 
REMARK  5 active torsions:
REMARK  status: ('A' for Active; 'I' for Inactive)
REMARK    1  A    between atoms: C_2  and  C_3
REMARK    2  A    between atoms: C_6  and  N_7
REMARK    3  A    between atoms: N_7  and  C_8
REMARK    4  A    between atoms: C_8  and  C_9
REMARK    5  A    between atoms: C_13  and  C_14
REMARK                            x       y       z     vdW  Elec       q    Type
REMARK                         _______ _______ _______ _____ _____    ______ ____
ROOT
ATOM      1  C   UNL     1      46.231   7.485  12.212  0.00  0.00    +0.000 C 
ATOM      2  C   UNL     1      46.089   8.912  11.703  0.00  0.00    +0.000 C 
ATOM      3  C   UNL     1      45.435   8.537  12.985  0.00  0.00    +0.000 C 
ENDROOT
BRANCH   1   4
ATOM      4  C   UNL     1      45.331   6.364  11.698  0.00  0.00    +0.000 A 
ATOM      5  C   UNL     1      43.946   6.378  11.941  0.00  0.00    +0.000 A 
ATOM      6  C   UNL     1      43.078   5.548  11.233  0.00  0.00    +0.000 A 
ATOM      7  C   UNL     1      43.588   4.678  10.269  0.00  0.00    +0.000 A 
ATOM      8  C   UNL     1      44.971   4.569  10.053  0.00  0.00    +0.000 A 
ATOM      9  C   UNL     1      45.821   5.392  10.813  0.00  0.00    +0.000 A 
BRANCH   8  10
ATOM     10  C   UNL     1      45.518   3.724   8.980  0.00  0.00    +0.000 A 
ATOM     11  C   UNL     1      45.528   2.330   9.054  0.00  0.00    +0.000 A 
ATOM     12  C   UNL     1      46.180   1.603   8.062  0.00  0.00    +0.000 A 
ATOM     13  C   UNL     1      46.802   2.282   7.022  0.00  0.00    +0.000 A 
ATOM     14  C   UNL     1      46.734   3.663   7.011  0.00  0.00    +0.000 A 
ATOM     15  N   UNL     1      46.104   4.392   7.955  0.00  0.00    +0.000 NA
ENDBRANCH   8  10
ENDBRANCH   1   4
BRANCH   1  16
ATOM     16  N   UNL     1      47.544   7.048  12.701  0.00  0.00    +0.000 N 
ATOM     17  H   UNL     1      48.303   6.978  12.032  0.00  0.00    +0.000 HD
BRANCH  16  21
ATOM     18  C   UNL     1      48.089   4.911  16.324  0.00  0.00    +0.000 A 
ATOM     19  C   UNL     1      47.239   4.398  15.341  0.00  0.00    +0.000 A 
ATOM     20  C   UNL     1      47.049   5.099  14.140  0.00  0.00    +0.000 A 
ATOM     21  C   UNL     1      47.737   6.288  13.872  0.00  0.00    +0.000 A 
ATOM     22  C   UNL     1      48.575   6.798  14.876  0.00  0.00    +0.000 A 
ATOM     23  C   UNL     1      48.751   6.111  16.090  0.00  0.00    +0.000 A 
BRANCH  18  25
ATOM     24  N   UNL     1      48.420   3.635  18.553  0.00  0.00    +0.000 NA
ATOM     25  C   UNL     1      48.270   4.210  17.555  0.00  0.00    +0.000 C 
ENDBRANCH  18  25
ENDBRANCH  16  21
ENDBRANCH   1  16
TORSDOF 5
ENDMDL
MODEL 5
REMARK VINA RESULT:    -6.047      2.554      7.862
REMARK INTER + INTRA:          -8.773
REMARK INTER:                  -7.907
REMARK INTRA:                  -0.866
REMARK UNBOUND:                -0.959
REMARK  Name = 
REMARK  5 active torsions:
REMARK  status: ('A' for Active; 'I' for Inactive)
REMARK    1  A    between atoms: C_2  and  C_3
REMARK    2  A    between atoms: C_6  and  N_7
REMARK    3  A    between atoms: N_7  and  C_8
REMARK    4  A    between atoms: C_8  and  C_9
REMARK    5  A    between atoms: C_13  and  C_14
REMARK                            x       y       z     vdW  Elec       q    Type
REMARK                         _______ _______ _______ _____ _____    ______ ____
ROOT
ATOM      1  C   UNL     1      48.654   8.034  12.749  0.00  0.00    +0.000 C 
ATOM      2  C   UNL     1      49.779   7.524  11.860  0.00  0.00    +0.000 C 
ATOM      3  C   UNL     1      49.243   8.892  11.630  0.00  0.00    +0.000 C 
ENDROOT
BRANCH   1   4
ATOM      4  C   UNL     1      47.196   7.672  12.473  0.00  0.00    +0.000 A 
ATOM      5  C   UNL     1      46.168   8.611  12.670  0.00  0.00    +0.000 A 
ATOM      6  C   UNL     1      44.894   8.409  12.141  0.00  0.00    +0.000 A 
ATOM      7  C   UNL     1      44.625   7.252  11.411  0.00  0.00    +0.000 A 
ATOM      8  C   UNL     1      45.595   6.248  11.263  0.00  0.00    +0.000 A 
ATOM      9  C   UNL     1      46.858   6.466  11.843  0.00  0.00    +0.000 A 
BRANCH   8  10
ATOM     10  C   UNL     1      45.356   5.066  10.421  0.00  0.00    +0.000 A 
ATOM     11  C   UNL     1      45.694   5.028   9.067  0.00  0.00    +0.000 A 
ATOM     12  C   UNL     1      45.318   3.926   8.305  0.00  0.00    +0.000 A 
ATOM     13  C   UNL     1      44.618   2.891   8.909  0.00  0.00    +0.000 A 
ATOM     14  C   UNL     1      44.335   2.994  10.258  0.00  0.00    +0.000 A 
ATOM     15  N   UNL     1      44.693   4.047  11.022  0.00  0.00    +0.000 NA
ENDBRANCH   8  10
ENDBRANCH   1   4
BRANCH   1  16
ATOM     16  N   UNL     1      48.959   8.340  14.152  0.00  0.00    +0.000 N 
ATOM     17  H   UNL     1      49.133   9.307  14.403  0.00  0.00    +0.000 HD
BRANCH  16  21
ATOM     18  C   UNL     1      50.615   5.667  16.998  0.00  0.00    +0.000 A 
ATOM     19  C   UNL     1      49.259   5.577  16.675  0.00  0.00    +0.000 A 
ATOM     20  C   UNL     1      48.700   6.459  15.736  0.00  0.00    +0.000 A 
ATOM     21  C   UNL     1      49.485   7.405  15.067  0.00  0.00    +0.000 A 
ATOM     22  C   UNL     1      50.841   7.493  15.416  0.00  0.00    +0.000 A 
ATOM     23  C   UNL     1      51.401   6.627  16.371  0.00  0.00    +0.000 A 
BRANCH  18  25
ATOM     24  N   UNL     1      51.640   4.065  18.756  0.00  0.00    +0.000 NA
ATOM     25  C   UNL     1      51.182   4.783  17.966  0.00  0.00    +0.000 C 
ENDBRANCH  18  25
ENDBRANCH  16  21
ENDBRANCH   1  16
TORSDOF 5
ENDMDL
MODEL 6
REMARK VINA RESULT:    -5.944      1.608      2.544
REMARK INTER + INTRA:          -8.641
REMARK INTER:                  -8.780
REMARK INTRA:                   0.140
REMARK UNBOUND:                -0.959
REMARK  Name = 
REMARK  5 active torsions:
REMARK  status: ('A' for Active; 'I' for Inactive)
REMARK    1  A    between atoms: C_2  and  C_3
REMARK    2  A    between atoms: C_6  and  N_7
REMARK    3  A    between atoms: N_7  and  C_8
REMARK    4  A    between atoms: C_8  and  C_9
REMARK    5  A    between atoms: C_13  and  C_14
REMARK                            x       y       z     vdW  Elec       q    Type
REMARK                         _______ _______ _______ _____ _____    ______ ____
ROOT
ATOM      1  C   UNL     1      44.833   6.274  11.371  0.00  0.00    +0.000 C 
ATOM      2  C   UNL     1      44.385   7.723  11.494  0.00  0.00    +0.000 C 
ATOM      3  C   UNL     1      45.666   7.421  10.800  0.00  0.00    +0.000 C 
ENDROOT
BRANCH   1   4
ATOM      4  C   UNL     1      45.558   5.566  12.513  0.00  0.00    +0.000 A 
ATOM      5  C   UNL     1      45.439   4.176  12.693  0.00  0.00    +0.000 A 
ATOM      6  C   UNL     1      46.317   3.476  13.519  0.00  0.00    +0.000 A 
ATOM      7  C   UNL     1      47.329   4.163  14.190  0.00  0.00    +0.000 A 
ATOM      8  C   UNL     1      47.432   5.561  14.107  0.00  0.00    +0.000 A 
ATOM      9  C   UNL     1      46.505   6.240  13.296  0.00  0.00    +0.000 A 
BRANCH   8  10
ATOM     10  C   UNL     1      48.546   6.288  14.734  0.00  0.00    +0.000 A 
ATOM     11  C   UNL     1      49.253   7.293  14.072  0.00  0.00    +0.000 A 
ATOM     12  C   UNL     1      50.378   7.844  14.679  0.00  0.00    +0.000 A 
ATOM     13  C   UNL     1      50.768   7.382  15.929  0.00  0.00    +0.000 A 
ATOM     14  C   UNL     1      50.006   6.396  16.528  0.00  0.00    +0.000 A 
ATOM     15  N   UNL     1      48.909   5.849  15.965  0.00  0.00    +0.000 NA
ENDBRANCH   8  10
ENDBRANCH   1   4
BRANCH   1  16
ATOM     16  N   UNL     1      44.082   5.388  10.472  0.00  0.00    +0.000 N 
ATOM     17  H   UNL     1      43.102   5.224  10.672  0.00  0.00    +0.000 HD
BRANCH  16  21
ATOM     18  C   UNL     1      46.036   2.488   8.072  0.00  0.00    +0.000 A 
ATOM     19  C   UNL     1      45.094   2.079   9.020  0.00  0.00    +0.000 A 
ATOM     20  C   UNL     1      44.444   3.030   9.821  0.00  0.00    +0.000 A 
ATOM     21  C   UNL     1      44.677   4.401   9.660  0.00  0.00    +0.000 A 
ATOM     22  C   UNL     1      45.638   4.793   8.716  0.00  0.00    +0.000 A 
ATOM     23  C   UNL     1      46.308   3.843   7.926  0.00  0.00    +0.000 A 
BRANCH  18  25
ATOM     24  N   UNL     1      47.265   0.737   6.612  0.00  0.00    +0.000 NA
ATOM     25  C   UNL     1      46.712   1.520   7.268  0.00  0.00    +0.000 C 
ENDBRANCH  18  25
ENDBRANCH  16  21
ENDBRANCH   1  16
TORSDOF 5
ENDMDL
