MODEL 1
REMARK VINA RESULT:    -8.311      0.000      0.000
REMARK INTER + INTRA:         -11.594
REMARK INTER:                 -10.984
REMARK INTRA:                  -0.610
REMARK UNBOUND:                -0.610
REMARK  Name = 
REMARK  6 active torsions:
REMARK  status: ('A' for Active; 'I' for Inactive)
REMARK    1  A    between atoms: C_2  and  C_4
REMARK    2  A    between atoms: C_7  and  C_8
REMARK    3  A    between atoms: C_8  and  N_9
REMARK    4  A    between atoms: N_9  and  C_10
REMARK    5  A    between atoms: C_13  and  C_14
REMARK    6  A    between atoms: C_21  and  N_22
REMARK                            x       y       z     vdW  Elec       q    Type
REMARK                         _______ _______ _______ _____ _____    ______ ____
ROOT
ATOM      1  C   UNL     1      44.515   4.397  11.227  0.00  0.00    +0.000 C 
ATOM      2  C   UNL     1      43.017   4.068  11.558  0.00  0.00    +0.000 C 
ATOM      3  C   UNL     1      42.878   5.483  12.137  0.00  0.00    +0.000 C 
ATOM      4  C   UNL     1      44.030   5.908  11.214  0.00  0.00    +0.000 C 
ENDROOT
BRANCH   1   8
ATOM      5  C   UNL     1      46.459   2.848   7.529  0.00  0.00    +0.000 A 
ATOM      6  C   UNL     1      46.355   4.220   7.743  0.00  0.00    +0.000 A 
ATOM      7  C   UNL     1      45.710   4.701   8.890  0.00  0.00    +0.000 A 
ATOM      8  C   UNL     1      45.145   3.845   9.859  0.00  0.00    +0.000 A 
ATOM      9  C   UNL     1      45.210   2.465   9.565  0.00  0.00    +0.000 A 
ATOM     10  C   UNL     1      45.859   1.969   8.427  0.00  0.00    +0.000 A 
BRANCH   5  12
ATOM     11  N   UNL     1      47.192   3.033   5.210  0.00  0.00    +0.000 N 
ATOM     12  C   UNL     1      47.201   2.293   6.367  0.00  0.00    +0.000 C 
ATOM     13  O   UNL     1      47.850   1.255   6.447  0.00  0.00    +0.000 OA
ATOM     14  H   UNL     1      47.828   2.727   4.479  0.00  0.00    +0.000 HD
ATOM     15  H   UNL     1      46.925   4.012   5.205  0.00  0.00    +0.000 HD
ENDBRANCH   5  12
ENDBRANCH   1   8
BRANCH   3  16
ATOM     16  N   UNL     1      41.620   6.066  11.689  0.00  0.00    +0.000 NA
ATOM     17  H   UNL     1      41.704   6.896  11.104  0.00  0.00    +0.000 HD
ATOM     18  H   UNL     1      40.984   6.315  12.447  0.00  0.00    +0.000 HD
ENDBRANCH   3  16
BRANCH   1  19
ATOM     19  N   UNL     1      45.445   4.201  12.319  0.00  0.00    +0.000 N 
ATOM     20  H   UNL     1      45.599   3.224  12.555  0.00  0.00    +0.000 HD
BRANCH  19  21
ATOM     21  C   UNL     1      46.440   5.036  12.856  0.00  0.00    +0.000 A 
ATOM     22  C   UNL     1      46.972   6.146  12.207  0.00  0.00    +0.000 A 
ATOM     23  C   UNL     1      48.003   6.886  12.788  0.00  0.00    +0.000 A 
ATOM     24  C   UNL     1      48.455   6.554  14.063  0.00  0.00    +0.000 A 
ATOM     25  N   UNL     1      47.890   5.534  14.765  0.00  0.00    +0.000 NA
ATOM     26  C   UNL     1      46.908   4.822  14.155  0.00  0.00    +0.000 A 
BRANCH  24  27
ATOM     27  C   UNL     1      49.602   7.338  14.685  0.00  0.00    +0.000 C 
ATOM     28  F   UNL     1      49.182   8.422  15.408  0.00  0.00    +0.000 F 
ATOM     29  F   UNL     1      50.354   6.598  15.550  0.00  0.00    +0.000 F 
ATOM     30  F   UNL     1      50.472   7.840  13.762  0.00  0.00    +0.000 F 
ENDBRANCH  24  27
ENDBRANCH  19  21
ENDBRANCH   1  19
TORSDOF 6
ENDMDL
MODEL 2
REMARK VINA RESULT:    -7.746      4.544      7.105
REMARK INTER + INTRA:         -10.847
REMARK INTER:                 -10.043
REMARK INTRA:                  -0.804
REMARK UNBOUND:                -0.610
REMARK  Name = 
REMARK  6 active torsions:
REMARK  status: ('A' for Active; 'I' for Inactive)
REMARK    1  A    between atoms: C_2  and  C_4
REMARK    2  A    between atoms: C_7  and  C_8
REMARK    3  A    between atoms: C_8  and  N_9
REMARK    4  A    between atoms: N_9  and  C_10
REMARK    5  A    between atoms: C_13  and  C_14
REMARK    6  A    between atoms: C_21  and  N_22
REMARK                            x       y       z     vdW  Elec       q    Type
REMARK                         _______ _______ _______ _____ _____    ______ ____
ROOT
ATOM      1  C   UNL     1      44.407   5.477  11.581  0.00  0.00    +0.000 C 
ATOM      2  C   UNL     1      43.116   5.486  12.474  0.00  0.00    +0.000 C 
ATOM      3  C   UNL     1      43.286   3.972  12.662  0.00  0.00    +0.000 C 
ATOM      4  C   UNL     1      44.786   4.168  12.396  0.00  0.00    +0.000 C 
ENDROOT
BRANCH   1   8
ATOM      5  C   UNL     1      47.276   8.844  12.115  0.00  0.00    +0.000 A 
ATOM      6  C   UNL     1      45.904   9.083  12.136  0.00  0.00    +0.000 A 
ATOM      7  C   UNL     1      45.007   8.025  11.930  0.00  0.00    +0.000 A 
ATOM      8  C   UNL     1      45.435   6.702  11.694  0.00  0.00    +0.000 A 
ATOM      9  C   UNL     1      46.834   6.519  11.610  0.00  0.00    +0.000 A 
ATOM     10  C   UNL     1      47.741   7.564  11.821  0.00  0.00    +0.000 A 
BRANCH   5  12
ATOM     11  N   UNL     1      47.862  10.917  13.258  0.00  0.00    +0.000 N 
ATOM     12  C   UNL     1      48.260   9.918  12.403  0.00  0.00    +0.000 C 
ATOM     13  O   UNL     1      49.402   9.890  11.957  0.00  0.00    +0.000 OA
ATOM     14  H   UNL     1      48.589  11.554  13.572  0.00  0.00    +0.000 HD
ATOM     15  H   UNL     1      47.054  10.810  13.863  0.00  0.00    +0.000 HD
ENDBRANCH   5  12
ENDBRANCH   1   8
BRANCH   3  16
ATOM     16  N   UNL     1      43.052   3.630  14.058  0.00  0.00    +0.000 NA
ATOM     17  H   UNL     1      42.767   4.402  14.659  0.00  0.00    +0.000 HD
ATOM     18  H   UNL     1      43.850   3.192  14.518  0.00  0.00    +0.000 HD
ENDBRANCH   3  16
BRANCH   1  19
ATOM     19  N   UNL     1      44.193   5.131  10.192  0.00  0.00    +0.000 N 
ATOM     20  H   UNL     1      43.648   5.818   9.678  0.00  0.00    +0.000 HD
BRANCH  19  21
ATOM     21  C   UNL     1      44.881   4.256   9.334  0.00  0.00    +0.000 A 
ATOM     22  C   UNL     1      44.718   2.875   9.321  0.00  0.00    +0.000 A 
ATOM     23  C   UNL     1      45.487   2.072   8.477  0.00  0.00    +0.000 A 
ATOM     24  C   UNL     1      46.378   2.667   7.586  0.00  0.00    +0.000 A 
ATOM     25  N   UNL     1      46.493   4.020   7.505  0.00  0.00    +0.000 NA
ATOM     26  C   UNL     1      45.746   4.764   8.361  0.00  0.00    +0.000 A 
BRANCH  24  27
ATOM     27  C   UNL     1      47.243   1.793   6.689  0.00  0.00    +0.000 C 
ATOM     28  F   UNL     1      48.525   1.653   7.150  0.00  0.00    +0.000 F 
ATOM     29  F   UNL     1      46.769   0.521   6.556  0.00  0.00    +0.000 F 
ATOM     30  F   UNL     1      47.371   2.283   5.423  0.00  0.00    +0.000 F 
ENDBRANCH  24  27
ENDBRANCH  19  21
ENDBRANCH   1  19
TORSDOF 6
ENDMDL
MODEL 3
REMARK VINA RESULT:    -7.635      1.969      2.444
REMARK INTER + INTRA:         -10.699
REMARK INTER:                  -9.762
REMARK INTRA:                  -0.937
REMARK UNBOUND:                -0.610
REMARK  Name = 
REMARK  6 active torsions:
REMARK  status: ('A' for Active; 'I' for Inactive)
REMARK    1  A    between atoms: C_2  and  C_4
REMARK    2  A    between atoms: C_7  and  C_8
REMARK    3  A    between atoms: C_8  and  N_9
REMARK    4  A    between atoms: N_9  and  C_10
REMARK    5  A    between atoms: C_13  and  C_14
REMARK    6  A    between atoms: C_21  and  N_22
REMARK                            x       y       z     vdW  Elec       q    Type
REMARK                         _______ _______ _______ _____ _____    ______ ____
ROOT
ATOM      1  C   UNL     1      44.551   4.773  11.012  0.00  0.00    +0.000 C 
ATOM      2  C   UNL     1      44.852   4.200  12.442  0.00  0.00    +0.000 C 
ATOM      3  C   UNL     1      43.417   4.565  12.845  0.00  0.00    +0.000 C 
ATOM      4  C   UNL     1      43.036   4.453  11.361  0.00  0.00    +0.000 C 
ENDROOT
BRANCH   1   8
ATOM      5  C   UNL     1      46.423   2.658   7.566  0.00  0.00    +0.000 A 
ATOM      6  C   UNL     1      46.419   4.050   7.615  0.00  0.00    +0.000 A 
ATOM      7  C   UNL     1      45.796   4.710   8.683  0.00  0.00    +0.000 A 
ATOM      8  C   UNL     1      45.156   4.018   9.732  0.00  0.00    +0.000 A 
ATOM      9  C   UNL     1      45.121   2.612   9.604  0.00  0.00    +0.000 A 
ATOM     10  C   UNL     1      45.746   1.938   8.547  0.00  0.00    +0.000 A 
BRANCH   5  12
ATOM     11  N   UNL     1      47.825   2.663   5.569  0.00  0.00    +0.000 N 
ATOM     12  C   UNL     1      47.136   1.916   6.494  0.00  0.00    +0.000 C 
ATOM     13  O   UNL     1      47.170   0.690   6.465  0.00  0.00    +0.000 OA
ATOM     14  H   UNL     1      48.435   2.147   4.942  0.00  0.00    +0.000 HD
ATOM     15  H   UNL     1      48.059   3.636   5.738  0.00  0.00    +0.000 HD
ENDBRANCH   5  12
ENDBRANCH   1   8
BRANCH   3  16
ATOM     16  N   UNL     1      42.836   3.469  13.608  0.00  0.00    +0.000 NA
ATOM     17  H   UNL     1      43.501   2.801  13.995  0.00  0.00    +0.000 HD
ATOM     18  H   UNL     1      42.150   2.920  13.091  0.00  0.00    +0.000 HD
ENDBRANCH   3  16
BRANCH   1  19
ATOM     19  N   UNL     1      44.719   6.204  10.873  0.00  0.00    +0.000 N 
ATOM     20  H   UNL     1      43.884   6.685  10.550  0.00  0.00    +0.000 HD
BRANCH  19  21
ATOM     21  C   UNL     1      45.653   7.091  11.436  0.00  0.00    +0.000 A 
ATOM     22  C   UNL     1      47.030   6.893  11.431  0.00  0.00    +0.000 A 
ATOM     23  C   UNL     1      47.883   7.795  12.068  0.00  0.00    +0.000 A 
ATOM     24  C   UNL     1      47.356   8.944  12.654  0.00  0.00    +0.000 A 
ATOM     25  N   UNL     1      46.024   9.217  12.594  0.00  0.00    +0.000 NA
ATOM     26  C   UNL     1      45.225   8.301  11.988  0.00  0.00    +0.000 A 
BRANCH  24  27
ATOM     27  C   UNL     1      48.280   9.913  13.380  0.00  0.00    +0.000 C 
ATOM     28  F   UNL     1      49.598   9.746  13.050  0.00  0.00    +0.000 F 
ATOM     29  F   UNL     1      48.006  11.222  13.112  0.00  0.00    +0.000 F 
ATOM     30  F   UNL     1      48.233   9.786  14.737  0.00  0.00    +0.000 F 
ENDBRANCH  24  27
ENDBRANCH  19  21
ENDBRANCH   1  19
TORSDOF 6
ENDMDL
MODEL 4
REMARK VINA RESULT:    -7.425      4.221      7.085
REMARK INTER + INTRA:         -10.422
REMARK INTER:                  -9.861
REMARK INTRA:                  -0.561
REMARK UNBOUND:                -0.610
REMARK  Name = 
REMARK  6 active torsions:
REMARK  status: ('A' for Active; 'I' for Inactive)
REMARK    1  A    between atoms: C_2  and  C_4
REMARK    2  A    between atoms: C_7  and  C_8
REMARK    3  A    between atoms: C_8  and  N_9
REMARK    4  A    between atoms: N_9  and  C_10
REMARK    5  A    between atoms: C_13  and  C_14
REMARK    6  A    between atoms: C_21  and  N_22
REMARK                            x       y       z     vdW  Elec       q    Type
REMARK                         _______ _______ _______ _____ _____    ______ ____
ROOT
ATOM      1  C   UNL     1      44.460   5.059  11.924  0.00  0.00    +0.000 C 
ATOM      2  C   UNL     1      43.729   6.168  11.088  0.00  0.00    +0.000 C 
ATOM      3  C   UNL     1      42.390   5.569  11.540  0.00  0.00    +0.000 C 
ATOM      4  C   UNL     1      43.121   5.024  12.777  0.00  0.00    +0.000 C 
ENDROOT
BRANCH   1   8
ATOM      5  C   UNL     1      48.051   6.273  14.265  0.00  0.00    +0.000 A 
ATOM      6  C   UNL     1      47.748   6.913  13.066  0.00  0.00    +0.000 A 
ATOM      7  C   UNL     1      46.638   6.502  12.316  0.00  0.00    +0.000 A 
ATOM      8  C   UNL     1      45.796   5.446  12.722  0.00  0.00    +0.000 A 
ATOM      9  C   UNL     1      46.183   4.778  13.906  0.00  0.00    +0.000 A 
ATOM     10  C   UNL     1      47.284   5.183  14.670  0.00  0.00    +0.000 A 
BRANCH   5  12
ATOM     11  N   UNL     1      49.214   6.225  16.409  0.00  0.00    +0.000 N 
ATOM     12  C   UNL     1      49.171   6.725  15.130  0.00  0.00    +0.000 C 
ATOM     13  O   UNL     1      50.060   7.459  14.710  0.00  0.00    +0.000 OA
ATOM     14  H   UNL     1      50.063   6.412  16.934  0.00  0.00    +0.000 HD
ATOM     15  H   UNL     1      48.679   5.406  16.679  0.00  0.00    +0.000 HD
ENDBRANCH   5  12
ENDBRANCH   1   8
BRANCH   3  16
ATOM     16  N   UNL     1      41.482   6.644  11.913  0.00  0.00    +0.000 NA
ATOM     17  H   UNL     1      41.095   7.182  11.139  0.00  0.00    +0.000 HD
ATOM     18  H   UNL     1      41.884   7.324  12.558  0.00  0.00    +0.000 HD
ENDBRANCH   3  16
BRANCH   1  19
ATOM     19  N   UNL     1      44.631   3.790  11.249  0.00  0.00    +0.000 N 
ATOM     20  H   UNL     1      44.021   3.055  11.598  0.00  0.00    +0.000 HD
BRANCH  19  21
ATOM     21  C   UNL     1      45.179   3.469   9.996  0.00  0.00    +0.000 A 
ATOM     22  C   UNL     1      45.259   2.180   9.478  0.00  0.00    +0.000 A 
ATOM     23  C   UNL     1      45.876   1.941   8.249  0.00  0.00    +0.000 A 
ATOM     24  C   UNL     1      46.353   3.013   7.499  0.00  0.00    +0.000 A 
ATOM     25  N   UNL     1      46.205   4.295   7.931  0.00  0.00    +0.000 NA
ATOM     26  C   UNL     1      45.623   4.483   9.143  0.00  0.00    +0.000 A 
BRANCH  24  27
ATOM     27  C   UNL     1      47.057   2.753   6.174  0.00  0.00    +0.000 C 
ATOM     28  F   UNL     1      46.736   1.542   5.624  0.00  0.00    +0.000 F 
ATOM     29  F   UNL     1      46.756   3.674   5.214  0.00  0.00    +0.000 F 
ATOM     30  F   UNL     1      48.417   2.748   6.280  0.00  0.00    +0.000 F 
ENDBRANCH  24  27
ENDBRANCH  19  21
ENDBRANCH   1  19
TORSDOF 6
ENDMDL
MODEL 5
REMARK VINA RESULT:    -7.215      4.895      7.375
REMARK INTER + INTRA:         -10.144
REMARK INTER:                  -9.299
REMARK INTRA:                  -0.846
REMARK UNBOUND:                -0.610
REMARK  Name = 
REMARK  6 active torsions:
REMARK  status: ('A' for Active; 'I' for Inactive)
REMARK    1  A    between atoms: C_2  and  C_4
REMARK    2  A    between atoms: C_7  and  C_8
REMARK    3  A    between atoms: C_8  and  N_9
REMARK    4  A    between atoms: N_9  and  C_10
REMARK    5  A    between atoms: C_13  and  C_14
REMARK    6  A    between atoms: C_21  and  N_22
REMARK                            x       y       z     vdW  Elec       q    Type
REMARK                         _______ _______ _______ _____ _____    ______ ____
ROOT
ATOM      1  C   UNL     1      44.879   5.168  11.976  0.00  0.00    +0.000 C 
ATOM      2  C   UNL     1      44.640   4.664  13.443  0.00  0.00    +0.000 C 
ATOM      3  C   UNL     1      45.925   3.833  13.323  0.00  0.00    +0.000 C 
ATOM      4  C   UNL     1      46.405   4.839  12.265  0.00  0.00    +0.000 C 
ENDROOT
BRANCH   1   8
ATOM      5  C   UNL     1      43.879   9.438  11.189  0.00  0.00    +0.000 A 
ATOM      6  C   UNL     1      42.933   8.442  10.953  0.00  0.00    +0.000 A 
ATOM      7  C   UNL     1      43.267   7.098  11.168  0.00  0.00    +0.000 A 
ATOM      8  C   UNL     1      44.541   6.694  11.616  0.00  0.00    +0.000 A 
ATOM      9  C   UNL     1      45.490   7.730  11.773  0.00  0.00    +0.000 A 
ATOM     10  C   UNL     1      45.169   9.078  11.570  0.00  0.00    +0.000 A 
BRANCH   5  12
ATOM     11  N   UNL     1      43.992  11.516   9.916  0.00  0.00    +0.000 N 
ATOM     12  C   UNL     1      43.546  10.879  11.049  0.00  0.00    +0.000 C 
ATOM     13  O   UNL     1      42.850  11.468  11.869  0.00  0.00    +0.000 OA
ATOM     14  H   UNL     1      43.627  12.449   9.755  0.00  0.00    +0.000 HD
ATOM     15  H   UNL     1      44.302  10.997   9.100  0.00  0.00    +0.000 HD
ENDBRANCH   5  12
ENDBRANCH   1   8
BRANCH   3  16
ATOM     16  N   UNL     1      46.702   3.965  14.547  0.00  0.00    +0.000 NA
ATOM     17  H   UNL     1      46.933   4.920  14.821  0.00  0.00    +0.000 HD
ATOM     18  H   UNL     1      47.583   3.451  14.539  0.00  0.00    +0.000 HD
ENDBRANCH   3  16
BRANCH   1  19
ATOM     19  N   UNL     1      44.389   4.290  10.935  0.00  0.00    +0.000 N 
ATOM     20  H   UNL     1      43.376   4.281  10.850  0.00  0.00    +0.000 HD
BRANCH  19  21
ATOM     21  C   UNL     1      45.017   3.749   9.800  0.00  0.00    +0.000 A 
ATOM     22  C   UNL     1      45.105   2.390   9.520  0.00  0.00    +0.000 A 
ATOM     23  C   UNL     1      45.802   1.934   8.400  0.00  0.00    +0.000 A 
ATOM     24  C   UNL     1      46.355   2.855   7.513  0.00  0.00    +0.000 A 
ATOM     25  N   UNL     1      46.205   4.194   7.705  0.00  0.00    +0.000 NA
ATOM     26  C   UNL     1      45.543   4.596   8.820  0.00  0.00    +0.000 A 
BRANCH  24  27
ATOM     27  C   UNL     1      47.145   2.362   6.309  0.00  0.00    +0.000 C 
ATOM     28  F   UNL     1      48.484   2.636   6.395  0.00  0.00    +0.000 F 
ATOM     29  F   UNL     1      47.067   1.012   6.129  0.00  0.00    +0.000 F 
ATOM     30  F   UNL     1      46.741   2.924   5.134  0.00  0.00    +0.000 F 
ENDBRANCH  24  27
ENDBRANCH  19  21
ENDBRANCH   1  19
TORSDOF 6
ENDMDL
MODEL 6
REMARK VINA RESULT:    -6.739      4.674      7.919
REMARK INTER + INTRA:          -9.516
REMARK INTER:                  -8.837
REMARK INTRA:                  -0.678
REMARK UNBOUND:                -0.610
REMARK  Name = 
REMARK  6 active torsions:
REMARK  status: ('A' for Active; 'I' for Inactive)
REMARK    1  A    between atoms: C_2  and  C_4
REMARK    2  A    between atoms: C_7  and  C_8
REMARK    3  A    between atoms: C_8  and  N_9
REMARK    4  A    between atoms: N_9  and  C_10
REMARK    5  A    between atoms: C_13  and  C_14
REMARK    6  A    between atoms: C_21  and  N_22
REMARK                            x       y       z     vdW  Elec       q    Type
REMARK                         _______ _______ _______ _____ _____    ______ ____
ROOT
ATOM      1  C   UNL     1      47.376   6.746  13.591  0.00  0.00    +0.000 C 
ATOM      2  C   UNL     1      48.486   7.015  12.515  0.00  0.00    +0.000 C 
ATOM      3  C   UNL     1      47.946   8.445  12.376  0.00  0.00    +0.000 C 
ATOM      4  C   UNL     1      47.411   8.318  13.811  0.00  0.00    +0.000 C 
ENDROOT
BRANCH   1   8
ATOM      5  C   UNL     1      48.547   4.155  17.022  0.00  0.00    +0.000 A 
ATOM      6  C   UNL     1      47.548   3.744  16.143  0.00  0.00    +0.000 A 
ATOM      7  C   UNL     1      47.159   4.580  15.087  0.00  0.00    +0.000 A 
ATOM      8  C   UNL     1      47.739   5.846  14.869  0.00  0.00    +0.000 A 
ATOM      9  C   UNL     1      48.696   6.253  15.826  0.00  0.00    +0.000 A 
ATOM     10  C   UNL     1      49.101   5.425  16.880  0.00  0.00    +0.000 A 
BRANCH   5  12
ATOM     11  N   UNL     1      48.376   3.316  19.306  0.00  0.00    +0.000 N 
ATOM     12  C   UNL     1      49.045   3.270  18.107  0.00  0.00    +0.000 C 
ATOM     13  O   UNL     1      49.969   2.483  17.931  0.00  0.00    +0.000 OA
ATOM     14  H   UNL     1      48.621   2.600  19.983  0.00  0.00    +0.000 HD
ATOM     15  H   UNL     1      47.449   3.723  19.384  0.00  0.00    +0.000 HD
ENDBRANCH   5  12
ENDBRANCH   1   8
BRANCH   3  16
ATOM     16  N   UNL     1      49.061   9.380  12.326  0.00  0.00    +0.000 NA
ATOM     17  H   UNL     1      49.496   9.595  13.223  0.00  0.00    +0.000 HD
ATOM     18  H   UNL     1      48.833  10.278  11.899  0.00  0.00    +0.000 HD
ENDBRANCH   3  16
BRANCH   1  19
ATOM     19  N   UNL     1      46.084   6.364  13.062  0.00  0.00    +0.000 N 
ATOM     20  H   UNL     1      45.345   7.033  13.265  0.00  0.00    +0.000 HD
BRANCH  19  21
ATOM     21  C   UNL     1      45.724   5.476  12.034  0.00  0.00    +0.000 A 
ATOM     22  C   UNL     1      45.187   4.209  12.239  0.00  0.00    +0.000 A 
ATOM     23  C   UNL     1      44.914   3.366  11.161  0.00  0.00    +0.000 A 
ATOM     24  C   UNL     1      45.115   3.825   9.861  0.00  0.00    +0.000 A 
ATOM     25  N   UNL     1      45.548   5.093   9.622  0.00  0.00    +0.000 NA
ATOM     26  C   UNL     1      45.826   5.872  10.698  0.00  0.00    +0.000 A 
BRANCH  24  27
ATOM     27  C   UNL     1      44.851   2.896   8.684  0.00  0.00    +0.000 C 
ATOM     28  F   UNL     1      45.998   2.401   8.123  0.00  0.00    +0.000 F 
ATOM     29  F   UNL     1      44.113   1.799   9.018  0.00  0.00    +0.000 F 
ATOM     30  F   UNL     1      44.186   3.502   7.659  0.00  0.00    +0.000 F 
ENDBRANCH  24  27
ENDBRANCH  19  21
ENDBRANCH   1  19
TORSDOF 6
ENDMDL
MODEL 7
REMARK VINA RESULT:    -6.454      3.398      5.059
REMARK INTER + INTRA:          -9.139
REMARK INTER:                  -8.545
REMARK INTRA:                  -0.594
REMARK UNBOUND:                -0.610
REMARK  Name = 
REMARK  6 active torsions:
REMARK  status: ('A' for Active; 'I' for Inactive)
REMARK    1  A    between atoms: C_2  and  C_4
REMARK    2  A    between atoms: C_7  and  C_8
REMARK    3  A    between atoms: C_8  and  N_9
REMARK    4  A    between atoms: N_9  and  C_10
REMARK    5  A    between atoms: C_13  and  C_14
REMARK    6  A    between atoms: C_21  and  N_22
REMARK                            x       y       z     vdW  Elec       q    Type
REMARK                         _______ _______ _______ _____ _____    ______ ____
ROOT
ATOM      1  C   UNL     1      47.643   7.168  13.086  0.00  0.00    +0.000 C 
ATOM      2  C   UNL     1      47.666   8.617  12.482  0.00  0.00    +0.000 C 
ATOM      3  C   UNL     1      49.195   8.604  12.617  0.00  0.00    +0.000 C 
ATOM      4  C   UNL     1      49.129   7.071  12.535  0.00  0.00    +0.000 C 
ENDROOT
BRANCH   1   8
ATOM      5  C   UNL     1      44.920   4.079  11.384  0.00  0.00    +0.000 A 
ATOM      6  C   UNL     1      45.288   5.185  10.622  0.00  0.00    +0.000 A 
ATOM      7  C   UNL     1      46.115   6.172  11.175  0.00  0.00    +0.000 A 
ATOM      8  C   UNL     1      46.601   6.101  12.498  0.00  0.00    +0.000 A 
ATOM      9  C   UNL     1      46.144   5.000  13.257  0.00  0.00    +0.000 A 
ATOM     10  C   UNL     1      45.324   4.003  12.715  0.00  0.00    +0.000 A 
BRANCH   5  12
ATOM     11  N   UNL     1      44.671   2.249   9.792  0.00  0.00    +0.000 N 
ATOM     12  C   UNL     1      44.109   2.973  10.815  0.00  0.00    +0.000 C 
ATOM     13  O   UNL     1      43.013   2.668  11.274  0.00  0.00    +0.000 OA
ATOM     14  H   UNL     1      44.180   1.402   9.520  0.00  0.00    +0.000 HD
ATOM     15  H   UNL     1      45.667   2.282   9.600  0.00  0.00    +0.000 HD
ENDBRANCH   5  12
ENDBRANCH   1   8
BRANCH   3  16
ATOM     16  N   UNL     1      49.791   9.158  11.408  0.00  0.00    +0.000 NA
ATOM     17  H   UNL     1      49.190   9.164  10.585  0.00  0.00    +0.000 HD
ATOM     18  H   UNL     1      50.657   8.701  11.125  0.00  0.00    +0.000 HD
ENDBRANCH   3  16
BRANCH   1  19
ATOM     19  N   UNL     1      47.663   7.102  14.531  0.00  0.00    +0.000 N 
ATOM     20  H   UNL     1      46.766   7.312  14.963  0.00  0.00    +0.000 HD
BRANCH  19  21
ATOM     21  C   UNL     1      48.539   6.460  15.422  0.00  0.00    +0.000 A 
ATOM     22  C   UNL     1      49.747   6.992  15.862  0.00  0.00    +0.000 A 
ATOM     23  C   UNL     1      50.588   6.260  16.701  0.00  0.00    +0.000 A 
ATOM     24  C   UNL     1      50.181   5.009  17.161  0.00  0.00    +0.000 A 
ATOM     25  N   UNL     1      48.963   4.499  16.828  0.00  0.00    +0.000 NA
ATOM     26  C   UNL     1      48.187   5.232  15.989  0.00  0.00    +0.000 A 
BRANCH  24  27
ATOM     27  C   UNL     1      51.110   4.192  18.048  0.00  0.00    +0.000 C 
ATOM     28  F   UNL     1      52.435   4.462  17.830  0.00  0.00    +0.000 F 
ATOM     29  F   UNL     1      50.914   4.411  19.380  0.00  0.00    +0.000 F 
ATOM     30  F   UNL     1      50.986   2.847  17.862  0.00  0.00    +0.000 F 
ENDBRANCH  24  27
ENDBRANCH  19  21
ENDBRANCH   1  19
TORSDOF 6
ENDMDL
MODEL 8
REMARK VINA RESULT:    -6.126      3.385      4.946
REMARK INTER + INTRA:          -8.706
REMARK INTER:                  -7.984
REMARK INTRA:                  -0.722
REMARK UNBOUND:                -0.610
REMARK  Name = 
REMARK  6 active torsions:
REMARK  status: ('A' for Active; 'I' for Inactive)
REMARK    1  A    between atoms: C_2  and  C_4
REMARK    2  A    between atoms: C_7  and  C_8
REMARK    3  A    between atoms: C_8  and  N_9
REMARK    4  A    between atoms: N_9  and  C_10
REMARK    5  A    between atoms: C_13  and  C_14
REMARK    6  A    between atoms: C_21  and  N_22
REMARK                            x       y       z     vdW  Elec       q    Type
REMARK                         _______ _______ _______ _____ _____    ______ ____
ROOT
ATOM      1  C   UNL     1      47.369   7.247  13.035  0.00  0.00    +0.000 C 
ATOM      2  C   UNL     1      46.713   8.538  13.640  0.00  0.00    +0.000 C 
ATOM      3  C   UNL     1      47.900   9.345  13.094  0.00  0.00    +0.000 C 
ATOM      4  C   UNL     1      48.076   8.251  12.030  0.00  0.00    +0.000 C 
ENDROOT
BRANCH   1   8
ATOM      5  C   UNL     1      44.917   4.044  11.141  0.00  0.00    +0.000 A 
ATOM      6  C   UNL     1      45.303   5.159  10.402  0.00  0.00    +0.000 A 
ATOM      7  C   UNL     1      46.043   6.181  11.013  0.00  0.00    +0.000 A 
ATOM      8  C   UNL     1      46.421   6.136  12.372  0.00  0.00    +0.000 A 
ATOM      9  C   UNL     1      45.946   5.022  13.100  0.00  0.00    +0.000 A 
ATOM     10  C   UNL     1      45.213   3.990  12.501  0.00  0.00    +0.000 A 
BRANCH   5  12
ATOM     11  N   UNL     1      43.447   2.108  11.346  0.00  0.00    +0.000 N 
ATOM     12  C   UNL     1      44.199   2.903  10.516  0.00  0.00    +0.000 C 
ATOM     13  O   UNL     1      44.217   2.710   9.305  0.00  0.00    +0.000 OA
ATOM     14  H   UNL     1      42.838   1.435  10.890  0.00  0.00    +0.000 HD
ATOM     15  H   UNL     1      43.177   2.414  12.276  0.00  0.00    +0.000 HD
ENDBRANCH   5  12
ENDBRANCH   1   8
BRANCH   3  16
ATOM     16  N   UNL     1      47.409  10.576  12.489  0.00  0.00    +0.000 NA
ATOM     17  H   UNL     1      47.563  11.425  13.032  0.00  0.00    +0.000 HD
ATOM     18  H   UNL     1      46.415  10.560  12.261  0.00  0.00    +0.000 HD
ENDBRANCH   3  16
BRANCH   1  19
ATOM     19  N   UNL     1      48.371   6.616  13.867  0.00  0.00    +0.000 N 
ATOM     20  H   UNL     1      49.311   6.660  13.480  0.00  0.00    +0.000 HD
BRANCH  19  21
ATOM     21  C   UNL     1      48.378   6.296  15.235  0.00  0.00    +0.000 A 
ATOM     22  C   UNL     1      47.890   5.108  15.769  0.00  0.00    +0.000 A 
ATOM     23  C   UNL     1      47.880   4.896  17.149  0.00  0.00    +0.000 A 
ATOM     24  C   UNL     1      48.430   5.856  17.996  0.00  0.00    +0.000 A 
ATOM     25  N   UNL     1      49.003   6.986  17.500  0.00  0.00    +0.000 NA
ATOM     26  C   UNL     1      48.969   7.166  16.155  0.00  0.00    +0.000 A 
BRANCH  24  27
ATOM     27  C   UNL     1      48.389   5.643  19.503  0.00  0.00    +0.000 C 
ATOM     28  F   UNL     1      48.619   4.344  19.869  0.00  0.00    +0.000 F 
ATOM     29  F   UNL     1      49.322   6.376  20.176  0.00  0.00    +0.000 F 
ATOM     30  F   UNL     1      47.184   5.962  20.058  0.00  0.00    +0.000 F 
ENDBRANCH  24  27
ENDBRANCH  19  21
ENDBRANCH   1  19
TORSDOF 6
ENDMDL
MODEL 9
REMARK VINA RESULT:    -5.974      5.061      8.295
REMARK INTER + INTRA:          -8.505
REMARK INTER:                  -7.726
REMARK INTRA:                  -0.779
REMARK UNBOUND:                -0.610
REMARK  Name = 
REMARK  6 active torsions:
REMARK  status: ('A' for Active; 'I' for Inactive)
REMARK    1  A    between atoms: C_2  and  C_4
REMARK    2  A    between atoms: C_7  and  C_8
REMARK    3  A    between atoms: C_8  and  N_9
REMARK    4  A    between atoms: N_9  and  C_10
REMARK    5  A    between atoms: C_13  and  C_14
REMARK    6  A    between atoms: C_21  and  N_22
REMARK                            x       y       z     vdW  Elec       q    Type
REMARK                         _______ _______ _______ _____ _____    ______ ____
ROOT
ATOM      1  C   UNL     1      48.946   7.685  14.108  0.00  0.00    +0.000 C 
ATOM      2  C   UNL     1      49.672   8.950  13.529  0.00  0.00    +0.000 C 
ATOM      3  C   UNL     1      48.293   9.573  13.272  0.00  0.00    +0.000 C 
ATOM      4  C   UNL     1      47.749   8.685  14.402  0.00  0.00    +0.000 C 
ENDROOT
BRANCH   1   8
ATOM      5  C   UNL     1      50.738   5.453  17.523  0.00  0.00    +0.000 A 
ATOM      6  C   UNL     1      49.359   5.442  17.325  0.00  0.00    +0.000 A 
ATOM      7  C   UNL     1      48.799   6.176  16.271  0.00  0.00    +0.000 A 
ATOM      8  C   UNL     1      49.578   6.946  15.383  0.00  0.00    +0.000 A 
ATOM      9  C   UNL     1      50.963   6.987  15.665  0.00  0.00    +0.000 A 
ATOM     10  C   UNL     1      51.538   6.252  16.709  0.00  0.00    +0.000 A 
BRANCH   5  12
ATOM     11  N   UNL     1      50.685   4.458  19.749  0.00  0.00    +0.000 N 
ATOM     12  C   UNL     1      51.383   4.630  18.579  0.00  0.00    +0.000 C 
ATOM     13  O   UNL     1      52.459   4.071  18.399  0.00  0.00    +0.000 OA
ATOM     14  H   UNL     1      51.058   3.769  20.396  0.00  0.00    +0.000 HD
ATOM     15  H   UNL     1      49.690   4.651  19.810  0.00  0.00    +0.000 HD
ENDBRANCH   5  12
ENDBRANCH   1   8
BRANCH   3  16
ATOM     16  N   UNL     1      48.311  10.971  13.681  0.00  0.00    +0.000 NA
ATOM     17  H   UNL     1      48.950  11.573  13.163  0.00  0.00    +0.000 HD
ATOM     18  H   UNL     1      48.524  11.113  14.668  0.00  0.00    +0.000 HD
ENDBRANCH   3  16
BRANCH   1  19
ATOM     19  N   UNL     1      48.526   6.711  13.124  0.00  0.00    +0.000 N 
ATOM     20  H   UNL     1      49.294   6.186  12.713  0.00  0.00    +0.000 HD
BRANCH  19  21
ATOM     21  C   UNL     1      47.285   6.091  12.897  0.00  0.00    +0.000 A 
ATOM     22  C   UNL     1      46.451   6.369  11.820  0.00  0.00    +0.000 A 
ATOM     23  C   UNL     1      45.204   5.752  11.703  0.00  0.00    +0.000 A 
ATOM     24  C   UNL     1      44.822   4.793  12.639  0.00  0.00    +0.000 A 
ATOM     25  N   UNL     1      45.654   4.427  13.651  0.00  0.00    +0.000 NA
ATOM     26  C   UNL     1      46.846   5.070  13.744  0.00  0.00    +0.000 A 
BRANCH  24  27
ATOM     27  C   UNL     1      43.449   4.143  12.534  0.00  0.00    +0.000 C 
ATOM     28  F   UNL     1      42.598   4.521  13.538  0.00  0.00    +0.000 F 
ATOM     29  F   UNL     1      42.795   4.447  11.376  0.00  0.00    +0.000 F 
ATOM     30  F   UNL     1      43.493   2.781  12.598  0.00  0.00    +0.000 F 
ENDBRANCH  24  27
ENDBRANCH  19  21
ENDBRANCH   1  19
TORSDOF 6
ENDMDL
