MODEL 1
REMARK VINA RESULT:    -7.991      0.000      0.000
REMARK INTER + INTRA:         -11.717
REMARK INTER:                 -10.794
REMARK INTRA:                  -0.923
REMARK UNBOUND:                -0.923
REMARK  Name = 
REMARK  6 active torsions:
REMARK  status: ('A' for Active; 'I' for Inactive)
REMARK    1  A    between atoms: C_2  and  C_20
REMARK    2  A    between atoms: N_3  and  C_4
REMARK    3  A    between atoms: C_4  and  C_5
REMARK    4  A    between atoms: C_8  and  C_9
REMARK    5  A    between atoms: C_9  and  N_10
REMARK    6  A    between atoms: C_11  and  C_13
REMARK                            x       y       z     vdW  Elec       q    Type
REMARK                         _______ _______ _______ _____ _____    ______ ____
ROOT
ATOM      1  C   UNL     1      47.615   8.519  13.772  0.00  0.00    +0.000 C 
ENDROOT
BRANCH   1   2
ATOM      2  C   UNL     1      46.632   7.724  12.948  0.00  0.00    +0.000 A 
ATOM      3  C   UNL     1      45.515   8.344  12.374  0.00  0.00    +0.000 A 
ATOM      4  C   UNL     1      44.590   7.605  11.628  0.00  0.00    +0.000 A 
ATOM      5  C   UNL     1      44.751   6.223  11.460  0.00  0.00    +0.000 A 
ATOM      6  C   UNL     1      45.864   5.601  12.041  0.00  0.00    +0.000 A 
ATOM      7  C   UNL     1      46.790   6.341  12.785  0.00  0.00    +0.000 A 
BRANCH   5   8
ATOM      8  C   UNL     1      43.743   5.419  10.679  0.00  0.00    +0.000 C 
BRANCH   8   9
ATOM      9  N   UNL     1      44.329   4.742   9.549  0.00  0.00    +0.000 N 
ATOM     10  C   UNL     1      44.331   3.367   9.461  0.00  0.00    +0.000 C 
ATOM     11  O   UNL     1      43.883   2.636  10.341  0.00  0.00    +0.000 OA
ATOM     12  H   UNL     1      44.645   5.263   8.736  0.00  0.00    +0.000 HD
BRANCH  10  13
ATOM     13  C   UNL     1      44.938   2.819   8.161  0.00  0.00    +0.000 C 
ATOM     14  C   UNL     1      45.952   1.720   8.441  0.00  0.00    +0.000 C 
ATOM     15  C   UNL     1      46.895   1.840   7.273  0.00  0.00    +0.000 C 
ATOM     16  C   UNL     1      46.920   3.333   7.043  0.00  0.00    +0.000 C 
ATOM     17  O   UNL     1      45.617   3.823   7.384  0.00  0.00    +0.000 OA
ENDBRANCH  10  13
ENDBRANCH   8   9
ENDBRANCH   5   8
ENDBRANCH   1   2
BRANCH   1  20
ATOM     18  O   UNL     1      49.906   7.039  14.375  0.00  0.00    +0.000 OA
ATOM     19  C   UNL     1      49.070   7.209  15.257  0.00  0.00    +0.000 C 
ATOM     20  N   UNL     1      47.887   7.860  15.027  0.00  0.00    +0.000 N 
ATOM     21  H   UNL     1      47.323   8.162  15.816  0.00  0.00    +0.000 HD
BRANCH  19  22
ATOM     22  C   UNL     1      49.260   6.681  16.613  0.00  0.00    +0.000 A 
ATOM     23  C   UNL     1      49.910   7.446  17.574  0.00  0.00    +0.000 A 
ATOM     24  S   UNL     1      50.078   6.660  19.078  0.00  0.00    +0.000 S 
ATOM     25  C   UNL     1      49.248   5.285  18.515  0.00  0.00    +0.000 A 
ATOM     26  N   UNL     1      49.020   4.220  19.331  0.00  0.00    +0.000 NA
ATOM     27  C   UNL     1      48.352   3.261  18.781  0.00  0.00    +0.000 A 
ATOM     28  N   UNL     1      47.892   3.271  17.490  0.00  0.00    +0.000 N 
ATOM     29  C   UNL     1      48.121   4.313  16.625  0.00  0.00    +0.000 A 
ATOM     30  O   UNL     1      47.727   4.268  15.462  0.00  0.00    +0.000 OA
ATOM     31  C   UNL     1      48.861   5.419  17.193  0.00  0.00    +0.000 A 
ATOM     32  H   UNL     1      47.380   2.484  17.116  0.00  0.00    +0.000 HD
ENDBRANCH  19  22
ENDBRANCH   1  20
TORSDOF 6
ENDMDL
MODEL 2
REMARK VINA RESULT:    -7.927      2.124      3.758
REMARK INTER + INTRA:         -11.631
REMARK INTER:                 -10.557
REMARK INTRA:                  -1.074
REMARK UNBOUND:                -0.923
REMARK  Name = 
REMARK  6 active torsions:
REMARK  status: ('A' for Active; 'I' for Inactive)
REMARK    1  A    between atoms: C_2  and  C_20
REMARK    2  A    between atoms: N_3  and  C_4
REMARK    3  A    between atoms: C_4  and  C_5
REMARK    4  A    between atoms: C_8  and  C_9
REMARK    5  A    between atoms: C_9  and  N_10
REMARK    6  A    between atoms: C_11  and  C_13
REMARK                            x       y       z     vdW  Elec       q    Type
REMARK                         _______ _______ _______ _____ _____    ______ ____
ROOT
ATOM      1  C   UNL     1      46.942   4.410  14.944  0.00  0.00    +0.000 C 
ENDROOT
BRANCH   1   2
ATOM      2  C   UNL     1      46.102   4.466  13.692  0.00  0.00    +0.000 A 
ATOM      3  C   UNL     1      45.803   3.297  12.980  0.00  0.00    +0.000 A 
ATOM      4  C   UNL     1      45.043   3.350  11.805  0.00  0.00    +0.000 A 
ATOM      5  C   UNL     1      44.587   4.576  11.305  0.00  0.00    +0.000 A 
ATOM      6  C   UNL     1      44.894   5.746  12.012  0.00  0.00    +0.000 A 
ATOM      7  C   UNL     1      45.652   5.693  13.187  0.00  0.00    +0.000 A 
BRANCH   5   8
ATOM      8  C   UNL     1      43.791   4.639  10.026  0.00  0.00    +0.000 C 
BRANCH   8   9
ATOM      9  N   UNL     1      44.297   3.748   9.013  0.00  0.00    +0.000 N 
ATOM     10  C   UNL     1      45.429   4.055   8.291  0.00  0.00    +0.000 C 
ATOM     11  O   UNL     1      46.048   5.108   8.426  0.00  0.00    +0.000 OA
ATOM     12  H   UNL     1      43.902   2.819   8.892  0.00  0.00    +0.000 HD
BRANCH  10  13
ATOM     13  C   UNL     1      45.862   2.964   7.300  0.00  0.00    +0.000 C 
ATOM     14  C   UNL     1      46.305   1.700   8.022  0.00  0.00    +0.000 C 
ATOM     15  C   UNL     1      47.307   1.110   7.064  0.00  0.00    +0.000 C 
ATOM     16  C   UNL     1      47.965   2.348   6.499  0.00  0.00    +0.000 C 
ATOM     17  O   UNL     1      46.956   3.366   6.456  0.00  0.00    +0.000 OA
ENDBRANCH  10  13
ENDBRANCH   8   9
ENDBRANCH   5   8
ENDBRANCH   1   2
BRANCH   1  20
ATOM     18  O   UNL     1      49.071   4.866  16.695  0.00  0.00    +0.000 OA
ATOM     19  C   UNL     1      48.640   5.809  16.040  0.00  0.00    +0.000 C 
ATOM     20  N   UNL     1      47.554   5.690  15.213  0.00  0.00    +0.000 N 
ATOM     21  H   UNL     1      47.358   6.423  14.538  0.00  0.00    +0.000 HD
BRANCH  19  22
ATOM     22  C   UNL     1      49.230   7.150  16.136  0.00  0.00    +0.000 A 
ATOM     23  C   UNL     1      49.385   7.755  17.377  0.00  0.00    +0.000 A 
ATOM     24  S   UNL     1      50.047   9.324  17.296  0.00  0.00    +0.000 S 
ATOM     25  C   UNL     1      50.195   9.236  15.603  0.00  0.00    +0.000 A 
ATOM     26  N   UNL     1      50.726  10.266  14.891  0.00  0.00    +0.000 NA
ATOM     27  C   UNL     1      50.805  10.049  13.619  0.00  0.00    +0.000 A 
ATOM     28  N   UNL     1      50.402   8.896  12.998  0.00  0.00    +0.000 N 
ATOM     29  C   UNL     1      49.838   7.843  13.675  0.00  0.00    +0.000 A 
ATOM     30  O   UNL     1      49.452   6.840  13.078  0.00  0.00    +0.000 OA
ATOM     31  C   UNL     1      49.731   8.030  15.106  0.00  0.00    +0.000 A 
ATOM     32  H   UNL     1      50.485   8.790  11.997  0.00  0.00    +0.000 HD
ENDBRANCH  19  22
ENDBRANCH   1  20
TORSDOF 6
ENDMDL
MODEL 3
REMARK VINA RESULT:    -7.500      4.451      9.554
REMARK INTER + INTRA:         -11.054
REMARK INTER:                 -10.155
REMARK INTRA:                  -0.899
REMARK UNBOUND:                -0.923
REMARK  Name = 
REMARK  6 active torsions:
REMARK  status: ('A' for Active; 'I' for Inactive)
REMARK    1  A    between atoms: C_2  and  C_20
REMARK    2  A    between atoms: N_3  and  C_4
REMARK    3  A    between atoms: C_4  and  C_5
REMARK    4  A    between atoms: C_8  and  C_9
REMARK    5  A    between atoms: C_9  and  N_10
REMARK    6  A    between atoms: C_11  and  C_13
REMARK                            x       y       z     vdW  Elec       q    Type
REMARK                         _______ _______ _______ _____ _____    ______ ____
ROOT
ATOM      1  C   UNL     1      47.201   3.444  16.689  0.00  0.00    +0.000 C 
ENDROOT
BRANCH   1   2
ATOM      2  C   UNL     1      48.662   3.615  17.025  0.00  0.00    +0.000 A 
ATOM      3  C   UNL     1      49.508   2.502  17.121  0.00  0.00    +0.000 A 
ATOM      4  C   UNL     1      50.858   2.656  17.455  0.00  0.00    +0.000 A 
ATOM      5  C   UNL     1      51.387   3.926  17.723  0.00  0.00    +0.000 A 
ATOM      6  C   UNL     1      50.539   5.038  17.635  0.00  0.00    +0.000 A 
ATOM      7  C   UNL     1      49.189   4.884  17.300  0.00  0.00    +0.000 A 
BRANCH   5   8
ATOM      8  C   UNL     1      52.835   4.093  18.109  0.00  0.00    +0.000 C 
BRANCH   8   9
ATOM      9  N   UNL     1      53.604   2.891  17.907  0.00  0.00    +0.000 N 
ATOM     10  C   UNL     1      54.102   2.174  18.973  0.00  0.00    +0.000 C 
ATOM     11  O   UNL     1      53.967   2.525  20.142  0.00  0.00    +0.000 OA
ATOM     12  H   UNL     1      53.695   2.480  16.983  0.00  0.00    +0.000 HD
BRANCH  10  13
ATOM     13  C   UNL     1      54.843   0.888  18.577  0.00  0.00    +0.000 C 
ATOM     14  C   UNL     1      54.447   0.425  17.182  0.00  0.00    +0.000 C 
ATOM     15  C   UNL     1      54.636  -1.067  17.267  0.00  0.00    +0.000 C 
ATOM     16  C   UNL     1      54.211  -1.356  18.688  0.00  0.00    +0.000 C 
ATOM     17  O   UNL     1      54.584  -0.213  19.469  0.00  0.00    +0.000 OA
ENDBRANCH  10  13
ENDBRANCH   8   9
ENDBRANCH   5   8
ENDBRANCH   1   2
BRANCH   1  20
ATOM     18  O   UNL     1      47.207   3.088  13.918  0.00  0.00    +0.000 OA
ATOM     19  C   UNL     1      46.755   4.133  14.373  0.00  0.00    +0.000 C 
ATOM     20  N   UNL     1      46.779   4.420  15.712  0.00  0.00    +0.000 N 
ATOM     21  H   UNL     1      46.216   5.186  16.069  0.00  0.00    +0.000 HD
BRANCH  19  22
ATOM     22  C   UNL     1      46.198   5.177  13.503  0.00  0.00    +0.000 A 
ATOM     23  C   UNL     1      46.944   6.313  13.213  0.00  0.00    +0.000 A 
ATOM     24  S   UNL     1      46.126   7.435  12.223  0.00  0.00    +0.000 S 
ATOM     25  C   UNL     1      44.762   6.424  12.106  0.00  0.00    +0.000 A 
ATOM     26  N   UNL     1      43.681   6.788  11.366  0.00  0.00    +0.000 NA
ATOM     27  C   UNL     1      42.732   5.911  11.341  0.00  0.00    +0.000 A 
ATOM     28  N   UNL     1      42.768   4.705  11.991  0.00  0.00    +0.000 N 
ATOM     29  C   UNL     1      43.829   4.309  12.769  0.00  0.00    +0.000 A 
ATOM     30  O   UNL     1      43.808   3.236  13.368  0.00  0.00    +0.000 OA
ATOM     31  C   UNL     1      44.924   5.253  12.825  0.00  0.00    +0.000 A 
ATOM     32  H   UNL     1      41.990   4.064  11.938  0.00  0.00    +0.000 HD
ENDBRANCH  19  22
ENDBRANCH   1  20
TORSDOF 6
ENDMDL
MODEL 4
REMARK VINA RESULT:    -7.490      2.019      2.715
REMARK INTER + INTRA:         -11.041
REMARK INTER:                 -10.041
REMARK INTRA:                  -1.000
REMARK UNBOUND:                -0.923
REMARK  Name = 
REMARK  6 active torsions:
REMARK  status: ('A' for Active; 'I' for Inactive)
REMARK    1  A    between atoms: C_2  and  C_20
REMARK    2  A    between atoms: N_3  and  C_4
REMARK    3  A    between atoms: C_4  and  C_5
REMARK    4  A    between atoms: C_8  and  C_9
REMARK    5  A    between atoms: C_9  and  N_10
REMARK    6  A    between atoms: C_11  and  C_13
REMARK                            x       y       z     vdW  Elec       q    Type
REMARK                         _______ _______ _______ _____ _____    ______ ____
ROOT
ATOM      1  C   UNL     1      48.503   7.021  14.240  0.00  0.00    +0.000 C 
ENDROOT
BRANCH   1   2
ATOM      2  C   UNL     1      47.348   6.556  13.387  0.00  0.00    +0.000 A 
ATOM      3  C   UNL     1      46.697   5.348  13.666  0.00  0.00    +0.000 A 
ATOM      4  C   UNL     1      45.640   4.903  12.862  0.00  0.00    +0.000 A 
ATOM      5  C   UNL     1      45.228   5.646  11.749  0.00  0.00    +0.000 A 
ATOM      6  C   UNL     1      45.885   6.851  11.465  0.00  0.00    +0.000 A 
ATOM      7  C   UNL     1      46.941   7.296  12.270  0.00  0.00    +0.000 A 
BRANCH   5   8
ATOM      8  C   UNL     1      44.107   5.158  10.866  0.00  0.00    +0.000 C 
BRANCH   8   9
ATOM      9  N   UNL     1      44.578   4.648   9.603  0.00  0.00    +0.000 N 
ATOM     10  C   UNL     1      44.916   3.321   9.448  0.00  0.00    +0.000 C 
ATOM     11  O   UNL     1      44.883   2.507  10.368  0.00  0.00    +0.000 OA
ATOM     12  H   UNL     1      44.557   5.226   8.768  0.00  0.00    +0.000 HD
BRANCH  10  13
ATOM     13  C   UNL     1      45.335   2.939   8.021  0.00  0.00    +0.000 C 
ATOM     14  C   UNL     1      46.249   1.723   8.017  0.00  0.00    +0.000 C 
ATOM     15  C   UNL     1      47.085   1.946   6.783  0.00  0.00    +0.000 C 
ATOM     16  C   UNL     1      47.246   3.449   6.782  0.00  0.00    +0.000 C 
ATOM     17  O   UNL     1      46.040   3.992   7.336  0.00  0.00    +0.000 OA
ENDBRANCH  10  13
ENDBRANCH   8   9
ENDBRANCH   5   8
ENDBRANCH   1   2
BRANCH   1  20
ATOM     18  O   UNL     1      50.326   6.021  16.106  0.00  0.00    +0.000 OA
ATOM     19  C   UNL     1      49.213   6.357  16.497  0.00  0.00    +0.000 C 
ATOM     20  N   UNL     1      48.236   6.789  15.639  0.00  0.00    +0.000 N 
ATOM     21  H   UNL     1      47.413   7.251  16.014  0.00  0.00    +0.000 HD
BRANCH  19  22
ATOM     22  C   UNL     1      48.834   6.271  17.912  0.00  0.00    +0.000 A 
ATOM     23  C   UNL     1      49.032   5.089  18.615  0.00  0.00    +0.000 A 
ATOM     24  S   UNL     1      48.497   5.156  20.233  0.00  0.00    +0.000 S 
ATOM     25  C   UNL     1      48.023   6.782  20.068  0.00  0.00    +0.000 A 
ATOM     26  N   UNL     1      47.493   7.468  21.117  0.00  0.00    +0.000 NA
ATOM     27  C   UNL     1      47.208   8.702  20.857  0.00  0.00    +0.000 A 
ATOM     28  N   UNL     1      47.405   9.309  19.644  0.00  0.00    +0.000 N 
ATOM     29  C   UNL     1      47.914   8.647  18.553  0.00  0.00    +0.000 A 
ATOM     30  O   UNL     1      48.040   9.216  17.471  0.00  0.00    +0.000 OA
ATOM     31  C   UNL     1      48.257   7.262  18.791  0.00  0.00    +0.000 A 
ATOM     32  H   UNL     1      47.155  10.277  19.503  0.00  0.00    +0.000 HD
ENDBRANCH  19  22
ENDBRANCH   1  20
TORSDOF 6
ENDMDL
MODEL 5
REMARK VINA RESULT:    -6.790      3.848      8.944
REMARK INTER + INTRA:         -10.096
REMARK INTER:                  -9.210
REMARK INTRA:                  -0.885
REMARK UNBOUND:                -0.923
REMARK  Name = 
REMARK  6 active torsions:
REMARK  status: ('A' for Active; 'I' for Inactive)
REMARK    1  A    between atoms: C_2  and  C_20
REMARK    2  A    between atoms: N_3  and  C_4
REMARK    3  A    between atoms: C_4  and  C_5
REMARK    4  A    between atoms: C_8  and  C_9
REMARK    5  A    between atoms: C_9  and  N_10
REMARK    6  A    between atoms: C_11  and  C_13
REMARK                            x       y       z     vdW  Elec       q    Type
REMARK                         _______ _______ _______ _____ _____    ______ ____
ROOT
ATOM      1  C   UNL     1      47.277   3.558  16.629  0.00  0.00    +0.000 C 
ENDROOT
BRANCH   1   2
ATOM      2  C   UNL     1      48.723   3.812  16.977  0.00  0.00    +0.000 A 
ATOM      3  C   UNL     1      49.574   2.750  17.310  0.00  0.00    +0.000 A 
ATOM      4  C   UNL     1      50.910   2.985  17.657  0.00  0.00    +0.000 A 
ATOM      5  C   UNL     1      51.417   4.290  17.699  0.00  0.00    +0.000 A 
ATOM      6  C   UNL     1      50.563   5.353  17.374  0.00  0.00    +0.000 A 
ATOM      7  C   UNL     1      49.228   5.117  17.027  0.00  0.00    +0.000 A 
BRANCH   5   8
ATOM      8  C   UNL     1      52.848   4.549  18.096  0.00  0.00    +0.000 C 
BRANCH   8   9
ATOM      9  N   UNL     1      53.528   5.427  17.178  0.00  0.00    +0.000 N 
ATOM     10  C   UNL     1      54.748   5.089  16.635  0.00  0.00    +0.000 C 
ATOM     11  O   UNL     1      55.351   4.058  16.925  0.00  0.00    +0.000 OA
ATOM     12  H   UNL     1      53.069   6.259  16.816  0.00  0.00    +0.000 HD
BRANCH  10  13
ATOM     13  C   UNL     1      55.296   6.111  15.628  0.00  0.00    +0.000 C 
ATOM     14  C   UNL     1      54.233   7.124  15.229  0.00  0.00    +0.000 C 
ATOM     15  C   UNL     1      54.654   7.506  13.834  0.00  0.00    +0.000 C 
ATOM     16  C   UNL     1      55.189   6.198  13.299  0.00  0.00    +0.000 C 
ATOM     17  O   UNL     1      55.774   5.508  14.411  0.00  0.00    +0.000 OA
ENDBRANCH  10  13
ENDBRANCH   8   9
ENDBRANCH   5   8
ENDBRANCH   1   2
BRANCH   1  20
ATOM     18  O   UNL     1      47.218   3.219  13.856  0.00  0.00    +0.000 OA
ATOM     19  C   UNL     1      46.748   4.247  14.330  0.00  0.00    +0.000 C 
ATOM     20  N   UNL     1      46.800   4.526  15.671  0.00  0.00    +0.000 N 
ATOM     21  H   UNL     1      46.224   5.273  16.047  0.00  0.00    +0.000 HD
BRANCH  19  22
ATOM     22  C   UNL     1      46.137   5.279  13.483  0.00  0.00    +0.000 A 
ATOM     23  C   UNL     1      46.831   6.450  13.202  0.00  0.00    +0.000 A 
ATOM     24  S   UNL     1      45.954   7.551  12.239  0.00  0.00    +0.000 S 
ATOM     25  C   UNL     1      44.633   6.485  12.122  0.00  0.00    +0.000 A 
ATOM     26  N   UNL     1      43.528   6.814  11.400  0.00  0.00    +0.000 NA
ATOM     27  C   UNL     1      42.617   5.898  11.373  0.00  0.00    +0.000 A 
ATOM     28  N   UNL     1      42.712   4.684  12.004  0.00  0.00    +0.000 N 
ATOM     29  C   UNL     1      43.798   4.322  12.763  0.00  0.00    +0.000 A 
ATOM     30  O   UNL     1      43.829   3.240  13.345  0.00  0.00    +0.000 OA
ATOM     31  C   UNL     1      44.853   5.311  12.821  0.00  0.00    +0.000 A 
ATOM     32  H   UNL     1      41.961   4.012  11.949  0.00  0.00    +0.000 HD
ENDBRANCH  19  22
ENDBRANCH   1  20
TORSDOF 6
ENDMDL
MODEL 6
REMARK VINA RESULT:    -6.734      1.609      2.205
REMARK INTER + INTRA:         -10.020
REMARK INTER:                  -8.720
REMARK INTRA:                  -1.300
REMARK UNBOUND:                -0.923
REMARK  Name = 
REMARK  6 active torsions:
REMARK  status: ('A' for Active; 'I' for Inactive)
REMARK    1  A    between atoms: C_2  and  C_20
REMARK    2  A    between atoms: N_3  and  C_4
REMARK    3  A    between atoms: C_4  and  C_5
REMARK    4  A    between atoms: C_8  and  C_9
REMARK    5  A    between atoms: C_9  and  N_10
REMARK    6  A    between atoms: C_11  and  C_13
REMARK                            x       y       z     vdW  Elec       q    Type
REMARK                         _______ _______ _______ _____ _____    ______ ____
ROOT
ATOM      1  C   UNL     1      50.157   8.300  13.550  0.00  0.00    +0.000 C 
ENDROOT
BRANCH   1   2
ATOM      2  C   UNL     1      48.766   8.183  12.978  0.00  0.00    +0.000 A 
ATOM      3  C   UNL     1      47.828   9.207  13.166  0.00  0.00    +0.000 A 
ATOM      4  C   UNL     1      46.530   9.090  12.656  0.00  0.00    +0.000 A 
ATOM      5  C   UNL     1      46.135   7.937  11.966  0.00  0.00    +0.000 A 
ATOM      6  C   UNL     1      47.071   6.910  11.785  0.00  0.00    +0.000 A 
ATOM      7  C   UNL     1      48.369   7.027  12.294  0.00  0.00    +0.000 A 
BRANCH   5   8
ATOM      8  C   UNL     1      44.730   7.797  11.437  0.00  0.00    +0.000 C 
BRANCH   8   9
ATOM      9  N   UNL     1      44.511   6.538  10.771  0.00  0.00    +0.000 N 
ATOM     10  C   UNL     1      43.937   5.472  11.427  0.00  0.00    +0.000 C 
ATOM     11  O   UNL     1      43.620   5.504  12.614  0.00  0.00    +0.000 OA
ATOM     12  H   UNL     1      44.662   6.446   9.770  0.00  0.00    +0.000 HD
BRANCH  10  13
ATOM     13  C   UNL     1      43.720   4.232  10.548  0.00  0.00    +0.000 C 
ATOM     14  C   UNL     1      44.770   3.166  10.820  0.00  0.00    +0.000 C 
ATOM     15  C   UNL     1      44.866   2.455   9.495  0.00  0.00    +0.000 C 
ATOM     16  C   UNL     1      44.673   3.590   8.517  0.00  0.00    +0.000 C 
ATOM     17  O   UNL     1      43.775   4.520   9.138  0.00  0.00    +0.000 OA
ENDBRANCH  10  13
ENDBRANCH   8   9
ENDBRANCH   5   8
ENDBRANCH   1   2
BRANCH   1  20
ATOM     18  O   UNL     1      49.734   8.793  16.268  0.00  0.00    +0.000 OA
ATOM     19  C   UNL     1      50.059   7.662  15.921  0.00  0.00    +0.000 C 
ATOM     20  N   UNL     1      50.356   7.352  14.620  0.00  0.00    +0.000 N 
ATOM     21  H   UNL     1      50.415   6.377  14.341  0.00  0.00    +0.000 HD
BRANCH  19  22
ATOM     22  C   UNL     1      50.203   6.569  16.891  0.00  0.00    +0.000 A 
ATOM     23  C   UNL     1      51.154   6.654  17.900  0.00  0.00    +0.000 A 
ATOM     24  S   UNL     1      51.209   5.279  18.907  0.00  0.00    +0.000 S 
ATOM     25  C   UNL     1      49.931   4.538  18.062  0.00  0.00    +0.000 A 
ATOM     26  N   UNL     1      49.456   3.320  18.435  0.00  0.00    +0.000 NA
ATOM     27  C   UNL     1      48.465   2.893  17.723  0.00  0.00    +0.000 A 
ATOM     28  N   UNL     1      47.908   3.576  16.673  0.00  0.00    +0.000 N 
ATOM     29  C   UNL     1      48.373   4.796  16.247  0.00  0.00    +0.000 A 
ATOM     30  O   UNL     1      47.872   5.360  15.277  0.00  0.00    +0.000 OA
ATOM     31  C   UNL     1      49.480   5.325  17.016  0.00  0.00    +0.000 A 
ATOM     32  H   UNL     1      47.137   3.185  16.151  0.00  0.00    +0.000 HD
ENDBRANCH  19  22
ENDBRANCH   1  20
TORSDOF 6
ENDMDL
MODEL 7
REMARK VINA RESULT:    -6.689      4.683      9.625
REMARK INTER + INTRA:          -9.959
REMARK INTER:                  -8.855
REMARK INTRA:                  -1.104
REMARK UNBOUND:                -0.923
REMARK  Name = 
REMARK  6 active torsions:
REMARK  status: ('A' for Active; 'I' for Inactive)
REMARK    1  A    between atoms: C_2  and  C_20
REMARK    2  A    between atoms: N_3  and  C_4
REMARK    3  A    between atoms: C_4  and  C_5
REMARK    4  A    between atoms: C_8  and  C_9
REMARK    5  A    between atoms: C_9  and  N_10
REMARK    6  A    between atoms: C_11  and  C_13
REMARK                            x       y       z     vdW  Elec       q    Type
REMARK                         _______ _______ _______ _____ _____    ______ ____
ROOT
ATOM      1  C   UNL     1      47.459   3.330  17.108  0.00  0.00    +0.000 C 
ENDROOT
BRANCH   1   2
ATOM      2  C   UNL     1      48.952   3.388  17.320  0.00  0.00    +0.000 A 
ATOM      3  C   UNL     1      49.746   2.252  17.117  0.00  0.00    +0.000 A 
ATOM      4  C   UNL     1      51.128   2.297  17.335  0.00  0.00    +0.000 A 
ATOM      5  C   UNL     1      51.742   3.474  17.783  0.00  0.00    +0.000 A 
ATOM      6  C   UNL     1      50.946   4.608  17.995  0.00  0.00    +0.000 A 
ATOM      7  C   UNL     1      49.564   4.563  17.775  0.00  0.00    +0.000 A 
BRANCH   5   8
ATOM      8  C   UNL     1      53.226   3.519  18.044  0.00  0.00    +0.000 C 
BRANCH   8   9
ATOM      9  N   UNL     1      53.842   2.218  17.971  0.00  0.00    +0.000 N 
ATOM     10  C   UNL     1      54.577   1.716  19.022  0.00  0.00    +0.000 C 
ATOM     11  O   UNL     1      54.794   2.346  20.054  0.00  0.00    +0.000 OA
ATOM     12  H   UNL     1      53.647   1.592  17.195  0.00  0.00    +0.000 HD
BRANCH  10  13
ATOM     13  C   UNL     1      55.106   0.291  18.798  0.00  0.00    +0.000 C 
ATOM     14  C   UNL     1      54.831  -0.188  17.380  0.00  0.00    +0.000 C 
ATOM     15  C   UNL     1      54.716  -1.680  17.556  0.00  0.00    +0.000 C 
ATOM     16  C   UNL     1      54.046  -1.785  18.906  0.00  0.00    +0.000 C 
ATOM     17  O   UNL     1      54.516  -0.678  19.686  0.00  0.00    +0.000 OA
ENDBRANCH  10  13
ENDBRANCH   8   9
ENDBRANCH   5   8
ENDBRANCH   1   2
BRANCH   1  20
ATOM     18  O   UNL     1      47.428   2.930  14.343  0.00  0.00    +0.000 OA
ATOM     19  C   UNL     1      46.996   3.989  14.786  0.00  0.00    +0.000 C 
ATOM     20  N   UNL     1      47.040   4.296  16.121  0.00  0.00    +0.000 N 
ATOM     21  H   UNL     1      46.492   5.076  16.471  0.00  0.00    +0.000 HD
BRANCH  19  22
ATOM     22  C   UNL     1      46.446   5.026  13.906  0.00  0.00    +0.000 A 
ATOM     23  C   UNL     1      45.186   4.864  13.342  0.00  0.00    +0.000 A 
ATOM     24  S   UNL     1      44.725   6.145  12.315  0.00  0.00    +0.000 S 
ATOM     25  C   UNL     1      46.171   6.988  12.623  0.00  0.00    +0.000 A 
ATOM     26  N   UNL     1      46.409   8.202  12.058  0.00  0.00    +0.000 NA
ATOM     27  C   UNL     1      47.533   8.740  12.405  0.00  0.00    +0.000 A 
ATOM     28  N   UNL     1      48.437   8.171  13.263  0.00  0.00    +0.000 N 
ATOM     29  C   UNL     1      48.248   6.937  13.835  0.00  0.00    +0.000 A 
ATOM     30  O   UNL     1      49.101   6.443  14.570  0.00  0.00    +0.000 OA
ATOM     31  C   UNL     1      47.000   6.292  13.486  0.00  0.00    +0.000 A 
ATOM     32  H   UNL     1      49.303   8.641  13.489  0.00  0.00    +0.000 HD
ENDBRANCH  19  22
ENDBRANCH   1  20
TORSDOF 6
ENDMDL
MODEL 8
REMARK VINA RESULT:    -6.442      4.804      7.987
REMARK INTER + INTRA:          -9.625
REMARK INTER:                  -8.668
REMARK INTRA:                  -0.957
REMARK UNBOUND:                -0.923
REMARK  Name = 
REMARK  6 active torsions:
REMARK  status: ('A' for Active; 'I' for Inactive)
REMARK    1  A    between atoms: C_2  and  C_20
REMARK    2  A    between atoms: N_3  and  C_4
REMARK    3  A    between atoms: C_4  and  C_5
REMARK    4  A    between atoms: C_8  and  C_9
REMARK    5  A    between atoms: C_9  and  N_10
REMARK    6  A    between atoms: C_11  and  C_13
REMARK                            x       y       z     vdW  Elec       q    Type
REMARK                         _______ _______ _______ _____ _____    ______ ____
ROOT
ATOM      1  C   UNL     1      46.035   8.134  12.765  0.00  0.00    +0.000 C 
ENDROOT
BRANCH   1   2
ATOM      2  C   UNL     1      47.521   8.268  12.540  0.00  0.00    +0.000 A 
ATOM      3  C   UNL     1      48.358   7.148  12.613  0.00  0.00    +0.000 A 
ATOM      4  C   UNL     1      49.740   7.273  12.427  0.00  0.00    +0.000 A 
ATOM      5  C   UNL     1      50.316   8.527  12.188  0.00  0.00    +0.000 A 
ATOM      6  C   UNL     1      49.480   9.650  12.123  0.00  0.00    +0.000 A 
ATOM      7  C   UNL     1      48.098   9.523  12.307  0.00  0.00    +0.000 A 
BRANCH   5   8
ATOM      8  C   UNL     1      51.807   8.670  12.013  0.00  0.00    +0.000 C 
BRANCH   8   9
ATOM      9  N   UNL     1      52.349   7.723  11.072  0.00  0.00    +0.000 N 
ATOM     10  C   UNL     1      52.652   8.092   9.779  0.00  0.00    +0.000 C 
ATOM     11  O   UNL     1      52.444   9.218   9.335  0.00  0.00    +0.000 OA
ATOM     12  H   UNL     1      52.633   6.795  11.372  0.00  0.00    +0.000 HD
BRANCH  10  13
ATOM     13  C   UNL     1      53.280   6.973   8.934  0.00  0.00    +0.000 C 
ATOM     14  C   UNL     1      53.564   5.736   9.773  0.00  0.00    +0.000 C 
ATOM     15  C   UNL     1      54.742   5.123   9.062  0.00  0.00    +0.000 C 
ATOM     16  C   UNL     1      55.503   6.346   8.606  0.00  0.00    +0.000 C 
ATOM     17  O   UNL     1      54.526   7.356   8.323  0.00  0.00    +0.000 OA
ENDBRANCH  10  13
ENDBRANCH   8   9
ENDBRANCH   5   8
ENDBRANCH   1   2
BRANCH   1  20
ATOM     18  O   UNL     1      43.911   7.433  11.090  0.00  0.00    +0.000 OA
ATOM     19  C   UNL     1      44.579   6.537  11.595  0.00  0.00    +0.000 C 
ATOM     20  N   UNL     1      45.591   6.789  12.484  0.00  0.00    +0.000 N 
ATOM     21  H   UNL     1      46.247   6.050  12.714  0.00  0.00    +0.000 HD
BRANCH  19  22
ATOM     22  C   UNL     1      44.304   5.121  11.320  0.00  0.00    +0.000 A 
ATOM     23  C   UNL     1      43.501   4.387  12.183  0.00  0.00    +0.000 A 
ATOM     24  S   UNL     1      43.324   2.752  11.730  0.00  0.00    +0.000 S 
ATOM     25  C   UNL     1      44.278   2.975  10.338  0.00  0.00    +0.000 A 
ATOM     26  N   UNL     1      44.510   1.950   9.476  0.00  0.00    +0.000 NA
ATOM     27  C   UNL     1      45.224   2.271   8.447  0.00  0.00    +0.000 A 
ATOM     28  N   UNL     1      45.725   3.523   8.205  0.00  0.00    +0.000 N 
ATOM     29  C   UNL     1      45.536   4.580   9.062  0.00  0.00    +0.000 A 
ATOM     30  O   UNL     1      46.035   5.679   8.831  0.00  0.00    +0.000 OA
ATOM     31  C   UNL     1      44.736   4.277  10.230  0.00  0.00    +0.000 A 
ATOM     32  H   UNL     1      46.283   3.709   7.384  0.00  0.00    +0.000 HD
ENDBRANCH  19  22
ENDBRANCH   1  20
TORSDOF 6
ENDMDL
MODEL 9
REMARK VINA RESULT:    -6.106      2.490      3.267
REMARK INTER + INTRA:          -9.171
REMARK INTER:                  -8.209
REMARK INTRA:                  -0.962
REMARK UNBOUND:                -0.923
REMARK  Name = 
REMARK  6 active torsions:
REMARK  status: ('A' for Active; 'I' for Inactive)
REMARK    1  A    between atoms: C_2  and  C_20
REMARK    2  A    between atoms: N_3  and  C_4
REMARK    3  A    between atoms: C_4  and  C_5
REMARK    4  A    between atoms: C_8  and  C_9
REMARK    5  A    between atoms: C_9  and  N_10
REMARK    6  A    between atoms: C_11  and  C_13
REMARK                            x       y       z     vdW  Elec       q    Type
REMARK                         _______ _______ _______ _____ _____    ______ ____
ROOT
ATOM      1  C   UNL     1      48.654   5.845  15.029  0.00  0.00    +0.000 C 
ENDROOT
BRANCH   1   2
ATOM      2  C   UNL     1      47.637   5.923  13.918  0.00  0.00    +0.000 A 
ATOM      3  C   UNL     1      46.734   4.874  13.702  0.00  0.00    +0.000 A 
ATOM      4  C   UNL     1      45.804   4.935  12.657  0.00  0.00    +0.000 A 
ATOM      5  C   UNL     1      45.773   6.036  11.791  0.00  0.00    +0.000 A 
ATOM      6  C   UNL     1      46.682   7.081  12.002  0.00  0.00    +0.000 A 
ATOM      7  C   UNL     1      47.611   7.021  13.048  0.00  0.00    +0.000 A 
BRANCH   5   8
ATOM      8  C   UNL     1      44.791   6.093  10.650  0.00  0.00    +0.000 C 
BRANCH   8   9
ATOM      9  N   UNL     1      45.055   5.099   9.640  0.00  0.00    +0.000 N 
ATOM     10  C   UNL     1      44.317   3.938   9.567  0.00  0.00    +0.000 C 
ATOM     11  O   UNL     1      43.430   3.654  10.368  0.00  0.00    +0.000 OA
ATOM     12  H   UNL     1      45.710   5.285   8.885  0.00  0.00    +0.000 HD
BRANCH  10  13
ATOM     13  C   UNL     1      44.693   3.024   8.391  0.00  0.00    +0.000 C 
ATOM     14  C   UNL     1      45.411   1.771   8.869  0.00  0.00    +0.000 C 
ATOM     15  C   UNL     1      46.287   1.427   7.692  0.00  0.00    +0.000 C 
ATOM     16  C   UNL     1      46.675   2.796   7.182  0.00  0.00    +0.000 C 
ATOM     17  O   UNL     1      45.559   3.660   7.432  0.00  0.00    +0.000 OA
ENDBRANCH  10  13
ENDBRANCH   8   9
ENDBRANCH   5   8
ENDBRANCH   1   2
BRANCH   1  20
ATOM     18  O   UNL     1      50.364   8.010  15.472  0.00  0.00    +0.000 OA
ATOM     19  C   UNL     1      49.309   7.959  16.096  0.00  0.00    +0.000 C 
ATOM     20  N   UNL     1      48.447   6.899  15.993  0.00  0.00    +0.000 N 
ATOM     21  H   UNL     1      47.503   6.987  16.354  0.00  0.00    +0.000 HD
BRANCH  19  22
ATOM     22  C   UNL     1      48.919   9.015  17.039  0.00  0.00    +0.000 A 
ATOM     23  C   UNL     1      48.512  10.256  16.564  0.00  0.00    +0.000 A 
ATOM     24  S   UNL     1      48.137  11.372  17.799  0.00  0.00    +0.000 S 
ATOM     25  C   UNL     1      48.459  10.223  19.013  0.00  0.00    +0.000 A 
ATOM     26  N   UNL     1      48.306  10.531  20.329  0.00  0.00    +0.000 NA
ATOM     27  C   UNL     1      48.556   9.555  21.137  0.00  0.00    +0.000 A 
ATOM     28  N   UNL     1      48.944   8.299  20.748  0.00  0.00    +0.000 N 
ATOM     29  C   UNL     1      49.135   7.953  19.433  0.00  0.00    +0.000 A 
ATOM     30  O   UNL     1      49.521   6.828  19.124  0.00  0.00    +0.000 OA
ATOM     31  C   UNL     1      48.862   9.010  18.482  0.00  0.00    +0.000 A 
ATOM     32  H   UNL     1      49.131   7.579  21.431  0.00  0.00    +0.000 HD
ENDBRANCH  19  22
ENDBRANCH   1  20
TORSDOF 6
ENDMDL
