MODEL 1
REMARK VINA RESULT:    -8.546      0.000      0.000
REMARK INTER + INTRA:         -12.218
REMARK INTER:                 -11.544
REMARK INTRA:                  -0.675
REMARK UNBOUND:                -0.675
REMARK  Name = 
REMARK  7 active torsions:
REMARK  status: ('A' for Active; 'I' for Inactive)
REMARK    1  A    between atoms: C_1  and  C_2
REMARK    2  A    between atoms: C_5  and  C_6
REMARK    3  A    between atoms: N_8  and  C_9
REMARK    4  A    between atoms: C_9  and  C_10
REMARK    5  A    between atoms: C_13  and  C_14
REMARK    6  A    between atoms: C_14  and  N_15
REMARK    7  A    between atoms: C_16  and  C_18
REMARK                            x       y       z     vdW  Elec       q    Type
REMARK                         _______ _______ _______ _____ _____    ______ ____
ROOT
ATOM      1  C   UNL     1      44.229   6.432  11.974  0.00  0.00    +0.000 C 
ATOM      2  C   UNL     1      44.582   7.814  11.400  0.00  0.00    +0.000 C 
ATOM      3  C   UNL     1      45.483   8.620  12.333  0.00  0.00    +0.000 C 
ATOM      4  C   UNL     1      46.771   7.862  12.685  0.00  0.00    +0.000 C 
ATOM      5  C   UNL     1      46.422   6.485  13.272  0.00  0.00    +0.000 C 
ATOM      6  C   UNL     1      45.512   5.670  12.350  0.00  0.00    +0.000 C 
ENDROOT
BRANCH   1   7
ATOM      7  C   UNL     1      43.384   5.620  10.974  0.00  0.00    +0.000 C 
BRANCH   7  10
ATOM      8  C   UNL     1      44.242   3.518   9.934  0.00  0.00    +0.000 C 
ATOM      9  O   UNL     1      43.599   2.792  10.689  0.00  0.00    +0.000 OA
ATOM     10  N   UNL     1      44.194   4.896  10.015  0.00  0.00    +0.000 N 
ATOM     11  H   UNL     1      44.717   5.408   9.312  0.00  0.00    +0.000 HD
BRANCH   8  16
ATOM     12  C   UNL     1      46.822   0.141   7.608  0.00  0.00    +0.000 C 
ATOM     13  C   UNL     1      46.298   1.507   7.805  0.00  0.00    +0.000 A 
ATOM     14  C   UNL     1      46.440   2.683   7.102  0.00  0.00    +0.000 A 
ATOM     15  C   UNL     1      45.678   3.654   7.799  0.00  0.00    +0.000 A 
ATOM     16  C   UNL     1      45.115   3.020   8.888  0.00  0.00    +0.000 A 
ATOM     17  O   UNL     1      45.499   1.701   8.893  0.00  0.00    +0.000 OA
ENDBRANCH   8  16
ENDBRANCH   7  10
ENDBRANCH   1   7
BRANCH   4  18
ATOM     18  C   UNL     1      47.647   8.651  13.679  0.00  0.00    +0.000 C 
BRANCH  18  19
ATOM     19  N   UNL     1      47.815   7.979  14.954  0.00  0.00    +0.000 N 
ATOM     20  C   UNL     1      48.901   7.186  15.228  0.00  0.00    +0.000 C 
ATOM     21  O   UNL     1      49.803   7.011  14.412  0.00  0.00    +0.000 OA
ATOM     22  H   UNL     1      47.030   7.991  15.598  0.00  0.00    +0.000 HD
BRANCH  20  23
ATOM     23  C   UNL     1      48.968   6.593  16.570  0.00  0.00    +0.000 A 
ATOM     24  C   UNL     1      49.487   7.343  17.618  0.00  0.00    +0.000 A 
ATOM     25  S   UNL     1      49.507   6.517  19.108  0.00  0.00    +0.000 S 
ATOM     26  C   UNL     1      48.858   5.113  18.400  0.00  0.00    +0.000 A 
ATOM     27  N   UNL     1      48.656   3.990  19.141  0.00  0.00    +0.000 NA
ATOM     28  C   UNL     1      48.189   2.988  18.471  0.00  0.00    +0.000 A 
ATOM     29  N   UNL     1      47.890   3.016  17.135  0.00  0.00    +0.000 N 
ATOM     30  C   UNL     1      48.029   4.143  16.357  0.00  0.00    +0.000 A 
ATOM     31  O   UNL     1      47.660   4.163  15.187  0.00  0.00    +0.000 OA
ATOM     32  C   UNL     1      48.594   5.283  17.053  0.00  0.00    +0.000 A 
ATOM     33  H   UNL     1      47.501   2.202  16.678  0.00  0.00    +0.000 HD
ENDBRANCH  20  23
ENDBRANCH  18  19
ENDBRANCH   4  18
TORSDOF 6
ENDMDL
MODEL 2
REMARK VINA RESULT:    -8.151      1.657      2.100
REMARK INTER + INTRA:         -11.685
REMARK INTER:                 -10.707
REMARK INTRA:                  -0.978
REMARK UNBOUND:                -0.675
REMARK  Name = 
REMARK  7 active torsions:
REMARK  status: ('A' for Active; 'I' for Inactive)
REMARK    1  A    between atoms: C_1  and  C_2
REMARK    2  A    between atoms: C_5  and  C_6
REMARK    3  A    between atoms: N_8  and  C_9
REMARK    4  A    between atoms: C_9  and  C_10
REMARK    5  A    between atoms: C_13  and  C_14
REMARK    6  A    between atoms: C_14  and  N_15
REMARK    7  A    between atoms: C_16  and  C_18
REMARK                            x       y       z     vdW  Elec       q    Type
REMARK                         _______ _______ _______ _____ _____    ______ ____
ROOT
ATOM      1  C   UNL     1      44.989   4.503  12.694  0.00  0.00    +0.000 C 
ATOM      2  C   UNL     1      45.348   5.766  11.893  0.00  0.00    +0.000 C 
ATOM      3  C   UNL     1      46.278   6.700  12.664  0.00  0.00    +0.000 C 
ATOM      4  C   UNL     1      47.563   5.990  13.114  0.00  0.00    +0.000 C 
ATOM      5  C   UNL     1      47.207   4.735  13.927  0.00  0.00    +0.000 C 
ATOM      6  C   UNL     1      46.268   3.793  13.168  0.00  0.00    +0.000 C 
ENDROOT
BRANCH   1   7
ATOM      7  C   UNL     1      44.113   3.552  11.857  0.00  0.00    +0.000 C 
BRANCH   7  10
ATOM      8  C   UNL     1      44.679   3.415   9.429  0.00  0.00    +0.000 C 
ATOM      9  O   UNL     1      43.915   4.326   9.121  0.00  0.00    +0.000 OA
ATOM     10  N   UNL     1      44.825   2.980  10.732  0.00  0.00    +0.000 N 
ATOM     11  H   UNL     1      45.521   2.260  10.893  0.00  0.00    +0.000 HD
BRANCH   8  16
ATOM     12  C   UNL     1      47.232   2.911   5.342  0.00  0.00    +0.000 C 
ATOM     13  C   UNL     1      46.675   2.436   6.625  0.00  0.00    +0.000 A 
ATOM     14  C   UNL     1      46.756   1.241   7.305  0.00  0.00    +0.000 A 
ATOM     15  C   UNL     1      46.005   1.412   8.495  0.00  0.00    +0.000 A 
ATOM     16  C   UNL     1      45.504   2.698   8.475  0.00  0.00    +0.000 A 
ATOM     17  O   UNL     1      45.914   3.326   7.323  0.00  0.00    +0.000 OA
ENDBRANCH   8  16
ENDBRANCH   7  10
ENDBRANCH   1   7
BRANCH   4  18
ATOM     18  C   UNL     1      48.468   6.918  13.948  0.00  0.00    +0.000 C 
BRANCH  18  19
ATOM     19  N   UNL     1      48.282   6.767  15.379  0.00  0.00    +0.000 N 
ATOM     20  C   UNL     1      48.906   7.582  16.290  0.00  0.00    +0.000 C 
ATOM     21  O   UNL     1      49.649   8.498  15.944  0.00  0.00    +0.000 OA
ATOM     22  H   UNL     1      47.787   5.942  15.703  0.00  0.00    +0.000 HD
BRANCH  20  23
ATOM     23  C   UNL     1      48.605   7.345  17.708  0.00  0.00    +0.000 A 
ATOM     24  C   UNL     1      48.141   8.398  18.487  0.00  0.00    +0.000 A 
ATOM     25  S   UNL     1      47.845   7.971  20.110  0.00  0.00    +0.000 S 
ATOM     26  C   UNL     1      48.360   6.372  19.840  0.00  0.00    +0.000 A 
ATOM     27  N   UNL     1      48.392   5.471  20.857  0.00  0.00    +0.000 NA
ATOM     28  C   UNL     1      48.835   4.304  20.521  0.00  0.00    +0.000 A 
ATOM     29  N   UNL     1      49.229   3.956  19.257  0.00  0.00    +0.000 N 
ATOM     30  C   UNL     1      49.165   4.819  18.185  0.00  0.00    +0.000 A 
ATOM     31  O   UNL     1      49.433   4.446  17.047  0.00  0.00    +0.000 OA
ATOM     32  C   UNL     1      48.718   6.156  18.521  0.00  0.00    +0.000 A 
ATOM     33  H   UNL     1      49.540   3.015  19.055  0.00  0.00    +0.000 HD
ENDBRANCH  20  23
ENDBRANCH  18  19
ENDBRANCH   4  18
TORSDOF 6
ENDMDL
MODEL 3
REMARK VINA RESULT:    -8.071      1.415      1.415
REMARK INTER + INTRA:         -11.576
REMARK INTER:                 -10.671
REMARK INTRA:                  -0.905
REMARK UNBOUND:                -0.675
REMARK  Name = 
REMARK  7 active torsions:
REMARK  status: ('A' for Active; 'I' for Inactive)
REMARK    1  A    between atoms: C_1  and  C_2
REMARK    2  A    between atoms: C_5  and  C_6
REMARK    3  A    between atoms: N_8  and  C_9
REMARK    4  A    between atoms: C_9  and  C_10
REMARK    5  A    between atoms: C_13  and  C_14
REMARK    6  A    between atoms: C_14  and  N_15
REMARK    7  A    between atoms: C_16  and  C_18
REMARK                            x       y       z     vdW  Elec       q    Type
REMARK                         _______ _______ _______ _____ _____    ______ ____
ROOT
ATOM      1  C   UNL     1      44.852   6.455  12.339  0.00  0.00    +0.000 C 
ATOM      2  C   UNL     1      45.009   7.964  12.082  0.00  0.00    +0.000 C 
ATOM      3  C   UNL     1      45.987   8.622  13.052  0.00  0.00    +0.000 C 
ATOM      4  C   UNL     1      47.365   7.948  13.026  0.00  0.00    +0.000 C 
ATOM      5  C   UNL     1      47.214   6.442  13.297  0.00  0.00    +0.000 C 
ATOM      6  C   UNL     1      46.230   5.771  12.335  0.00  0.00    +0.000 C 
ENDROOT
BRANCH   1   7
ATOM      7  C   UNL     1      43.919   5.813  11.296  0.00  0.00    +0.000 C 
BRANCH   7  10
ATOM      8  C   UNL     1      44.391   3.765   9.947  0.00  0.00    +0.000 C 
ATOM      9  O   UNL     1      43.531   3.098  10.517  0.00  0.00    +0.000 OA
ATOM     10  N   UNL     1      44.641   5.083  10.272  0.00  0.00    +0.000 N 
ATOM     11  H   UNL     1      45.333   5.565   9.708  0.00  0.00    +0.000 HD
BRANCH   8  16
ATOM     12  C   UNL     1      46.906   0.355   7.598  0.00  0.00    +0.000 C 
ATOM     13  C   UNL     1      46.386   1.724   7.789  0.00  0.00    +0.000 A 
ATOM     14  C   UNL     1      46.506   2.889   7.064  0.00  0.00    +0.000 A 
ATOM     15  C   UNL     1      45.763   3.870   7.768  0.00  0.00    +0.000 A 
ATOM     16  C   UNL     1      45.234   3.252   8.883  0.00  0.00    +0.000 A 
ATOM     17  O   UNL     1      45.619   1.934   8.897  0.00  0.00    +0.000 OA
ENDBRANCH   8  16
ENDBRANCH   7  10
ENDBRANCH   1   7
BRANCH   4  18
ATOM     18  C   UNL     1      48.329   8.573  14.054  0.00  0.00    +0.000 C 
BRANCH  18  19
ATOM     19  N   UNL     1      49.186   7.599  14.703  0.00  0.00    +0.000 N 
ATOM     20  C   UNL     1      49.217   7.443  16.067  0.00  0.00    +0.000 C 
ATOM     21  O   UNL     1      48.508   8.110  16.816  0.00  0.00    +0.000 OA
ATOM     22  H   UNL     1      49.879   7.128  14.131  0.00  0.00    +0.000 HD
BRANCH  20  23
ATOM     23  C   UNL     1      50.102   6.397  16.595  0.00  0.00    +0.000 A 
ATOM     24  C   UNL     1      51.441   6.692  16.821  0.00  0.00    +0.000 A 
ATOM     25  S   UNL     1      52.340   5.376  17.425  0.00  0.00    +0.000 S 
ATOM     26  C   UNL     1      50.981   4.354  17.371  0.00  0.00    +0.000 A 
ATOM     27  N   UNL     1      51.081   3.045  17.729  0.00  0.00    +0.000 NA
ATOM     28  C   UNL     1      49.983   2.376  17.609  0.00  0.00    +0.000 A 
ATOM     29  N   UNL     1      48.793   2.902  17.183  0.00  0.00    +0.000 N 
ATOM     30  C   UNL     1      48.631   4.231  16.861  0.00  0.00    +0.000 A 
ATOM     31  O   UNL     1      47.530   4.691  16.577  0.00  0.00    +0.000 OA
ATOM     32  C   UNL     1      49.848   5.015  16.935  0.00  0.00    +0.000 A 
ATOM     33  H   UNL     1      47.962   2.327  17.138  0.00  0.00    +0.000 HD
ENDBRANCH  20  23
ENDBRANCH  18  19
ENDBRANCH   4  18
TORSDOF 6
ENDMDL
MODEL 4
REMARK VINA RESULT:    -7.686      2.213      2.651
REMARK INTER + INTRA:         -11.057
REMARK INTER:                 -10.294
REMARK INTRA:                  -0.763
REMARK UNBOUND:                -0.675
REMARK  Name = 
REMARK  7 active torsions:
REMARK  status: ('A' for Active; 'I' for Inactive)
REMARK    1  A    between atoms: C_1  and  C_2
REMARK    2  A    between atoms: C_5  and  C_6
REMARK    3  A    between atoms: N_8  and  C_9
REMARK    4  A    between atoms: C_9  and  C_10
REMARK    5  A    between atoms: C_13  and  C_14
REMARK    6  A    between atoms: C_14  and  N_15
REMARK    7  A    between atoms: C_16  and  C_18
REMARK                            x       y       z     vdW  Elec       q    Type
REMARK                         _______ _______ _______ _____ _____    ______ ____
ROOT
ATOM      1  C   UNL     1      44.778   6.431  12.308  0.00  0.00    +0.000 C 
ATOM      2  C   UNL     1      45.157   7.899  12.050  0.00  0.00    +0.000 C 
ATOM      3  C   UNL     1      46.128   8.442  13.095  0.00  0.00    +0.000 C 
ATOM      4  C   UNL     1      47.401   7.590  13.195  0.00  0.00    +0.000 C 
ATOM      5  C   UNL     1      47.027   6.124  13.467  0.00  0.00    +0.000 C 
ATOM      6  C   UNL     1      46.047   5.569  12.431  0.00  0.00    +0.000 C 
ENDROOT
BRANCH   1   7
ATOM      7  C   UNL     1      43.859   5.896  11.194  0.00  0.00    +0.000 C 
BRANCH   7  10
ATOM      8  C   UNL     1      44.354   3.794   9.940  0.00  0.00    +0.000 C 
ATOM      9  O   UNL     1      43.523   3.136  10.562  0.00  0.00    +0.000 OA
ATOM     10  N   UNL     1      44.578   5.133  10.193  0.00  0.00    +0.000 N 
ATOM     11  H   UNL     1      45.245   5.602   9.589  0.00  0.00    +0.000 HD
BRANCH   8  16
ATOM     12  C   UNL     1      46.855   0.315   7.679  0.00  0.00    +0.000 C 
ATOM     13  C   UNL     1      46.333   1.687   7.830  0.00  0.00    +0.000 A 
ATOM     14  C   UNL     1      46.441   2.828   7.065  0.00  0.00    +0.000 A 
ATOM     15  C   UNL     1      45.703   3.830   7.744  0.00  0.00    +0.000 A 
ATOM     16  C   UNL     1      45.187   3.248   8.884  0.00  0.00    +0.000 A 
ATOM     17  O   UNL     1      45.577   1.932   8.939  0.00  0.00    +0.000 OA
ENDBRANCH   8  16
ENDBRANCH   7  10
ENDBRANCH   1   7
BRANCH   4  18
ATOM     18  C   UNL     1      48.349   8.104  14.297  0.00  0.00    +0.000 C 
BRANCH  18  19
ATOM     19  N   UNL     1      49.086   7.044  14.960  0.00  0.00    +0.000 N 
ATOM     20  C   UNL     1      49.210   6.980  16.326  0.00  0.00    +0.000 C 
ATOM     21  O   UNL     1      48.690   7.810  17.067  0.00  0.00    +0.000 OA
ATOM     22  H   UNL     1      49.639   6.421  14.379  0.00  0.00    +0.000 HD
BRANCH  20  23
ATOM     23  C   UNL     1      49.951   5.836  16.872  0.00  0.00    +0.000 A 
ATOM     24  C   UNL     1      49.248   4.779  17.435  0.00  0.00    +0.000 A 
ATOM     25  S   UNL     1      50.245   3.533  18.033  0.00  0.00    +0.000 S 
ATOM     26  C   UNL     1      51.655   4.378  17.594  0.00  0.00    +0.000 A 
ATOM     27  N   UNL     1      52.886   3.867  17.868  0.00  0.00    +0.000 NA
ATOM     28  C   UNL     1      53.868   4.626  17.511  0.00  0.00    +0.000 A 
ATOM     29  N   UNL     1      53.730   5.838  16.889  0.00  0.00    +0.000 N 
ATOM     30  C   UNL     1      52.507   6.370  16.544  0.00  0.00    +0.000 A 
ATOM     31  O   UNL     1      52.421   7.411  15.900  0.00  0.00    +0.000 OA
ATOM     32  C   UNL     1      51.370   5.576  16.966  0.00  0.00    +0.000 A 
ATOM     33  H   UNL     1      54.543   6.370  16.610  0.00  0.00    +0.000 HD
ENDBRANCH  20  23
ENDBRANCH  18  19
ENDBRANCH   4  18
TORSDOF 6
ENDMDL
MODEL 5
REMARK VINA RESULT:    -7.562      2.265      2.767
REMARK INTER + INTRA:         -10.889
REMARK INTER:                 -10.106
REMARK INTRA:                  -0.783
REMARK UNBOUND:                -0.675
REMARK  Name = 
REMARK  7 active torsions:
REMARK  status: ('A' for Active; 'I' for Inactive)
REMARK    1  A    between atoms: C_1  and  C_2
REMARK    2  A    between atoms: C_5  and  C_6
REMARK    3  A    between atoms: N_8  and  C_9
REMARK    4  A    between atoms: C_9  and  C_10
REMARK    5  A    between atoms: C_13  and  C_14
REMARK    6  A    between atoms: C_14  and  N_15
REMARK    7  A    between atoms: C_16  and  C_18
REMARK                            x       y       z     vdW  Elec       q    Type
REMARK                         _______ _______ _______ _____ _____    ______ ____
ROOT
ATOM      1  C   UNL     1      46.538   7.521  12.039  0.00  0.00    +0.000 C 
ATOM      2  C   UNL     1      47.461   6.357  12.441  0.00  0.00    +0.000 C 
ATOM      3  C   UNL     1      48.697   6.829  13.202  0.00  0.00    +0.000 C 
ATOM      4  C   UNL     1      48.329   7.651  14.446  0.00  0.00    +0.000 C 
ATOM      5  C   UNL     1      47.418   8.823  14.045  0.00  0.00    +0.000 C 
ATOM      6  C   UNL     1      46.178   8.363  13.275  0.00  0.00    +0.000 C 
ENDROOT
BRANCH   1   7
ATOM      7  C   UNL     1      45.267   7.000  11.343  0.00  0.00    +0.000 C 
BRANCH   7  10
ATOM      8  C   UNL     1      44.565   4.913  10.165  0.00  0.00    +0.000 C 
ATOM      9  O   UNL     1      43.408   4.979  10.574  0.00  0.00    +0.000 OA
ATOM     10  N   UNL     1      45.523   5.850  10.498  0.00  0.00    +0.000 N 
ATOM     11  H   UNL     1      46.434   5.739  10.066  0.00  0.00    +0.000 HD
BRANCH   8  16
ATOM     12  C   UNL     1      46.635   3.122   6.167  0.00  0.00    +0.000 C 
ATOM     13  C   UNL     1      45.991   3.009   7.492  0.00  0.00    +0.000 A 
ATOM     14  C   UNL     1      45.673   1.940   8.299  0.00  0.00    +0.000 A 
ATOM     15  C   UNL     1      45.071   2.486   9.459  0.00  0.00    +0.000 A 
ATOM     16  C   UNL     1      45.052   3.857   9.297  0.00  0.00    +0.000 A 
ATOM     17  O   UNL     1      45.616   4.178   8.086  0.00  0.00    +0.000 OA
ENDBRANCH   8  16
ENDBRANCH   7  10
ENDBRANCH   1   7
BRANCH   4  18
ATOM     18  C   UNL     1      49.580   8.181  15.173  0.00  0.00    +0.000 C 
BRANCH  18  19
ATOM     19  N   UNL     1      50.421   7.127  15.710  0.00  0.00    +0.000 N 
ATOM     20  C   UNL     1      50.228   6.601  16.963  0.00  0.00    +0.000 C 
ATOM     21  O   UNL     1      49.320   6.983  17.698  0.00  0.00    +0.000 OA
ATOM     22  H   UNL     1      51.258   6.883  15.190  0.00  0.00    +0.000 HD
BRANCH  20  23
ATOM     23  C   UNL     1      51.126   5.514  17.373  0.00  0.00    +0.000 A 
ATOM     24  C   UNL     1      52.398   5.824  17.837  0.00  0.00    +0.000 A 
ATOM     25  S   UNL     1      53.324   4.459  18.264  0.00  0.00    +0.000 S 
ATOM     26  C   UNL     1      52.072   3.401  17.810  0.00  0.00    +0.000 A 
ATOM     27  N   UNL     1      52.236   2.053  17.892  0.00  0.00    +0.000 NA
ATOM     28  C   UNL     1      51.220   1.368  17.484  0.00  0.00    +0.000 A 
ATOM     29  N   UNL     1      50.050   1.909  17.021  0.00  0.00    +0.000 N 
ATOM     30  C   UNL     1      49.819   3.266  16.969  0.00  0.00    +0.000 A 
ATOM     31  O   UNL     1      48.726   3.717  16.643  0.00  0.00    +0.000 OA
ATOM     32  C   UNL     1      50.949   4.080  17.373  0.00  0.00    +0.000 A 
ATOM     33  H   UNL     1      49.281   1.314  16.742  0.00  0.00    +0.000 HD
ENDBRANCH  20  23
ENDBRANCH  18  19
ENDBRANCH   4  18
TORSDOF 6
ENDMDL
MODEL 6
REMARK VINA RESULT:    -7.555      2.026      3.639
REMARK INTER + INTRA:         -10.880
REMARK INTER:                  -9.988
REMARK INTRA:                  -0.892
REMARK UNBOUND:                -0.675
REMARK  Name = 
REMARK  7 active torsions:
REMARK  status: ('A' for Active; 'I' for Inactive)
REMARK    1  A    between atoms: C_1  and  C_2
REMARK    2  A    between atoms: C_5  and  C_6
REMARK    3  A    between atoms: N_8  and  C_9
REMARK    4  A    between atoms: C_9  and  C_10
REMARK    5  A    between atoms: C_13  and  C_14
REMARK    6  A    between atoms: C_14  and  N_15
REMARK    7  A    between atoms: C_16  and  C_18
REMARK                            x       y       z     vdW  Elec       q    Type
REMARK                         _______ _______ _______ _____ _____    ______ ____
ROOT
ATOM      1  C   UNL     1      44.394   4.718  11.586  0.00  0.00    +0.000 C 
ATOM      2  C   UNL     1      45.352   5.887  11.872  0.00  0.00    +0.000 C 
ATOM      3  C   UNL     1      45.935   5.831  13.282  0.00  0.00    +0.000 C 
ATOM      4  C   UNL     1      46.648   4.500  13.557  0.00  0.00    +0.000 C 
ATOM      5  C   UNL     1      45.689   3.329  13.287  0.00  0.00    +0.000 C 
ATOM      6  C   UNL     1      45.091   3.378  11.879  0.00  0.00    +0.000 C 
ENDROOT
BRANCH   1   7
ATOM      7  C   UNL     1      43.886   4.765  10.133  0.00  0.00    +0.000 C 
BRANCH   7  10
ATOM      8  C   UNL     1      45.691   4.228   8.492  0.00  0.00    +0.000 C 
ATOM      9  O   UNL     1      46.131   5.375   8.485  0.00  0.00    +0.000 OA
ATOM     10  N   UNL     1      44.604   3.858   9.259  0.00  0.00    +0.000 N 
ATOM     11  H   UNL     1      44.350   2.876   9.240  0.00  0.00    +0.000 HD
BRANCH   8  16
ATOM     12  C   UNL     1      46.777  -0.395   7.537  0.00  0.00    +0.000 C 
ATOM     13  C   UNL     1      46.759   1.051   7.241  0.00  0.00    +0.000 A 
ATOM     14  C   UNL     1      47.223   1.804   6.185  0.00  0.00    +0.000 A 
ATOM     15  C   UNL     1      46.895   3.150   6.485  0.00  0.00    +0.000 A 
ATOM     16  C   UNL     1      46.251   3.145   7.706  0.00  0.00    +0.000 A 
ATOM     17  O   UNL     1      46.171   1.855   8.172  0.00  0.00    +0.000 OA
ENDBRANCH   8  16
ENDBRANCH   7  10
ENDBRANCH   1   7
BRANCH   4  18
ATOM     18  C   UNL     1      47.178   4.422  15.003  0.00  0.00    +0.000 C 
BRANCH  18  19
ATOM     19  N   UNL     1      47.583   5.710  15.535  0.00  0.00    +0.000 N 
ATOM     20  C   UNL     1      48.705   5.863  16.311  0.00  0.00    +0.000 C 
ATOM     21  O   UNL     1      49.441   4.919  16.587  0.00  0.00    +0.000 OA
ATOM     22  H   UNL     1      46.932   6.483  15.441  0.00  0.00    +0.000 HD
BRANCH  20  23
ATOM     23  C   UNL     1      49.023   7.226  16.756  0.00  0.00    +0.000 A 
ATOM     24  C   UNL     1      48.730   7.599  18.061  0.00  0.00    +0.000 A 
ATOM     25  S   UNL     1      49.148   9.210  18.425  0.00  0.00    +0.000 S 
ATOM     26  C   UNL     1      49.704   9.480  16.840  0.00  0.00    +0.000 A 
ATOM     27  N   UNL     1      50.171  10.702  16.465  0.00  0.00    +0.000 NA
ATOM     28  C   UNL     1      50.528  10.777  15.226  0.00  0.00    +0.000 A 
ATOM     29  N   UNL     1      50.479   9.737  14.336  0.00  0.00    +0.000 N 
ATOM     30  C   UNL     1      50.063   8.471  14.683  0.00  0.00    +0.000 A 
ATOM     31  O   UNL     1      50.123   7.538  13.889  0.00  0.00    +0.000 OA
ATOM     32  C   UNL     1      49.606   8.347  16.054  0.00  0.00    +0.000 A 
ATOM     33  H   UNL     1      50.801   9.857  13.386  0.00  0.00    +0.000 HD
ENDBRANCH  20  23
ENDBRANCH  18  19
ENDBRANCH   4  18
TORSDOF 6
ENDMDL
MODEL 7
REMARK VINA RESULT:    -6.981      3.408      9.237
REMARK INTER + INTRA:         -10.105
REMARK INTER:                  -9.332
REMARK INTRA:                  -0.773
REMARK UNBOUND:                -0.675
REMARK  Name = 
REMARK  7 active torsions:
REMARK  status: ('A' for Active; 'I' for Inactive)
REMARK    1  A    between atoms: C_1  and  C_2
REMARK    2  A    between atoms: C_5  and  C_6
REMARK    3  A    between atoms: N_8  and  C_9
REMARK    4  A    between atoms: C_9  and  C_10
REMARK    5  A    between atoms: C_13  and  C_14
REMARK    6  A    between atoms: C_14  and  N_15
REMARK    7  A    between atoms: C_16  and  C_18
REMARK                            x       y       z     vdW  Elec       q    Type
REMARK                         _______ _______ _______ _____ _____    ______ ____
ROOT
ATOM      1  C   UNL     1      47.050   6.006  13.023  0.00  0.00    +0.000 C 
ATOM      2  C   UNL     1      45.696   6.646  12.672  0.00  0.00    +0.000 C 
ATOM      3  C   UNL     1      44.794   5.704  11.880  0.00  0.00    +0.000 C 
ATOM      4  C   UNL     1      44.563   4.375  12.614  0.00  0.00    +0.000 C 
ATOM      5  C   UNL     1      45.915   3.726  12.953  0.00  0.00    +0.000 C 
ATOM      6  C   UNL     1      46.833   4.663  13.741  0.00  0.00    +0.000 C 
ENDROOT
BRANCH   1   7
ATOM      7  C   UNL     1      47.901   6.957  13.886  0.00  0.00    +0.000 C 
BRANCH   7  10
ATOM      8  C   UNL     1      48.987   6.977  16.135  0.00  0.00    +0.000 C 
ATOM      9  O   UNL     1      49.017   8.204  16.194  0.00  0.00    +0.000 OA
ATOM     10  N   UNL     1      48.469   6.302  15.048  0.00  0.00    +0.000 N 
ATOM     11  H   UNL     1      48.438   5.290  15.116  0.00  0.00    +0.000 HD
BRANCH   8  16
ATOM     12  C   UNL     1      51.667   3.363  17.930  0.00  0.00    +0.000 C 
ATOM     13  C   UNL     1      50.696   4.470  18.032  0.00  0.00    +0.000 A 
ATOM     14  C   UNL     1      49.999   5.021  19.084  0.00  0.00    +0.000 A 
ATOM     15  C   UNL     1      49.224   6.074  18.537  0.00  0.00    +0.000 A 
ATOM     16  C   UNL     1      49.488   6.108  17.183  0.00  0.00    +0.000 A 
ATOM     17  O   UNL     1      50.391   5.119  16.872  0.00  0.00    +0.000 OA
ENDBRANCH   8  16
ENDBRANCH   7  10
ENDBRANCH   1   7
BRANCH   4  18
ATOM     18  C   UNL     1      43.706   3.402  11.781  0.00  0.00    +0.000 C 
BRANCH  18  19
ATOM     19  N   UNL     1      44.477   2.640  10.816  0.00  0.00    +0.000 N 
ATOM     20  C   UNL     1      44.528   2.978   9.487  0.00  0.00    +0.000 C 
ATOM     21  O   UNL     1      43.935   3.956   9.039  0.00  0.00    +0.000 OA
ATOM     22  H   UNL     1      44.868   1.754  11.122  0.00  0.00    +0.000 HD
BRANCH  20  23
ATOM     23  C   UNL     1      45.375   2.144   8.622  0.00  0.00    +0.000 A 
ATOM     24  C   UNL     1      45.230   0.763   8.660  0.00  0.00    +0.000 A 
ATOM     25  S   UNL     1      46.286  -0.066   7.610  0.00  0.00    +0.000 S 
ATOM     26  C   UNL     1      47.000   1.389   7.093  0.00  0.00    +0.000 A 
ATOM     27  N   UNL     1      48.027   1.381   6.200  0.00  0.00    +0.000 NA
ATOM     28  C   UNL     1      48.497   2.552   5.921  0.00  0.00    +0.000 A 
ATOM     29  N   UNL     1      48.021   3.727   6.438  0.00  0.00    +0.000 N 
ATOM     30  C   UNL     1      46.951   3.788   7.303  0.00  0.00    +0.000 A 
ATOM     31  O   UNL     1      46.487   4.862   7.671  0.00  0.00    +0.000 OA
ATOM     32  C   UNL     1      46.417   2.495   7.685  0.00  0.00    +0.000 A 
ATOM     33  H   UNL     1      48.417   4.612   6.155  0.00  0.00    +0.000 HD
ENDBRANCH  20  23
ENDBRANCH  18  19
ENDBRANCH   4  18
TORSDOF 6
ENDMDL
MODEL 8
REMARK VINA RESULT:    -6.959      1.714      2.209
REMARK INTER + INTRA:         -10.075
REMARK INTER:                  -9.185
REMARK INTRA:                  -0.889
REMARK UNBOUND:                -0.675
REMARK  Name = 
REMARK  7 active torsions:
REMARK  status: ('A' for Active; 'I' for Inactive)
REMARK    1  A    between atoms: C_1  and  C_2
REMARK    2  A    between atoms: C_5  and  C_6
REMARK    3  A    between atoms: N_8  and  C_9
REMARK    4  A    between atoms: C_9  and  C_10
REMARK    5  A    between atoms: C_13  and  C_14
REMARK    6  A    between atoms: C_14  and  N_15
REMARK    7  A    between atoms: C_16  and  C_18
REMARK                            x       y       z     vdW  Elec       q    Type
REMARK                         _______ _______ _______ _____ _____    ______ ____
ROOT
ATOM      1  C   UNL     1      46.429   6.804  11.571  0.00  0.00    +0.000 C 
ATOM      2  C   UNL     1      46.996   5.918  12.694  0.00  0.00    +0.000 C 
ATOM      3  C   UNL     1      48.059   6.636  13.521  0.00  0.00    +0.000 C 
ATOM      4  C   UNL     1      47.536   7.952  14.115  0.00  0.00    +0.000 C 
ATOM      5  C   UNL     1      46.981   8.845  12.993  0.00  0.00    +0.000 C 
ATOM      6  C   UNL     1      45.919   8.134  12.151  0.00  0.00    +0.000 C 
ENDROOT
BRANCH   1   7
ATOM      7  C   UNL     1      45.308   6.074  10.808  0.00  0.00    +0.000 C 
BRANCH   7  10
ATOM      8  C   UNL     1      45.012   4.310   9.065  0.00  0.00    +0.000 C 
ATOM      9  O   UNL     1      43.785   4.368   9.105  0.00  0.00    +0.000 OA
ATOM     10  N   UNL     1      45.816   5.099   9.863  0.00  0.00    +0.000 N 
ATOM     11  H   UNL     1      46.817   5.017   9.718  0.00  0.00    +0.000 HD
BRANCH   8  16
ATOM     12  C   UNL     1      46.824   0.037   7.675  0.00  0.00    +0.000 C 
ATOM     13  C   UNL     1      46.585   1.487   7.529  0.00  0.00    +0.000 A 
ATOM     14  C   UNL     1      46.943   2.411   6.572  0.00  0.00    +0.000 A 
ATOM     15  C   UNL     1      46.403   3.650   6.998  0.00  0.00    +0.000 A 
ATOM     16  C   UNL     1      45.747   3.416   8.190  0.00  0.00    +0.000 A 
ATOM     17  O   UNL     1      45.862   2.087   8.518  0.00  0.00    +0.000 OA
ENDBRANCH   8  16
ENDBRANCH   7  10
ENDBRANCH   1   7
BRANCH   4  18
ATOM     18  C   UNL     1      48.632   8.705  14.894  0.00  0.00    +0.000 C 
BRANCH  18  19
ATOM     19  N   UNL     1      48.897   8.138  16.203  0.00  0.00    +0.000 N 
ATOM     20  C   UNL     1      48.417   8.702  17.359  0.00  0.00    +0.000 C 
ATOM     21  O   UNL     1      47.721   9.715  17.349  0.00  0.00    +0.000 OA
ATOM     22  H   UNL     1      49.576   7.384  16.260  0.00  0.00    +0.000 HD
BRANCH  20  23
ATOM     23  C   UNL     1      48.728   8.009  18.615  0.00  0.00    +0.000 A 
ATOM     24  C   UNL     1      49.244   8.735  19.681  0.00  0.00    +0.000 A 
ATOM     25  S   UNL     1      49.562   7.792  21.064  0.00  0.00    +0.000 S 
ATOM     26  C   UNL     1      49.056   6.371  20.277  0.00  0.00    +0.000 A 
ATOM     27  N   UNL     1      49.114   5.168  20.909  0.00  0.00    +0.000 NA
ATOM     28  C   UNL     1      48.731   4.168  20.185  0.00  0.00    +0.000 A 
ATOM     29  N   UNL     1      48.279   4.268  18.896  0.00  0.00    +0.000 N 
ATOM     30  C   UNL     1      48.154   5.469  18.235  0.00  0.00    +0.000 A 
ATOM     31  O   UNL     1      47.654   5.534  17.116  0.00  0.00    +0.000 OA
ATOM     32  C   UNL     1      48.615   6.617  18.989  0.00  0.00    +0.000 A 
ATOM     33  H   UNL     1      47.968   3.447  18.394  0.00  0.00    +0.000 HD
ENDBRANCH  20  23
ENDBRANCH  18  19
ENDBRANCH   4  18
TORSDOF 6
ENDMDL
MODEL 9
REMARK VINA RESULT:    -6.911      4.242      8.688
REMARK INTER + INTRA:         -10.009
REMARK INTER:                  -9.253
REMARK INTRA:                  -0.756
REMARK UNBOUND:                -0.675
REMARK  Name = 
REMARK  7 active torsions:
REMARK  status: ('A' for Active; 'I' for Inactive)
REMARK    1  A    between atoms: C_1  and  C_2
REMARK    2  A    between atoms: C_5  and  C_6
REMARK    3  A    between atoms: N_8  and  C_9
REMARK    4  A    between atoms: C_9  and  C_10
REMARK    5  A    between atoms: C_13  and  C_14
REMARK    6  A    between atoms: C_14  and  N_15
REMARK    7  A    between atoms: C_16  and  C_18
REMARK                            x       y       z     vdW  Elec       q    Type
REMARK                         _______ _______ _______ _____ _____    ______ ____
ROOT
ATOM      1  C   UNL     1      50.348   4.404  17.417  0.00  0.00    +0.000 C 
ATOM      2  C   UNL     1      51.253   5.647  17.429  0.00  0.00    +0.000 C 
ATOM      3  C   UNL     1      50.923   6.619  16.299  0.00  0.00    +0.000 C 
ATOM      4  C   UNL     1      49.450   7.052  16.323  0.00  0.00    +0.000 C 
ATOM      5  C   UNL     1      48.542   5.811  16.297  0.00  0.00    +0.000 C 
ATOM      6  C   UNL     1      48.868   4.824  17.421  0.00  0.00    +0.000 C 
ENDROOT
BRANCH   1   7
ATOM      7  C   UNL     1      50.659   3.485  18.613  0.00  0.00    +0.000 C 
BRANCH   7  10
ATOM      8  C   UNL     1      52.081   1.613  17.771  0.00  0.00    +0.000 C 
ATOM      9  O   UNL     1      51.142   1.049  17.214  0.00  0.00    +0.000 OA
ATOM     10  N   UNL     1      51.924   2.792  18.473  0.00  0.00    +0.000 N 
ATOM     11  H   UNL     1      52.768   3.209  18.851  0.00  0.00    +0.000 HD
BRANCH   8  16
ATOM     12  C   UNL     1      55.683  -1.337  19.110  0.00  0.00    +0.000 C 
ATOM     13  C   UNL     1      55.104  -0.214  18.347  0.00  0.00    +0.000 A 
ATOM     14  C   UNL     1      55.621   0.666  17.422  0.00  0.00    +0.000 A 
ATOM     15  C   UNL     1      54.552   1.517  17.045  0.00  0.00    +0.000 A 
ATOM     16  C   UNL     1      53.443   1.112  17.760  0.00  0.00    +0.000 A 
ATOM     17  O   UNL     1      53.783   0.050  18.563  0.00  0.00    +0.000 OA
ENDBRANCH   8  16
ENDBRANCH   7  10
ENDBRANCH   1   7
BRANCH   4  18
ATOM     18  C   UNL     1      49.106   7.981  15.142  0.00  0.00    +0.000 C 
BRANCH  18  19
ATOM     19  N   UNL     1      47.912   7.578  14.424  0.00  0.00    +0.000 N 
ATOM     20  C   UNL     1      47.963   6.811  13.287  0.00  0.00    +0.000 C 
ATOM     21  O   UNL     1      49.026   6.409  12.819  0.00  0.00    +0.000 OA
ATOM     22  H   UNL     1      47.032   8.001  14.702  0.00  0.00    +0.000 HD
BRANCH  20  23
ATOM     23  C   UNL     1      46.679   6.442  12.676  0.00  0.00    +0.000 A 
ATOM     24  C   UNL     1      45.909   7.426  12.070  0.00  0.00    +0.000 A 
ATOM     25  S   UNL     1      44.445   6.847  11.417  0.00  0.00    +0.000 S 
ATOM     26  C   UNL     1      44.770   5.265  11.953  0.00  0.00    +0.000 A 
ATOM     27  N   UNL     1      43.875   4.263  11.745  0.00  0.00    +0.000 NA
ATOM     28  C   UNL     1      44.232   3.121  12.232  0.00  0.00    +0.000 A 
ATOM     29  N   UNL     1      45.411   2.889  12.889  0.00  0.00    +0.000 N 
ATOM     30  C   UNL     1      46.370   3.859  13.077  0.00  0.00    +0.000 A 
ATOM     31  O   UNL     1      47.456   3.596  13.583  0.00  0.00    +0.000 OA
ATOM     32  C   UNL     1      45.995   5.172  12.588  0.00  0.00    +0.000 A 
ATOM     33  H   UNL     1      45.642   1.963  13.222  0.00  0.00    +0.000 HD
ENDBRANCH  20  23
ENDBRANCH  18  19
ENDBRANCH   4  18
TORSDOF 6
ENDMDL
