MODEL 1
REMARK VINA RESULT:    -7.332      0.000      0.000
REMARK INTER + INTRA:         -10.683
REMARK INTER:                  -9.904
REMARK INTRA:                  -0.779
REMARK UNBOUND:                -0.779
REMARK  Name = 
REMARK  7 active torsions:
REMARK  status: ('A' for Active; 'I' for Inactive)
REMARK    1  A    between atoms: C_1  and  N_2
REMARK    2  A    between atoms: C_8  and  C_9
REMARK    3  A    between atoms: N_11  and  C_12
REMARK    4  A    between atoms: C_12  and  C_13
REMARK    5  A    between atoms: C_16  and  N_17
REMARK    6  A    between atoms: N_17  and  C_18
REMARK    7  A    between atoms: C_18  and  C_19
REMARK                            x       y       z     vdW  Elec       q    Type
REMARK                         _______ _______ _______ _____ _____    ______ ____
ROOT
ATOM      1  C   UNL     1      47.329   3.391  17.167  0.00  0.00    +0.000 C 
ENDROOT
BRANCH   1   2
ATOM      2  C   UNL     1      48.815   3.279  17.404  0.00  0.00    +0.000 A 
ATOM      3  C   UNL     1      49.518   2.129  17.032  0.00  0.00    +0.000 A 
ATOM      4  C   UNL     1      50.911   2.058  17.189  0.00  0.00    +0.000 A 
ATOM      5  C   UNL     1      51.631   3.129  17.725  0.00  0.00    +0.000 A 
ATOM      6  C   UNL     1      50.905   4.232  18.191  0.00  0.00    +0.000 A 
ATOM      7  C   UNL     1      49.519   4.316  18.024  0.00  0.00    +0.000 A 
BRANCH   5   8
ATOM      8  N   UNL     1      53.019   3.157  17.884  0.00  0.00    +0.000 N 
ATOM      9  H   UNL     1      53.357   4.118  17.927  0.00  0.00    +0.000 HD
BRANCH   8  10
ATOM     10  C   UNL     1      53.646   2.334  18.926  0.00  0.00    +0.000 C 
BRANCH  10  11
ATOM     11  C   UNL     1      54.127   1.027  18.299  0.00  0.00    +0.000 C 
ATOM     12  N   UNL     1      54.022  -0.123  18.919  0.00  0.00    +0.000 NA
ATOM     13  C   UNL     1      54.598  -1.101  17.948  0.00  0.00    +0.000 C 
ATOM     14  C   UNL     1      54.639  -0.385  16.593  0.00  0.00    +0.000 C 
ATOM     15  N   UNL     1      54.654   0.990  17.025  0.00  0.00    +0.000 N 
ATOM     16  H   UNL     1      54.325   1.716  16.396  0.00  0.00    +0.000 HD
ENDBRANCH  10  11
ENDBRANCH   8  10
ENDBRANCH   5   8
ENDBRANCH   1   2
BRANCH   1  19
ATOM     17  C   UNL     1      47.185   4.218  14.863  0.00  0.00    +0.000 C 
ATOM     18  O   UNL     1      47.412   3.110  14.388  0.00  0.00    +0.000 OA
ATOM     19  N   UNL     1      47.030   4.426  16.212  0.00  0.00    +0.000 N 
ATOM     20  H   UNL     1      47.072   5.375  16.563  0.00  0.00    +0.000 HD
BRANCH  17  28
ATOM     21  C   UNL     1      42.528   5.131  11.709  0.00  0.00    +0.000 C 
ATOM     22  N   UNL     1      43.806   5.747  11.997  0.00  0.00    +0.000 N 
ATOM     23  C   UNL     1      44.180   6.923  11.385  0.00  0.00    +0.000 A 
ATOM     24  N   UNL     1      45.298   7.549  11.580  0.00  0.00    +0.000 NA
ATOM     25  C   UNL     1      46.129   6.951  12.470  0.00  0.00    +0.000 A 
ATOM     26  S   UNL     1      47.626   7.649  12.877  0.00  0.00    +0.000 S 
ATOM     27  C   UNL     1      47.985   6.383  13.966  0.00  0.00    +0.000 A 
ATOM     28  C   UNL     1      47.007   5.399  14.009  0.00  0.00    +0.000 A 
ATOM     29  C   UNL     1      45.908   5.767  13.146  0.00  0.00    +0.000 A 
ATOM     30  C   UNL     1      44.638   5.103  12.906  0.00  0.00    +0.000 A 
ATOM     31  O   UNL     1      44.334   4.047  13.454  0.00  0.00    +0.000 OA
ENDBRANCH  17  28
ENDBRANCH   1  19
TORSDOF 6
ENDMDL
MODEL 2
REMARK VINA RESULT:    -7.311      3.747      8.763
REMARK INTER + INTRA:         -10.654
REMARK INTER:                  -9.688
REMARK INTRA:                  -0.966
REMARK UNBOUND:                -0.779
REMARK  Name = 
REMARK  7 active torsions:
REMARK  status: ('A' for Active; 'I' for Inactive)
REMARK    1  A    between atoms: C_1  and  N_2
REMARK    2  A    between atoms: C_8  and  C_9
REMARK    3  A    between atoms: N_11  and  C_12
REMARK    4  A    between atoms: C_12  and  C_13
REMARK    5  A    between atoms: C_16  and  N_17
REMARK    6  A    between atoms: N_17  and  C_18
REMARK    7  A    between atoms: C_18  and  C_19
REMARK                            x       y       z     vdW  Elec       q    Type
REMARK                         _______ _______ _______ _____ _____    ______ ____
ROOT
ATOM      1  C   UNL     1      47.026   7.268  13.222  0.00  0.00    +0.000 C 
ENDROOT
BRANCH   1   2
ATOM      2  C   UNL     1      46.356   6.104  12.535  0.00  0.00    +0.000 A 
ATOM      3  C   UNL     1      45.825   6.238  11.248  0.00  0.00    +0.000 A 
ATOM      4  C   UNL     1      45.268   5.133  10.584  0.00  0.00    +0.000 A 
ATOM      5  C   UNL     1      45.222   3.875  11.190  0.00  0.00    +0.000 A 
ATOM      6  C   UNL     1      45.660   3.778  12.517  0.00  0.00    +0.000 A 
ATOM      7  C   UNL     1      46.231   4.870  13.180  0.00  0.00    +0.000 A 
BRANCH   5   8
ATOM      8  N   UNL     1      44.719   2.719  10.591  0.00  0.00    +0.000 N 
ATOM      9  H   UNL     1      43.950   2.334  11.139  0.00  0.00    +0.000 HD
BRANCH   8  10
ATOM     10  C   UNL     1      44.389   2.729   9.160  0.00  0.00    +0.000 C 
BRANCH  10  11
ATOM     11  C   UNL     1      45.613   2.273   8.368  0.00  0.00    +0.000 C 
ATOM     12  N   UNL     1      46.007   1.022   8.353  0.00  0.00    +0.000 NA
ATOM     13  C   UNL     1      47.205   1.042   7.462  0.00  0.00    +0.000 C 
ATOM     14  C   UNL     1      47.147   2.367   6.694  0.00  0.00    +0.000 C 
ATOM     15  N   UNL     1      46.336   3.152   7.590  0.00  0.00    +0.000 N 
ATOM     16  H   UNL     1      45.814   3.945   7.227  0.00  0.00    +0.000 HD
ENDBRANCH  10  11
ENDBRANCH   8  10
ENDBRANCH   5   8
ENDBRANCH   1   2
BRANCH   1  19
ATOM     17  C   UNL     1      48.731   7.684  14.933  0.00  0.00    +0.000 C 
ATOM     18  O   UNL     1      48.301   8.808  15.174  0.00  0.00    +0.000 OA
ATOM     19  N   UNL     1      48.107   6.825  14.062  0.00  0.00    +0.000 N 
ATOM     20  H   UNL     1      48.618   6.015  13.732  0.00  0.00    +0.000 HD
BRANCH  17  28
ATOM     21  C   UNL     1      48.615   3.192  18.437  0.00  0.00    +0.000 C 
ATOM     22  N   UNL     1      49.555   4.156  17.907  0.00  0.00    +0.000 N 
ATOM     23  C   UNL     1      50.880   4.132  18.282  0.00  0.00    +0.000 A 
ATOM     24  N   UNL     1      51.794   4.949  17.861  0.00  0.00    +0.000 NA
ATOM     25  C   UNL     1      51.352   5.883  16.983  0.00  0.00    +0.000 A 
ATOM     26  S   UNL     1      52.420   7.018  16.297  0.00  0.00    +0.000 S 
ATOM     27  C   UNL     1      51.166   7.731  15.384  0.00  0.00    +0.000 A 
ATOM     28  C   UNL     1      49.923   7.156  15.609  0.00  0.00    +0.000 A 
ATOM     29  C   UNL     1      50.059   6.050  16.529  0.00  0.00    +0.000 A 
ATOM     30  C   UNL     1      49.067   5.106  17.018  0.00  0.00    +0.000 A 
ATOM     31  O   UNL     1      47.888   5.158  16.680  0.00  0.00    +0.000 OA
ENDBRANCH  17  28
ENDBRANCH   1  19
TORSDOF 6
ENDMDL
MODEL 3
REMARK VINA RESULT:    -7.227      4.653      9.045
REMARK INTER + INTRA:         -10.541
REMARK INTER:                  -9.565
REMARK INTRA:                  -0.976
REMARK UNBOUND:                -0.779
REMARK  Name = 
REMARK  7 active torsions:
REMARK  status: ('A' for Active; 'I' for Inactive)
REMARK    1  A    between atoms: C_1  and  N_2
REMARK    2  A    between atoms: C_8  and  C_9
REMARK    3  A    between atoms: N_11  and  C_12
REMARK    4  A    between atoms: C_12  and  C_13
REMARK    5  A    between atoms: C_16  and  N_17
REMARK    6  A    between atoms: N_17  and  C_18
REMARK    7  A    between atoms: C_18  and  C_19
REMARK                            x       y       z     vdW  Elec       q    Type
REMARK                         _______ _______ _______ _____ _____    ______ ____
ROOT
ATOM      1  C   UNL     1      48.101   7.217  13.829  0.00  0.00    +0.000 C 
ENDROOT
BRANCH   1   2
ATOM      2  C   UNL     1      47.093   6.432  13.028  0.00  0.00    +0.000 A 
ATOM      3  C   UNL     1      46.646   6.893  11.785  0.00  0.00    +0.000 A 
ATOM      4  C   UNL     1      45.763   6.124  11.011  0.00  0.00    +0.000 A 
ATOM      5  C   UNL     1      45.302   4.884  11.461  0.00  0.00    +0.000 A 
ATOM      6  C   UNL     1      45.672   4.483  12.750  0.00  0.00    +0.000 A 
ATOM      7  C   UNL     1      46.564   5.235  13.521  0.00  0.00    +0.000 A 
BRANCH   5   8
ATOM      8  N   UNL     1      44.452   4.041  10.742  0.00  0.00    +0.000 N 
ATOM      9  H   UNL     1      43.583   3.884  11.252  0.00  0.00    +0.000 HD
BRANCH   8  10
ATOM     10  C   UNL     1      44.183   4.319   9.325  0.00  0.00    +0.000 C 
BRANCH  10  11
ATOM     11  C   UNL     1      45.126   3.477   8.469  0.00  0.00    +0.000 C 
ATOM     12  N   UNL     1      45.913   4.011   7.567  0.00  0.00    +0.000 NA
ATOM     13  C   UNL     1      46.644   2.839   6.998  0.00  0.00    +0.000 C 
ATOM     14  C   UNL     1      46.443   1.687   7.988  0.00  0.00    +0.000 C 
ATOM     15  N   UNL     1      45.229   2.112   8.640  0.00  0.00    +0.000 N 
ATOM     16  H   UNL     1      45.017   1.772   9.573  0.00  0.00    +0.000 HD
ENDBRANCH  10  11
ENDBRANCH   8  10
ENDBRANCH   5   8
ENDBRANCH   1   2
BRANCH   1  19
ATOM     17  C   UNL     1      49.123   6.523  15.947  0.00  0.00    +0.000 C 
ATOM     18  O   UNL     1      50.260   6.601  15.493  0.00  0.00    +0.000 OA
ATOM     19  N   UNL     1      48.014   6.900  15.230  0.00  0.00    +0.000 N 
ATOM     20  H   UNL     1      47.103   6.607  15.560  0.00  0.00    +0.000 HD
BRANCH  17  28
ATOM     21  C   UNL     1      46.972   9.881  20.017  0.00  0.00    +0.000 C 
ATOM     22  N   UNL     1      47.447   8.526  19.839  0.00  0.00    +0.000 N 
ATOM     23  C   UNL     1      47.471   7.640  20.894  0.00  0.00    +0.000 A 
ATOM     24  N   UNL     1      47.875   6.410  20.832  0.00  0.00    +0.000 NA
ATOM     25  C   UNL     1      48.298   6.018  19.604  0.00  0.00    +0.000 A 
ATOM     26  S   UNL     1      48.830   4.425  19.327  0.00  0.00    +0.000 S 
ATOM     27  C   UNL     1      49.129   4.752  17.678  0.00  0.00    +0.000 A 
ATOM     28  C   UNL     1      48.874   6.068  17.321  0.00  0.00    +0.000 A 
ATOM     29  C   UNL     1      48.355   6.789  18.461  0.00  0.00    +0.000 A 
ATOM     30  C   UNL     1      47.883   8.159  18.571  0.00  0.00    +0.000 A 
ATOM     31  O   UNL     1      47.885   8.935  17.619  0.00  0.00    +0.000 OA
ENDBRANCH  17  28
ENDBRANCH   1  19
TORSDOF 6
ENDMDL
MODEL 4
REMARK VINA RESULT:    -7.198      4.020      8.714
REMARK INTER + INTRA:         -10.502
REMARK INTER:                  -9.543
REMARK INTRA:                  -0.959
REMARK UNBOUND:                -0.779
REMARK  Name = 
REMARK  7 active torsions:
REMARK  status: ('A' for Active; 'I' for Inactive)
REMARK    1  A    between atoms: C_1  and  N_2
REMARK    2  A    between atoms: C_8  and  C_9
REMARK    3  A    between atoms: N_11  and  C_12
REMARK    4  A    between atoms: C_12  and  C_13
REMARK    5  A    between atoms: C_16  and  N_17
REMARK    6  A    between atoms: N_17  and  C_18
REMARK    7  A    between atoms: C_18  and  C_19
REMARK                            x       y       z     vdW  Elec       q    Type
REMARK                         _______ _______ _______ _____ _____    ______ ____
ROOT
ATOM      1  C   UNL     1      47.435   7.671  13.406  0.00  0.00    +0.000 C 
ENDROOT
BRANCH   1   2
ATOM      2  C   UNL     1      46.597   6.431  13.215  0.00  0.00    +0.000 A 
ATOM      3  C   UNL     1      45.233   6.523  12.922  0.00  0.00    +0.000 A 
ATOM      4  C   UNL     1      44.474   5.369  12.674  0.00  0.00    +0.000 A 
ATOM      5  C   UNL     1      45.056   4.099  12.719  0.00  0.00    +0.000 A 
ATOM      6  C   UNL     1      46.396   4.013  13.116  0.00  0.00    +0.000 A 
ATOM      7  C   UNL     1      47.163   5.160  13.349  0.00  0.00    +0.000 A 
BRANCH   5   8
ATOM      8  N   UNL     1      44.385   2.904  12.451  0.00  0.00    +0.000 N 
ATOM      9  H   UNL     1      43.991   2.513  13.307  0.00  0.00    +0.000 HD
BRANCH   8  10
ATOM     10  C   UNL     1      43.411   2.850  11.354  0.00  0.00    +0.000 C 
BRANCH  10  11
ATOM     11  C   UNL     1      44.162   2.892  10.025  0.00  0.00    +0.000 C 
ATOM     12  N   UNL     1      44.265   3.992   9.317  0.00  0.00    +0.000 NA
ATOM     13  C   UNL     1      45.073   3.574   8.133  0.00  0.00    +0.000 C 
ATOM     14  C   UNL     1      45.722   2.236   8.507  0.00  0.00    +0.000 C 
ATOM     15  N   UNL     1      44.811   1.782   9.528  0.00  0.00    +0.000 N 
ATOM     16  H   UNL     1      45.133   1.117  10.225  0.00  0.00    +0.000 HD
ENDBRANCH  10  11
ENDBRANCH   8  10
ENDBRANCH   5   8
ENDBRANCH   1   2
BRANCH   1  19
ATOM     17  C   UNL     1      49.196   7.784  15.107  0.00  0.00    +0.000 C 
ATOM     18  O   UNL     1      50.089   7.827  14.267  0.00  0.00    +0.000 OA
ATOM     19  N   UNL     1      47.864   7.805  14.773  0.00  0.00    +0.000 N 
ATOM     20  H   UNL     1      47.185   7.542  15.476  0.00  0.00    +0.000 HD
BRANCH  17  28
ATOM     21  C   UNL     1      48.478   3.180  18.387  0.00  0.00    +0.000 C 
ATOM     22  N   UNL     1      48.906   4.558  18.496  0.00  0.00    +0.000 N 
ATOM     23  C   UNL     1      49.273   5.093  19.711  0.00  0.00    +0.000 A 
ATOM     24  N   UNL     1      49.671   6.310  19.907  0.00  0.00    +0.000 NA
ATOM     25  C   UNL     1      49.709   7.076  18.789  0.00  0.00    +0.000 A 
ATOM     26  S   UNL     1      50.240   8.692  18.849  0.00  0.00    +0.000 S 
ATOM     27  C   UNL     1      50.011   8.890  17.169  0.00  0.00    +0.000 A 
ATOM     28  C   UNL     1      49.495   7.763  16.546  0.00  0.00    +0.000 A 
ATOM     29  C   UNL     1      49.354   6.695  17.510  0.00  0.00    +0.000 A 
ATOM     30  C   UNL     1      48.923   5.319  17.332  0.00  0.00    +0.000 A 
ATOM     31  O   UNL     1      48.586   4.871  16.240  0.00  0.00    +0.000 OA
ENDBRANCH  17  28
ENDBRANCH   1  19
TORSDOF 6
ENDMDL
MODEL 5
REMARK VINA RESULT:    -7.067      4.462      8.966
REMARK INTER + INTRA:         -10.325
REMARK INTER:                  -9.447
REMARK INTRA:                  -0.878
REMARK UNBOUND:                -0.779
REMARK  Name = 
REMARK  7 active torsions:
REMARK  status: ('A' for Active; 'I' for Inactive)
REMARK    1  A    between atoms: C_1  and  N_2
REMARK    2  A    between atoms: C_8  and  C_9
REMARK    3  A    between atoms: N_11  and  C_12
REMARK    4  A    between atoms: C_12  and  C_13
REMARK    5  A    between atoms: C_16  and  N_17
REMARK    6  A    between atoms: N_17  and  C_18
REMARK    7  A    between atoms: C_18  and  C_19
REMARK                            x       y       z     vdW  Elec       q    Type
REMARK                         _______ _______ _______ _____ _____    ______ ____
ROOT
ATOM      1  C   UNL     1      45.030   6.108  13.181  0.00  0.00    +0.000 C 
ENDROOT
BRANCH   1   2
ATOM      2  C   UNL     1      44.833   5.214  11.982  0.00  0.00    +0.000 A 
ATOM      3  C   UNL     1      45.343   5.568  10.729  0.00  0.00    +0.000 A 
ATOM      4  C   UNL     1      45.221   4.699   9.634  0.00  0.00    +0.000 A 
ATOM      5  C   UNL     1      44.581   3.463   9.762  0.00  0.00    +0.000 A 
ATOM      6  C   UNL     1      43.983   3.166  10.993  0.00  0.00    +0.000 A 
ATOM      7  C   UNL     1      44.114   4.020  12.093  0.00  0.00    +0.000 A 
BRANCH   5   8
ATOM      8  N   UNL     1      44.446   2.525   8.737  0.00  0.00    +0.000 N 
ATOM      9  H   UNL     1      44.224   2.985   7.854  0.00  0.00    +0.000 HD
BRANCH   8  10
ATOM     10  C   UNL     1      45.483   1.503   8.547  0.00  0.00    +0.000 C 
BRANCH  10  11
ATOM     11  C   UNL     1      46.423   1.954   7.432  0.00  0.00    +0.000 C 
ATOM     12  N   UNL     1      47.540   1.322   7.164  0.00  0.00    +0.000 NA
ATOM     13  C   UNL     1      48.114   2.091   6.019  0.00  0.00    +0.000 C 
ATOM     14  C   UNL     1      46.970   2.946   5.461  0.00  0.00    +0.000 C 
ATOM     15  N   UNL     1      46.115   3.024   6.619  0.00  0.00    +0.000 N 
ATOM     16  H   UNL     1      45.124   3.208   6.496  0.00  0.00    +0.000 HD
ENDBRANCH  10  11
ENDBRANCH   8  10
ENDBRANCH   5   8
ENDBRANCH   1   2
BRANCH   1  19
ATOM     17  C   UNL     1      46.620   7.973  13.137  0.00  0.00    +0.000 C 
ATOM     18  O   UNL     1      45.728   8.814  13.181  0.00  0.00    +0.000 OA
ATOM     19  N   UNL     1      46.371   6.625  13.231  0.00  0.00    +0.000 N 
ATOM     20  H   UNL     1      47.104   5.979  12.965  0.00  0.00    +0.000 HD
BRANCH  17  28
ATOM     21  C   UNL     1      50.616   6.228  16.806  0.00  0.00    +0.000 C 
ATOM     22  N   UNL     1      50.483   7.061  15.630  0.00  0.00    +0.000 N 
ATOM     23  C   UNL     1      51.569   7.733  15.112  0.00  0.00    +0.000 A 
ATOM     24  N   UNL     1      51.550   8.498  14.066  0.00  0.00    +0.000 NA
ATOM     25  C   UNL     1      50.335   8.608  13.473  0.00  0.00    +0.000 A 
ATOM     26  S   UNL     1      50.127   9.542  12.065  0.00  0.00    +0.000 S 
ATOM     27  C   UNL     1      48.466   9.157  11.986  0.00  0.00    +0.000 A 
ATOM     28  C   UNL     1      48.034   8.357  13.034  0.00  0.00    +0.000 A 
ATOM     29  C   UNL     1      49.155   8.019  13.881  0.00  0.00    +0.000 A 
ATOM     30  C   UNL     1      49.223   7.162  15.053  0.00  0.00    +0.000 A 
ATOM     31  O   UNL     1      48.237   6.585  15.504  0.00  0.00    +0.000 OA
ENDBRANCH  17  28
ENDBRANCH   1  19
TORSDOF 6
ENDMDL
MODEL 6
REMARK VINA RESULT:    -7.007      5.105      8.711
REMARK INTER + INTRA:         -10.244
REMARK INTER:                  -9.227
REMARK INTRA:                  -1.016
REMARK UNBOUND:                -0.779
REMARK  Name = 
REMARK  7 active torsions:
REMARK  status: ('A' for Active; 'I' for Inactive)
REMARK    1  A    between atoms: C_1  and  N_2
REMARK    2  A    between atoms: C_8  and  C_9
REMARK    3  A    between atoms: N_11  and  C_12
REMARK    4  A    between atoms: C_12  and  C_13
REMARK    5  A    between atoms: C_16  and  N_17
REMARK    6  A    between atoms: N_17  and  C_18
REMARK    7  A    between atoms: C_18  and  C_19
REMARK                            x       y       z     vdW  Elec       q    Type
REMARK                         _______ _______ _______ _____ _____    ______ ____
ROOT
ATOM      1  C   UNL     1      46.690   4.757  14.477  0.00  0.00    +0.000 C 
ENDROOT
BRANCH   1   2
ATOM      2  C   UNL     1      46.163   4.818  13.065  0.00  0.00    +0.000 A 
ATOM      3  C   UNL     1      46.396   5.937  12.258  0.00  0.00    +0.000 A 
ATOM      4  C   UNL     1      45.966   5.959  10.921  0.00  0.00    +0.000 A 
ATOM      5  C   UNL     1      45.290   4.871  10.364  0.00  0.00    +0.000 A 
ATOM      6  C   UNL     1      44.970   3.802  11.210  0.00  0.00    +0.000 A 
ATOM      7  C   UNL     1      45.408   3.766  12.538  0.00  0.00    +0.000 A 
BRANCH   5   8
ATOM      8  N   UNL     1      44.859   4.794   9.038  0.00  0.00    +0.000 N 
ATOM      9  H   UNL     1      45.474   5.331   8.427  0.00  0.00    +0.000 HD
BRANCH   8  10
ATOM     10  C   UNL     1      44.551   3.484   8.450  0.00  0.00    +0.000 C 
BRANCH  10  11
ATOM     11  C   UNL     1      45.756   3.013   7.639  0.00  0.00    +0.000 C 
ATOM     12  N   UNL     1      46.388   3.804   6.806  0.00  0.00    +0.000 NA
ATOM     13  C   UNL     1      47.477   2.941   6.258  0.00  0.00    +0.000 C 
ATOM     14  C   UNL     1      47.588   1.739   7.203  0.00  0.00    +0.000 C 
ATOM     15  N   UNL     1      46.267   1.740   7.781  0.00  0.00    +0.000 N 
ATOM     16  H   UNL     1      46.119   1.310   8.689  0.00  0.00    +0.000 HD
ENDBRANCH  10  11
ENDBRANCH   8  10
ENDBRANCH   5   8
ENDBRANCH   1   2
BRANCH   1  19
ATOM     17  C   UNL     1      48.440   5.890  15.766  0.00  0.00    +0.000 C 
ATOM     18  O   UNL     1      48.812   4.847  16.292  0.00  0.00    +0.000 OA
ATOM     19  N   UNL     1      47.471   5.923  14.793  0.00  0.00    +0.000 N 
ATOM     20  H   UNL     1      47.048   6.814  14.561  0.00  0.00    +0.000 HD
BRANCH  17  28
ATOM     21  C   UNL     1      50.981   9.263  11.940  0.00  0.00    +0.000 C 
ATOM     22  N   UNL     1      50.692   9.222  13.358  0.00  0.00    +0.000 N 
ATOM     23  C   UNL     1      51.111  10.232  14.196  0.00  0.00    +0.000 A 
ATOM     24  N   UNL     1      50.899  10.284  15.473  0.00  0.00    +0.000 NA
ATOM     25  C   UNL     1      50.204   9.231  15.971  0.00  0.00    +0.000 A 
ATOM     26  S   UNL     1      49.802   9.148  17.623  0.00  0.00    +0.000 S 
ATOM     27  C   UNL     1      48.994   7.659  17.409  0.00  0.00    +0.000 A 
ATOM     28  C   UNL     1      49.048   7.183  16.107  0.00  0.00    +0.000 A 
ATOM     29  C   UNL     1      49.737   8.138  15.269  0.00  0.00    +0.000 A 
ATOM     30  C   UNL     1      49.987   8.124  13.837  0.00  0.00    +0.000 A 
ATOM     31  O   UNL     1      49.616   7.203  13.114  0.00  0.00    +0.000 OA
ENDBRANCH  17  28
ENDBRANCH   1  19
TORSDOF 6
ENDMDL
MODEL 7
REMARK VINA RESULT:    -6.889      3.778      5.965
REMARK INTER + INTRA:         -10.084
REMARK INTER:                  -9.040
REMARK INTRA:                  -1.044
REMARK UNBOUND:                -0.779
REMARK  Name = 
REMARK  7 active torsions:
REMARK  status: ('A' for Active; 'I' for Inactive)
REMARK    1  A    between atoms: C_1  and  N_2
REMARK    2  A    between atoms: C_8  and  C_9
REMARK    3  A    between atoms: N_11  and  C_12
REMARK    4  A    between atoms: C_12  and  C_13
REMARK    5  A    between atoms: C_16  and  N_17
REMARK    6  A    between atoms: N_17  and  C_18
REMARK    7  A    between atoms: C_18  and  C_19
REMARK                            x       y       z     vdW  Elec       q    Type
REMARK                         _______ _______ _______ _____ _____    ______ ____
ROOT
ATOM      1  C   UNL     1      47.215   8.053  12.026  0.00  0.00    +0.000 C 
ENDROOT
BRANCH   1   2
ATOM      2  C   UNL     1      47.922   7.999  13.357  0.00  0.00    +0.000 A 
ATOM      3  C   UNL     1      47.619   8.915  14.371  0.00  0.00    +0.000 A 
ATOM      4  C   UNL     1      48.226   8.815  15.632  0.00  0.00    +0.000 A 
ATOM      5  C   UNL     1      49.153   7.806  15.908  0.00  0.00    +0.000 A 
ATOM      6  C   UNL     1      49.527   6.962  14.856  0.00  0.00    +0.000 A 
ATOM      7  C   UNL     1      48.914   7.044  13.601  0.00  0.00    +0.000 A 
BRANCH   5   8
ATOM      8  N   UNL     1      49.778   7.613  17.142  0.00  0.00    +0.000 N 
ATOM      9  H   UNL     1      50.330   8.432  17.399  0.00  0.00    +0.000 HD
BRANCH   8  10
ATOM     10  C   UNL     1      48.990   7.134  18.286  0.00  0.00    +0.000 C 
BRANCH  10  11
ATOM     11  C   UNL     1      48.706   5.646  18.099  0.00  0.00    +0.000 C 
ATOM     12  N   UNL     1      47.505   5.195  17.824  0.00  0.00    +0.000 NA
ATOM     13  C   UNL     1      47.699   3.717  17.721  0.00  0.00    +0.000 C 
ATOM     14  C   UNL     1      49.207   3.492  17.571  0.00  0.00    +0.000 C 
ATOM     15  N   UNL     1      49.712   4.705  18.164  0.00  0.00    +0.000 N 
ATOM     16  H   UNL     1      50.637   5.039  17.909  0.00  0.00    +0.000 HD
ENDBRANCH  10  11
ENDBRANCH   8  10
ENDBRANCH   5   8
ENDBRANCH   1   2
BRANCH   1  19
ATOM     17  C   UNL     1      45.251   6.686  11.496  0.00  0.00    +0.000 C 
ATOM     18  O   UNL     1      44.522   7.667  11.393  0.00  0.00    +0.000 OA
ATOM     19  N   UNL     1      46.604   6.790  11.708  0.00  0.00    +0.000 N 
ATOM     20  H   UNL     1      47.112   5.967  12.008  0.00  0.00    +0.000 HD
BRANCH  17  28
ATOM     21  C   UNL     1      46.260   3.435   6.926  0.00  0.00    +0.000 C 
ATOM     22  N   UNL     1      45.545   3.383   8.183  0.00  0.00    +0.000 N 
ATOM     23  C   UNL     1      44.807   2.273   8.533  0.00  0.00    +0.000 A 
ATOM     24  N   UNL     1      44.137   2.133   9.634  0.00  0.00    +0.000 NA
ATOM     25  C   UNL     1      44.204   3.197  10.472  0.00  0.00    +0.000 A 
ATOM     26  S   UNL     1      43.416   3.177  11.980  0.00  0.00    +0.000 S 
ATOM     27  C   UNL     1      43.978   4.744  12.359  0.00  0.00    +0.000 A 
ATOM     28  C   UNL     1      44.730   5.321  11.345  0.00  0.00    +0.000 A 
ATOM     29  C   UNL     1      44.879   4.382  10.256  0.00  0.00    +0.000 A 
ATOM     30  C   UNL     1      45.625   4.494   9.014  0.00  0.00    +0.000 A 
ATOM     31  O   UNL     1      46.264   5.501   8.719  0.00  0.00    +0.000 OA
ENDBRANCH  17  28
ENDBRANCH   1  19
TORSDOF 6
ENDMDL
MODEL 8
REMARK VINA RESULT:    -6.725      1.871      2.982
REMARK INTER + INTRA:          -9.862
REMARK INTER:                  -8.874
REMARK INTRA:                  -0.989
REMARK UNBOUND:                -0.779
REMARK  Name = 
REMARK  7 active torsions:
REMARK  status: ('A' for Active; 'I' for Inactive)
REMARK    1  A    between atoms: C_1  and  N_2
REMARK    2  A    between atoms: C_8  and  C_9
REMARK    3  A    between atoms: N_11  and  C_12
REMARK    4  A    between atoms: C_12  and  C_13
REMARK    5  A    between atoms: C_16  and  N_17
REMARK    6  A    between atoms: N_17  and  C_18
REMARK    7  A    between atoms: C_18  and  C_19
REMARK                            x       y       z     vdW  Elec       q    Type
REMARK                         _______ _______ _______ _____ _____    ______ ____
ROOT
ATOM      1  C   UNL     1      47.265   3.343  17.135  0.00  0.00    +0.000 C 
ENDROOT
BRANCH   1   2
ATOM      2  C   UNL     1      48.706   3.394  17.579  0.00  0.00    +0.000 A 
ATOM      3  C   UNL     1      49.637   2.462  17.109  0.00  0.00    +0.000 A 
ATOM      4  C   UNL     1      50.991   2.557  17.468  0.00  0.00    +0.000 A 
ATOM      5  C   UNL     1      51.443   3.579  18.307  0.00  0.00    +0.000 A 
ATOM      6  C   UNL     1      50.487   4.442  18.854  0.00  0.00    +0.000 A 
ATOM      7  C   UNL     1      49.138   4.363  18.489  0.00  0.00    +0.000 A 
BRANCH   5   8
ATOM      8  N   UNL     1      52.774   3.768  18.686  0.00  0.00    +0.000 N 
ATOM      9  H   UNL     1      53.103   2.986  19.252  0.00  0.00    +0.000 HD
BRANCH   8  10
ATOM     10  C   UNL     1      53.771   4.136  17.672  0.00  0.00    +0.000 C 
BRANCH  10  11
ATOM     11  C   UNL     1      53.715   5.646  17.450  0.00  0.00    +0.000 C 
ATOM     12  N   UNL     1      54.285   6.493  18.273  0.00  0.00    +0.000 NA
ATOM     13  C   UNL     1      53.988   7.826  17.667  0.00  0.00    +0.000 C 
ATOM     14  C   UNL     1      53.551   7.553  16.224  0.00  0.00    +0.000 C 
ATOM     15  N   UNL     1      53.099   6.189  16.342  0.00  0.00    +0.000 N 
ATOM     16  H   UNL     1      53.082   5.595  15.518  0.00  0.00    +0.000 HD
ENDBRANCH  10  11
ENDBRANCH   8  10
ENDBRANCH   5   8
ENDBRANCH   1   2
BRANCH   1  19
ATOM     17  C   UNL     1      47.168   4.188  14.836  0.00  0.00    +0.000 C 
ATOM     18  O   UNL     1      47.423   3.087  14.357  0.00  0.00    +0.000 OA
ATOM     19  N   UNL     1      46.976   4.381  16.182  0.00  0.00    +0.000 N 
ATOM     20  H   UNL     1      46.994   5.328  16.542  0.00  0.00    +0.000 HD
BRANCH  17  28
ATOM     21  C   UNL     1      42.481   5.177  11.750  0.00  0.00    +0.000 C 
ATOM     22  N   UNL     1      43.771   5.774  12.022  0.00  0.00    +0.000 N 
ATOM     23  C   UNL     1      44.153   6.946  11.408  0.00  0.00    +0.000 A 
ATOM     24  N   UNL     1      45.283   7.555  11.589  0.00  0.00    +0.000 NA
ATOM     25  C   UNL     1      46.117   6.943  12.465  0.00  0.00    +0.000 A 
ATOM     26  S   UNL     1      47.630   7.618  12.854  0.00  0.00    +0.000 S 
ATOM     27  C   UNL     1      47.986   6.344  13.933  0.00  0.00    +0.000 A 
ATOM     28  C   UNL     1      46.995   5.374  13.987  0.00  0.00    +0.000 A 
ATOM     29  C   UNL     1      45.889   5.761  13.141  0.00  0.00    +0.000 A 
ATOM     30  C   UNL     1      44.607   5.115  12.917  0.00  0.00    +0.000 A 
ATOM     31  O   UNL     1      44.295   4.062  13.466  0.00  0.00    +0.000 OA
ENDBRANCH  17  28
ENDBRANCH   1  19
TORSDOF 6
ENDMDL
MODEL 9
REMARK VINA RESULT:    -6.715      6.747      7.884
REMARK INTER + INTRA:          -9.849
REMARK INTER:                  -8.963
REMARK INTRA:                  -0.885
REMARK UNBOUND:                -0.779
REMARK  Name = 
REMARK  7 active torsions:
REMARK  status: ('A' for Active; 'I' for Inactive)
REMARK    1  A    between atoms: C_1  and  N_2
REMARK    2  A    between atoms: C_8  and  C_9
REMARK    3  A    between atoms: N_11  and  C_12
REMARK    4  A    between atoms: C_12  and  C_13
REMARK    5  A    between atoms: C_16  and  N_17
REMARK    6  A    between atoms: N_17  and  C_18
REMARK    7  A    between atoms: C_18  and  C_19
REMARK                            x       y       z     vdW  Elec       q    Type
REMARK                         _______ _______ _______ _____ _____    ______ ____
ROOT
ATOM      1  C   UNL     1      46.791   8.178  12.593  0.00  0.00    +0.000 C 
ENDROOT
BRANCH   1   2
ATOM      2  C   UNL     1      48.191   8.408  12.082  0.00  0.00    +0.000 A 
ATOM      3  C   UNL     1      48.617   9.684  11.700  0.00  0.00    +0.000 A 
ATOM      4  C   UNL     1      49.942   9.906  11.293  0.00  0.00    +0.000 A 
ATOM      5  C   UNL     1      50.868   8.861  11.253  0.00  0.00    +0.000 A 
ATOM      6  C   UNL     1      50.404   7.571  11.536  0.00  0.00    +0.000 A 
ATOM      7  C   UNL     1      49.089   7.344  11.957  0.00  0.00    +0.000 A 
BRANCH   5   8
ATOM      8  N   UNL     1      52.211   8.998  10.896  0.00  0.00    +0.000 N 
ATOM      9  H   UNL     1      52.763   8.223  11.262  0.00  0.00    +0.000 HD
BRANCH   8  10
ATOM     10  C   UNL     1      52.564   9.278   9.498  0.00  0.00    +0.000 C 
BRANCH  10  11
ATOM     11  C   UNL     1      52.915   7.963   8.805  0.00  0.00    +0.000 C 
ATOM     12  N   UNL     1      53.369   6.926   9.467  0.00  0.00    +0.000 NA
ATOM     13  C   UNL     1      53.559   5.888   8.410  0.00  0.00    +0.000 C 
ATOM     14  C   UNL     1      52.767   6.371   7.189  0.00  0.00    +0.000 C 
ATOM     15  N   UNL     1      52.723   7.788   7.451  0.00  0.00    +0.000 N 
ATOM     16  H   UNL     1      51.983   8.349   7.039  0.00  0.00    +0.000 HD
ENDBRANCH  10  11
ENDBRANCH   8  10
ENDBRANCH   5   8
ENDBRANCH   1   2
BRANCH   1  19
ATOM     17  C   UNL     1      45.108   6.721  11.566  0.00  0.00    +0.000 C 
ATOM     18  O   UNL     1      44.475   7.670  11.115  0.00  0.00    +0.000 OA
ATOM     19  N   UNL     1      46.306   6.876  12.219  0.00  0.00    +0.000 N 
ATOM     20  H   UNL     1      46.666   6.099  12.761  0.00  0.00    +0.000 HD
BRANCH  17  28
ATOM     21  C   UNL     1      46.294   3.592   6.954  0.00  0.00    +0.000 C 
ATOM     22  N   UNL     1      45.572   3.488   8.204  0.00  0.00    +0.000 N 
ATOM     23  C   UNL     1      44.882   2.342   8.531  0.00  0.00    +0.000 A 
ATOM     24  N   UNL     1      44.211   2.154   9.623  0.00  0.00    +0.000 NA
ATOM     25  C   UNL     1      44.224   3.207  10.479  0.00  0.00    +0.000 A 
ATOM     26  S   UNL     1      43.426   3.128  11.980  0.00  0.00    +0.000 S 
ATOM     27  C   UNL     1      43.916   4.711  12.388  0.00  0.00    +0.000 A 
ATOM     28  C   UNL     1      44.649   5.337  11.390  0.00  0.00    +0.000 A 
ATOM     29  C   UNL     1      44.847   4.424  10.287  0.00  0.00    +0.000 A 
ATOM     30  C   UNL     1      45.597   4.589   9.053  0.00  0.00    +0.000 A 
ATOM     31  O   UNL     1      46.192   5.627   8.779  0.00  0.00    +0.000 OA
ENDBRANCH  17  28
ENDBRANCH   1  19
TORSDOF 6
ENDMDL
