MODEL 1
REMARK VINA RESULT:    -8.553      0.000      0.000
REMARK INTER + INTRA:         -13.062
REMARK INTER:                 -12.553
REMARK INTRA:                  -0.509
REMARK UNBOUND:                -0.509
REMARK  Name = 
REMARK  8 active torsions:
REMARK  status: ('A' for Active; 'I' for Inactive)
REMARK    1  A    between atoms: C_2  and  C_3
REMARK    2  A    between atoms: C_3  and  N_4
REMARK    3  A    between atoms: C_3  and  C_26
REMARK    4  A    between atoms: N_4  and  C_5
REMARK    5  A    between atoms: C_5  and  C_6
REMARK    6  A    between atoms: C_9  and  C_10
REMARK    7  A    between atoms: C_10  and  N_11
REMARK    8  A    between atoms: C_12  and  C_14
REMARK                            x       y       z     vdW  Elec       q    Type
REMARK                         _______ _______ _______ _____ _____    ______ ____
ROOT
ATOM      1  C   UNL     1      44.371   6.714  11.697  0.00  0.00    +0.000 A 
ATOM      2  C   UNL     1      44.643   8.048  11.393  0.00  0.00    +0.000 A 
ATOM      3  C   UNL     1      45.667   8.705  12.079  0.00  0.00    +0.000 A 
ATOM      4  C   UNL     1      46.415   8.018  13.038  0.00  0.00    +0.000 A 
ATOM      5  C   UNL     1      46.081   6.687  13.262  0.00  0.00    +0.000 A 
ATOM      6  N   UNL     1      45.092   6.022  12.613  0.00  0.00    +0.000 NA
ENDROOT
BRANCH   1   7
ATOM      7  C   UNL     1      43.156   6.025  11.102  0.00  0.00    +0.000 C 
BRANCH   7   8
ATOM      8  N   UNL     1      43.427   5.188   9.909  0.00  0.00    +0.000 NA
ATOM      9  H   UNL     1      43.937   5.775   9.245  0.00  0.00    +0.000 HD
BRANCH   8  10
ATOM     10  C   UNL     1      44.333   4.058  10.292  0.00  0.00    +0.000 C 
BRANCH  10  11
ATOM     11  C   UNL     1      45.079   3.424   9.115  0.00  0.00    +0.000 A 
ATOM     12  C   UNL     1      45.349   2.054   9.071  0.00  0.00    +0.000 A 
ATOM     13  C   UNL     1      46.196   1.562   8.078  0.00  0.00    +0.000 A 
ATOM     14  C   UNL     1      46.746   2.437   7.152  0.00  0.00    +0.000 A 
ATOM     15  C   UNL     1      46.411   3.776   7.242  0.00  0.00    +0.000 A 
ATOM     16  N   UNL     1      45.592   4.284   8.190  0.00  0.00    +0.000 NA
ENDBRANCH  10  11
BRANCH  10  18
ATOM     17  N   UNL     1      43.101   2.101  11.589  0.00  0.00    +0.000 NA
ATOM     18  C   UNL     1      43.620   2.969  11.012  0.00  0.00    +0.000 C 
ENDBRANCH  10  18
ENDBRANCH   8  10
ENDBRANCH   7   8
ENDBRANCH   1   7
BRANCH   4  19
ATOM     19  C   UNL     1      47.502   8.688  13.827  0.00  0.00    +0.000 C 
BRANCH  19  20
ATOM     20  N   UNL     1      47.820   7.959  15.032  0.00  0.00    +0.000 N 
ATOM     21  C   UNL     1      48.777   6.975  15.033  0.00  0.00    +0.000 C 
ATOM     22  O   UNL     1      49.430   6.707  14.027  0.00  0.00    +0.000 OA
ATOM     23  H   UNL     1      47.159   8.009  15.801  0.00  0.00    +0.000 HD
BRANCH  21  24
ATOM     24  C   UNL     1      49.027   6.293  16.309  0.00  0.00    +0.000 A 
ATOM     25  C   UNL     1      49.935   6.835  17.211  0.00  0.00    +0.000 A 
ATOM     26  S   UNL     1      50.075   5.947  18.661  0.00  0.00    +0.000 S 
ATOM     27  C   UNL     1      48.967   4.779  18.115  0.00  0.00    +0.000 A 
ATOM     28  N   UNL     1      48.653   3.701  18.884  0.00  0.00    +0.000 NA
ATOM     29  C   UNL     1      47.828   2.875  18.334  0.00  0.00    +0.000 A 
ATOM     30  N   UNL     1      47.280   3.033  17.087  0.00  0.00    +0.000 N 
ATOM     31  C   UNL     1      47.540   4.122  16.289  0.00  0.00    +0.000 A 
ATOM     32  O   UNL     1      46.995   4.263  15.199  0.00  0.00    +0.000 OA
ATOM     33  C   UNL     1      48.480   5.072  16.854  0.00  0.00    +0.000 A 
ATOM     34  H   UNL     1      46.630   2.354  16.718  0.00  0.00    +0.000 HD
ENDBRANCH  21  24
ENDBRANCH  19  20
ENDBRANCH   4  19
TORSDOF 8
ENDMDL
MODEL 2
REMARK VINA RESULT:    -8.227      2.658      3.279
REMARK INTER + INTRA:         -12.584
REMARK INTER:                 -11.708
REMARK INTRA:                  -0.876
REMARK UNBOUND:                -0.509
REMARK  Name = 
REMARK  8 active torsions:
REMARK  status: ('A' for Active; 'I' for Inactive)
REMARK    1  A    between atoms: C_2  and  C_3
REMARK    2  A    between atoms: C_3  and  N_4
REMARK    3  A    between atoms: C_3  and  C_26
REMARK    4  A    between atoms: N_4  and  C_5
REMARK    5  A    between atoms: C_5  and  C_6
REMARK    6  A    between atoms: C_9  and  C_10
REMARK    7  A    between atoms: C_10  and  N_11
REMARK    8  A    between atoms: C_12  and  C_14
REMARK                            x       y       z     vdW  Elec       q    Type
REMARK                         _______ _______ _______ _____ _____    ______ ____
ROOT
ATOM      1  C   UNL     1      46.125   4.521  13.610  0.00  0.00    +0.000 A 
ATOM      2  C   UNL     1      46.773   5.616  13.039  0.00  0.00    +0.000 A 
ATOM      3  C   UNL     1      47.712   6.320  13.795  0.00  0.00    +0.000 A 
ATOM      4  C   UNL     1      48.006   5.910  15.097  0.00  0.00    +0.000 A 
ATOM      5  C   UNL     1      47.322   4.798  15.576  0.00  0.00    +0.000 A 
ATOM      6  N   UNL     1      46.404   4.095  14.867  0.00  0.00    +0.000 NA
ENDROOT
BRANCH   1   7
ATOM      7  C   UNL     1      44.976   3.845  12.884  0.00  0.00    +0.000 C 
BRANCH   7   8
ATOM      8  N   UNL     1      45.375   2.890  11.823  0.00  0.00    +0.000 NA
ATOM      9  H   UNL     1      45.218   1.951  12.197  0.00  0.00    +0.000 HD
BRANCH   8  10
ATOM     10  C   UNL     1      44.472   3.056  10.640  0.00  0.00    +0.000 C 
BRANCH  10  11
ATOM     11  C   UNL     1      45.187   2.987   9.289  0.00  0.00    +0.000 A 
ATOM     12  C   UNL     1      45.623   1.772   8.753  0.00  0.00    +0.000 A 
ATOM     13  C   UNL     1      46.437   1.785   7.620  0.00  0.00    +0.000 A 
ATOM     14  C   UNL     1      46.792   2.998   7.045  0.00  0.00    +0.000 A 
ATOM     15  C   UNL     1      46.300   4.157   7.615  0.00  0.00    +0.000 A 
ATOM     16  N   UNL     1      45.507   4.178   8.712  0.00  0.00    +0.000 NA
ENDBRANCH  10  11
BRANCH  10  18
ATOM     17  N   UNL     1      43.141   5.348  10.713  0.00  0.00    +0.000 NA
ATOM     18  C   UNL     1      43.703   4.330  10.678  0.00  0.00    +0.000 C 
ENDBRANCH  10  18
ENDBRANCH   8  10
ENDBRANCH   7   8
ENDBRANCH   1   7
BRANCH   4  19
ATOM     19  C   UNL     1      48.982   6.653  15.963  0.00  0.00    +0.000 C 
BRANCH  19  20
ATOM     20  N   UNL     1      50.030   5.791  16.454  0.00  0.00    +0.000 N 
ATOM     21  C   UNL     1      50.153   5.515  17.794  0.00  0.00    +0.000 C 
ATOM     22  O   UNL     1      49.353   5.951  18.619  0.00  0.00    +0.000 OA
ATOM     23  H   UNL     1      50.813   5.601  15.835  0.00  0.00    +0.000 HD
BRANCH  21  24
ATOM     24  C   UNL     1      51.252   4.626  18.191  0.00  0.00    +0.000 A 
ATOM     25  C   UNL     1      52.307   5.132  18.939  0.00  0.00    +0.000 A 
ATOM     26  S   UNL     1      53.477   3.961  19.354  0.00  0.00    +0.000 S 
ATOM     27  C   UNL     1      52.642   2.748  18.504  0.00  0.00    +0.000 A 
ATOM     28  N   UNL     1      53.133   1.481  18.433  0.00  0.00    +0.000 NA
ATOM     29  C   UNL     1      52.418   0.671  17.727  0.00  0.00    +0.000 A 
ATOM     30  N   UNL     1      51.252   1.010  17.091  0.00  0.00    +0.000 N 
ATOM     31  C   UNL     1      50.700   2.267  17.163  0.00  0.00    +0.000 A 
ATOM     32  O   UNL     1      49.628   2.528  16.626  0.00  0.00    +0.000 OA
ATOM     33  C   UNL     1      51.477   3.223  17.929  0.00  0.00    +0.000 A 
ATOM     34  H   UNL     1      50.733   0.324  16.562  0.00  0.00    +0.000 HD
ENDBRANCH  21  24
ENDBRANCH  19  20
ENDBRANCH   4  19
TORSDOF 8
ENDMDL
MODEL 3
REMARK VINA RESULT:    -7.775      1.957      2.931
REMARK INTER + INTRA:         -11.920
REMARK INTER:                 -11.372
REMARK INTRA:                  -0.548
REMARK UNBOUND:                -0.509
REMARK  Name = 
REMARK  8 active torsions:
REMARK  status: ('A' for Active; 'I' for Inactive)
REMARK    1  A    between atoms: C_2  and  C_3
REMARK    2  A    between atoms: C_3  and  N_4
REMARK    3  A    between atoms: C_3  and  C_26
REMARK    4  A    between atoms: N_4  and  C_5
REMARK    5  A    between atoms: C_5  and  C_6
REMARK    6  A    between atoms: C_9  and  C_10
REMARK    7  A    between atoms: C_10  and  N_11
REMARK    8  A    between atoms: C_12  and  C_14
REMARK                            x       y       z     vdW  Elec       q    Type
REMARK                         _______ _______ _______ _____ _____    ______ ____
ROOT
ATOM      1  C   UNL     1      44.546   6.222  11.995  0.00  0.00    +0.000 A 
ATOM      2  C   UNL     1      44.759   5.377  13.084  0.00  0.00    +0.000 A 
ATOM      3  C   UNL     1      45.990   5.412  13.741  0.00  0.00    +0.000 A 
ATOM      4  C   UNL     1      46.979   6.303  13.317  0.00  0.00    +0.000 A 
ATOM      5  C   UNL     1      46.670   7.118  12.234  0.00  0.00    +0.000 A 
ATOM      6  N   UNL     1      45.485   7.106  11.574  0.00  0.00    +0.000 NA
ENDROOT
BRANCH   1   7
ATOM      7  C   UNL     1      43.290   6.084  11.152  0.00  0.00    +0.000 C 
BRANCH   7   8
ATOM      8  N   UNL     1      43.404   5.159   9.999  0.00  0.00    +0.000 NA
ATOM      9  H   UNL     1      43.854   5.682   9.244  0.00  0.00    +0.000 HD
BRANCH   8  10
ATOM     10  C   UNL     1      44.316   4.027  10.360  0.00  0.00    +0.000 C 
BRANCH  10  11
ATOM     11  C   UNL     1      45.085   3.438   9.174  0.00  0.00    +0.000 A 
ATOM     12  C   UNL     1      45.334   2.066   9.072  0.00  0.00    +0.000 A 
ATOM     13  C   UNL     1      46.201   1.607   8.080  0.00  0.00    +0.000 A 
ATOM     14  C   UNL     1      46.793   2.516   7.214  0.00  0.00    +0.000 A 
ATOM     15  C   UNL     1      46.478   3.855   7.359  0.00  0.00    +0.000 A 
ATOM     16  N   UNL     1      45.640   4.331   8.309  0.00  0.00    +0.000 NA
ENDBRANCH  10  11
BRANCH  10  18
ATOM     17  N   UNL     1      43.021   2.029  11.526  0.00  0.00    +0.000 NA
ATOM     18  C   UNL     1      43.604   2.908  11.035  0.00  0.00    +0.000 C 
ENDBRANCH  10  18
ENDBRANCH   8  10
ENDBRANCH   7   8
ENDBRANCH   1   7
BRANCH   4  19
ATOM     19  C   UNL     1      48.332   6.357  13.967  0.00  0.00    +0.000 C 
BRANCH  19  20
ATOM     20  N   UNL     1      48.242   6.684  15.370  0.00  0.00    +0.000 N 
ATOM     21  C   UNL     1      48.439   5.727  16.335  0.00  0.00    +0.000 C 
ATOM     22  O   UNL     1      48.742   4.572  16.046  0.00  0.00    +0.000 OA
ATOM     23  H   UNL     1      47.789   7.557  15.622  0.00  0.00    +0.000 HD
BRANCH  21  24
ATOM     24  C   UNL     1      48.328   6.161  17.733  0.00  0.00    +0.000 A 
ATOM     25  C   UNL     1      47.484   5.478  18.599  0.00  0.00    +0.000 A 
ATOM     26  S   UNL     1      47.503   6.080  20.195  0.00  0.00    +0.000 S 
ATOM     27  C   UNL     1      48.600   7.310  19.773  0.00  0.00    +0.000 A 
ATOM     28  N   UNL     1      49.019   8.218  20.696  0.00  0.00    +0.000 NA
ATOM     29  C   UNL     1      49.822   9.117  20.233  0.00  0.00    +0.000 A 
ATOM     30  N   UNL     1      50.251   9.185  18.934  0.00  0.00    +0.000 N 
ATOM     31  C   UNL     1      49.884   8.270  17.976  0.00  0.00    +0.000 A 
ATOM     32  O   UNL     1      50.325   8.326  16.833  0.00  0.00    +0.000 OA
ATOM     33  C   UNL     1      48.964   7.249  18.440  0.00  0.00    +0.000 A 
ATOM     34  H   UNL     1      50.891   9.908  18.638  0.00  0.00    +0.000 HD
ENDBRANCH  21  24
ENDBRANCH  19  20
ENDBRANCH   4  19
TORSDOF 8
ENDMDL
MODEL 4
REMARK VINA RESULT:    -7.551      1.640      2.439
REMARK INTER + INTRA:         -11.591
REMARK INTER:                 -10.746
REMARK INTRA:                  -0.845
REMARK UNBOUND:                -0.509
REMARK  Name = 
REMARK  8 active torsions:
REMARK  status: ('A' for Active; 'I' for Inactive)
REMARK    1  A    between atoms: C_2  and  C_3
REMARK    2  A    between atoms: C_3  and  N_4
REMARK    3  A    between atoms: C_3  and  C_26
REMARK    4  A    between atoms: N_4  and  C_5
REMARK    5  A    between atoms: C_5  and  C_6
REMARK    6  A    between atoms: C_9  and  C_10
REMARK    7  A    between atoms: C_10  and  N_11
REMARK    8  A    between atoms: C_12  and  C_14
REMARK                            x       y       z     vdW  Elec       q    Type
REMARK                         _______ _______ _______ _____ _____    ______ ____
ROOT
ATOM      1  C   UNL     1      45.347   4.450  12.723  0.00  0.00    +0.000 A 
ATOM      2  C   UNL     1      46.521   4.076  13.375  0.00  0.00    +0.000 A 
ATOM      3  C   UNL     1      47.391   5.068  13.831  0.00  0.00    +0.000 A 
ATOM      4  C   UNL     1      47.066   6.414  13.650  0.00  0.00    +0.000 A 
ATOM      5  C   UNL     1      45.867   6.691  13.004  0.00  0.00    +0.000 A 
ATOM      6  N   UNL     1      45.003   5.750  12.548  0.00  0.00    +0.000 NA
ENDROOT
BRANCH   1   7
ATOM      7  C   UNL     1      44.470   3.402  12.060  0.00  0.00    +0.000 C 
BRANCH   7   8
ATOM      8  N   UNL     1      45.168   2.510  11.104  0.00  0.00    +0.000 NA
ATOM      9  H   UNL     1      44.949   1.550  11.381  0.00  0.00    +0.000 HD
BRANCH   8  10
ATOM     10  C   UNL     1      44.606   2.717   9.731  0.00  0.00    +0.000 C 
BRANCH  10  11
ATOM     11  C   UNL     1      45.618   2.512   8.600  0.00  0.00    +0.000 A 
ATOM     12  C   UNL     1      45.873   3.511   7.657  0.00  0.00    +0.000 A 
ATOM     13  C   UNL     1      46.653   3.206   6.541  0.00  0.00    +0.000 A 
ATOM     14  C   UNL     1      47.164   1.924   6.393  0.00  0.00    +0.000 A 
ATOM     15  C   UNL     1      46.892   0.996   7.382  0.00  0.00    +0.000 A 
ATOM     16  N   UNL     1      46.142   1.261   8.476  0.00  0.00    +0.000 NA
ENDBRANCH  10  11
BRANCH  10  18
ATOM     17  N   UNL     1      43.543   5.130   9.459  0.00  0.00    +0.000 NA
ATOM     18  C   UNL     1      44.001   4.065   9.555  0.00  0.00    +0.000 C 
ENDBRANCH  10  18
ENDBRANCH   8  10
ENDBRANCH   7   8
ENDBRANCH   1   7
BRANCH   4  19
ATOM     19  C   UNL     1      47.983   7.519  14.091  0.00  0.00    +0.000 C 
BRANCH  19  20
ATOM     20  N   UNL     1      48.297   7.428  15.497  0.00  0.00    +0.000 N 
ATOM     21  C   UNL     1      49.559   7.088  15.921  0.00  0.00    +0.000 C 
ATOM     22  O   UNL     1      50.476   6.893  15.127  0.00  0.00    +0.000 OA
ATOM     23  H   UNL     1      47.522   7.372  16.151  0.00  0.00    +0.000 HD
BRANCH  21  24
ATOM     24  C   UNL     1      49.777   7.025  17.371  0.00  0.00    +0.000 A 
ATOM     25  C   UNL     1      50.664   7.909  17.971  0.00  0.00    +0.000 A 
ATOM     26  S   UNL     1      50.769   7.733  19.665  0.00  0.00    +0.000 S 
ATOM     27  C   UNL     1      49.672   6.434  19.651  0.00  0.00    +0.000 A 
ATOM     28  N   UNL     1      49.338   5.790  20.802  0.00  0.00    +0.000 NA
ATOM     29  C   UNL     1      48.524   4.800  20.642  0.00  0.00    +0.000 A 
ATOM     30  N   UNL     1      48.007   4.402  19.437  0.00  0.00    +0.000 N 
ATOM     31  C   UNL     1      48.287   5.043  18.254  0.00  0.00    +0.000 A 
ATOM     32  O   UNL     1      47.769   4.697  17.198  0.00  0.00    +0.000 OA
ATOM     33  C   UNL     1      49.215   6.152  18.376  0.00  0.00    +0.000 A 
ATOM     34  H   UNL     1      47.364   3.625  19.382  0.00  0.00    +0.000 HD
ENDBRANCH  21  24
ENDBRANCH  19  20
ENDBRANCH   4  19
TORSDOF 8
ENDMDL
MODEL 5
REMARK VINA RESULT:    -7.327      2.944      8.395
REMARK INTER + INTRA:         -11.262
REMARK INTER:                  -9.967
REMARK INTRA:                  -1.295
REMARK UNBOUND:                -0.509
REMARK  Name = 
REMARK  8 active torsions:
REMARK  status: ('A' for Active; 'I' for Inactive)
REMARK    1  A    between atoms: C_2  and  C_3
REMARK    2  A    between atoms: C_3  and  N_4
REMARK    3  A    between atoms: C_3  and  C_26
REMARK    4  A    between atoms: N_4  and  C_5
REMARK    5  A    between atoms: C_5  and  C_6
REMARK    6  A    between atoms: C_9  and  C_10
REMARK    7  A    between atoms: C_10  and  N_11
REMARK    8  A    between atoms: C_12  and  C_14
REMARK                            x       y       z     vdW  Elec       q    Type
REMARK                         _______ _______ _______ _____ _____    ______ ____
ROOT
ATOM      1  C   UNL     1      50.329   7.263  15.161  0.00  0.00    +0.000 A 
ATOM      2  C   UNL     1      50.672   8.141  14.133  0.00  0.00    +0.000 A 
ATOM      3  C   UNL     1      49.797   8.303  13.057  0.00  0.00    +0.000 A 
ATOM      4  C   UNL     1      48.588   7.605  13.033  0.00  0.00    +0.000 A 
ATOM      5  C   UNL     1      48.324   6.764  14.109  0.00  0.00    +0.000 A 
ATOM      6  N   UNL     1      49.154   6.586  15.167  0.00  0.00    +0.000 NA
ENDROOT
BRANCH   1   7
ATOM      7  C   UNL     1      51.331   6.930  16.252  0.00  0.00    +0.000 C 
BRANCH   7   8
ATOM      8  N   UNL     1      50.766   6.831  17.618  0.00  0.00    +0.000 NA
ATOM      9  H   UNL     1      49.768   7.041  17.541  0.00  0.00    +0.000 HD
BRANCH   8  10
ATOM     10  C   UNL     1      50.889   5.420  18.105  0.00  0.00    +0.000 C 
BRANCH  10  11
ATOM     11  C   UNL     1      49.619   4.583  17.932  0.00  0.00    +0.000 A 
ATOM     12  C   UNL     1      49.660   3.294  17.395  0.00  0.00    +0.000 A 
ATOM     13  C   UNL     1      48.461   2.653  17.079  0.00  0.00    +0.000 A 
ATOM     14  C   UNL     1      47.256   3.303  17.308  0.00  0.00    +0.000 A 
ATOM     15  C   UNL     1      47.295   4.567  17.868  0.00  0.00    +0.000 A 
ATOM     16  N   UNL     1      48.439   5.214  18.188  0.00  0.00    +0.000 NA
ENDBRANCH  10  11
BRANCH  10  18
ATOM     17  N   UNL     1      51.621   5.236  20.647  0.00  0.00    +0.000 NA
ATOM     18  C   UNL     1      51.290   5.340  19.536  0.00  0.00    +0.000 C 
ENDBRANCH  10  18
ENDBRANCH   8  10
ENDBRANCH   7   8
ENDBRANCH   1   7
BRANCH   4  19
ATOM     19  C   UNL     1      47.628   7.717  11.884  0.00  0.00    +0.000 C 
BRANCH  19  20
ATOM     20  N   UNL     1      46.929   6.476  11.644  0.00  0.00    +0.000 N 
ATOM     21  C   UNL     1      45.557   6.421  11.661  0.00  0.00    +0.000 C 
ATOM     22  O   UNL     1      44.872   7.427  11.835  0.00  0.00    +0.000 OA
ATOM     23  H   UNL     1      47.461   5.614  11.714  0.00  0.00    +0.000 HD
BRANCH  21  24
ATOM     24  C   UNL     1      44.942   5.113  11.404  0.00  0.00    +0.000 A 
ATOM     25  C   UNL     1      44.212   4.489  12.407  0.00  0.00    +0.000 A 
ATOM     26  S   UNL     1      43.528   2.999  11.934  0.00  0.00    +0.000 S 
ATOM     27  C   UNL     1      44.227   3.110  10.388  0.00  0.00    +0.000 A 
ATOM     28  N   UNL     1      44.054   2.119   9.471  0.00  0.00    +0.000 NA
ATOM     29  C   UNL     1      44.669   2.314   8.352  0.00  0.00    +0.000 A 
ATOM     30  N   UNL     1      45.434   3.415   8.064  0.00  0.00    +0.000 N 
ATOM     31  C   UNL     1      45.608   4.456   8.944  0.00  0.00    +0.000 A 
ATOM     32  O   UNL     1      46.256   5.452   8.639  0.00  0.00    +0.000 OA
ATOM     33  C   UNL     1      44.954   4.276  10.227  0.00  0.00    +0.000 A 
ATOM     34  H   UNL     1      45.880   3.512   7.163  0.00  0.00    +0.000 HD
ENDBRANCH  21  24
ENDBRANCH  19  20
ENDBRANCH   4  19
TORSDOF 8
ENDMDL
MODEL 6
REMARK VINA RESULT:    -7.311      3.837      8.563
REMARK INTER + INTRA:         -11.238
REMARK INTER:                 -10.185
REMARK INTRA:                  -1.054
REMARK UNBOUND:                -0.509
REMARK  Name = 
REMARK  8 active torsions:
REMARK  status: ('A' for Active; 'I' for Inactive)
REMARK    1  A    between atoms: C_2  and  C_3
REMARK    2  A    between atoms: C_3  and  N_4
REMARK    3  A    between atoms: C_3  and  C_26
REMARK    4  A    between atoms: N_4  and  C_5
REMARK    5  A    between atoms: C_5  and  C_6
REMARK    6  A    between atoms: C_9  and  C_10
REMARK    7  A    between atoms: C_10  and  N_11
REMARK    8  A    between atoms: C_12  and  C_14
REMARK                            x       y       z     vdW  Elec       q    Type
REMARK                         _______ _______ _______ _____ _____    ______ ____
ROOT
ATOM      1  C   UNL     1      49.899   5.961  16.558  0.00  0.00    +0.000 A 
ATOM      2  C   UNL     1      50.653   6.933  15.900  0.00  0.00    +0.000 A 
ATOM      3  C   UNL     1      50.166   7.483  14.713  0.00  0.00    +0.000 A 
ATOM      4  C   UNL     1      48.928   7.073  14.214  0.00  0.00    +0.000 A 
ATOM      5  C   UNL     1      48.240   6.111  14.945  0.00  0.00    +0.000 A 
ATOM      6  N   UNL     1      48.688   5.558  16.100  0.00  0.00    +0.000 NA
ENDROOT
BRANCH   1   7
ATOM      7  C   UNL     1      50.478   5.217  17.748  0.00  0.00    +0.000 C 
BRANCH   7   8
ATOM      8  N   UNL     1      51.690   4.414  17.461  0.00  0.00    +0.000 NA
ATOM      9  H   UNL     1      52.430   4.767  18.073  0.00  0.00    +0.000 HD
BRANCH   8  10
ATOM     10  C   UNL     1      51.441   2.986  17.840  0.00  0.00    +0.000 C 
BRANCH  10  11
ATOM     11  C   UNL     1      52.697   2.112  17.852  0.00  0.00    +0.000 A 
ATOM     12  C   UNL     1      52.618   0.717  17.831  0.00  0.00    +0.000 A 
ATOM     13  C   UNL     1      53.777  -0.031  18.039  0.00  0.00    +0.000 A 
ATOM     14  C   UNL     1      54.983   0.622  18.257  0.00  0.00    +0.000 A 
ATOM     15  C   UNL     1      54.988   2.004  18.237  0.00  0.00    +0.000 A 
ATOM     16  N   UNL     1      53.882   2.757  18.036  0.00  0.00    +0.000 NA
ENDBRANCH  10  11
BRANCH  10  18
ATOM     17  N   UNL     1      49.681   1.820  16.236  0.00  0.00    +0.000 NA
ATOM     18  C   UNL     1      50.440   2.325  16.960  0.00  0.00    +0.000 C 
ENDBRANCH  10  18
ENDBRANCH   8  10
ENDBRANCH   7   8
ENDBRANCH   1   7
BRANCH   4  19
ATOM     19  C   UNL     1      48.374   7.608  12.924  0.00  0.00    +0.000 C 
BRANCH  19  20
ATOM     20  N   UNL     1      47.661   6.595  12.184  0.00  0.00    +0.000 N 
ATOM     21  C   UNL     1      46.354   6.782  11.805  0.00  0.00    +0.000 C 
ATOM     22  O   UNL     1      45.757   7.830  12.039  0.00  0.00    +0.000 OA
ATOM     23  H   UNL     1      48.052   5.658  12.170  0.00  0.00    +0.000 HD
BRANCH  21  24
ATOM     24  C   UNL     1      45.718   5.692  11.054  0.00  0.00    +0.000 A 
ATOM     25  C   UNL     1      45.860   5.635   9.674  0.00  0.00    +0.000 A 
ATOM     26  S   UNL     1      45.100   4.285   8.960  0.00  0.00    +0.000 S 
ATOM     27  C   UNL     1      44.509   3.756  10.464  0.00  0.00    +0.000 A 
ATOM     28  N   UNL     1      43.735   2.641  10.557  0.00  0.00    +0.000 NA
ATOM     29  C   UNL     1      43.325   2.374  11.752  0.00  0.00    +0.000 A 
ATOM     30  N   UNL     1      43.627   3.116  12.864  0.00  0.00    +0.000 N 
ATOM     31  C   UNL     1      44.433   4.229  12.825  0.00  0.00    +0.000 A 
ATOM     32  O   UNL     1      44.729   4.843  13.844  0.00  0.00    +0.000 OA
ATOM     33  C   UNL     1      44.904   4.585  11.499  0.00  0.00    +0.000 A 
ATOM     34  H   UNL     1      43.284   2.845  13.774  0.00  0.00    +0.000 HD
ENDBRANCH  21  24
ENDBRANCH  19  20
ENDBRANCH   4  19
TORSDOF 8
ENDMDL
MODEL 7
REMARK VINA RESULT:    -7.267      2.409      2.926
REMARK INTER + INTRA:         -11.174
REMARK INTER:                 -10.203
REMARK INTRA:                  -0.971
REMARK UNBOUND:                -0.509
REMARK  Name = 
REMARK  8 active torsions:
REMARK  status: ('A' for Active; 'I' for Inactive)
REMARK    1  A    between atoms: C_2  and  C_3
REMARK    2  A    between atoms: C_3  and  N_4
REMARK    3  A    between atoms: C_3  and  C_26
REMARK    4  A    between atoms: N_4  and  C_5
REMARK    5  A    between atoms: C_5  and  C_6
REMARK    6  A    between atoms: C_9  and  C_10
REMARK    7  A    between atoms: C_10  and  N_11
REMARK    8  A    between atoms: C_12  and  C_14
REMARK                            x       y       z     vdW  Elec       q    Type
REMARK                         _______ _______ _______ _____ _____    ______ ____
ROOT
ATOM      1  C   UNL     1      45.915   5.041  13.361  0.00  0.00    +0.000 A 
ATOM      2  C   UNL     1      46.004   6.217  12.618  0.00  0.00    +0.000 A 
ATOM      3  C   UNL     1      47.047   7.108  12.879  0.00  0.00    +0.000 A 
ATOM      4  C   UNL     1      47.994   6.802  13.859  0.00  0.00    +0.000 A 
ATOM      5  C   UNL     1      47.832   5.599  14.537  0.00  0.00    +0.000 A 
ATOM      6  N   UNL     1      46.830   4.715  14.307  0.00  0.00    +0.000 NA
ENDROOT
BRANCH   1   7
ATOM      7  C   UNL     1      44.699   4.140  13.227  0.00  0.00    +0.000 C 
BRANCH   7   8
ATOM      8  N   UNL     1      44.879   2.967  12.339  0.00  0.00    +0.000 NA
ATOM      9  H   UNL     1      44.566   2.147  12.866  0.00  0.00    +0.000 HD
BRANCH   8  10
ATOM     10  C   UNL     1      43.980   3.102  11.149  0.00  0.00    +0.000 C 
BRANCH  10  11
ATOM     11  C   UNL     1      44.719   3.200   9.812  0.00  0.00    +0.000 A 
ATOM     12  C   UNL     1      45.151   2.061   9.129  0.00  0.00    +0.000 A 
ATOM     13  C   UNL     1      45.985   2.211   8.020  0.00  0.00    +0.000 A 
ATOM     14  C   UNL     1      46.362   3.484   7.615  0.00  0.00    +0.000 A 
ATOM     15  C   UNL     1      45.873   4.565   8.324  0.00  0.00    +0.000 A 
ATOM     16  N   UNL     1      45.061   4.453   9.401  0.00  0.00    +0.000 NA
ENDBRANCH  10  11
BRANCH  10  18
ATOM     17  N   UNL     1      42.330   5.172  11.294  0.00  0.00    +0.000 NA
ATOM     18  C   UNL     1      43.068   4.274  11.248  0.00  0.00    +0.000 C 
ENDBRANCH  10  18
ENDBRANCH   8  10
ENDBRANCH   7   8
ENDBRANCH   1   7
BRANCH   4  19
ATOM     19  C   UNL     1      49.115   7.741  14.202  0.00  0.00    +0.000 C 
BRANCH  19  20
ATOM     20  N   UNL     1      50.217   7.055  14.832  0.00  0.00    +0.000 N 
ATOM     21  C   UNL     1      50.770   7.524  15.999  0.00  0.00    +0.000 C 
ATOM     22  O   UNL     1      50.323   8.513  16.574  0.00  0.00    +0.000 OA
ATOM     23  H   UNL     1      50.732   6.379  14.276  0.00  0.00    +0.000 HD
BRANCH  21  24
ATOM     24  C   UNL     1      51.887   6.753  16.560  0.00  0.00    +0.000 A 
ATOM     25  C   UNL     1      53.170   7.284  16.531  0.00  0.00    +0.000 A 
ATOM     26  S   UNL     1      54.344   6.285  17.262  0.00  0.00    +0.000 S 
ATOM     27  C   UNL     1      53.188   5.083  17.597  0.00  0.00    +0.000 A 
ATOM     28  N   UNL     1      53.547   3.919  18.203  0.00  0.00    +0.000 NA
ATOM     29  C   UNL     1      52.578   3.081  18.364  0.00  0.00    +0.000 A 
ATOM     30  N   UNL     1      51.281   3.305  17.983  0.00  0.00    +0.000 N 
ATOM     31  C   UNL     1      50.865   4.478  17.400  0.00  0.00    +0.000 A 
ATOM     32  O   UNL     1      49.687   4.671  17.117  0.00  0.00    +0.000 OA
ATOM     33  C   UNL     1      51.921   5.447  17.177  0.00  0.00    +0.000 A 
ATOM     34  H   UNL     1      50.566   2.611  18.149  0.00  0.00    +0.000 HD
ENDBRANCH  21  24
ENDBRANCH  19  20
ENDBRANCH   4  19
TORSDOF 8
ENDMDL
MODEL 8
REMARK VINA RESULT:    -7.073      3.050      8.134
REMARK INTER + INTRA:         -10.890
REMARK INTER:                  -9.563
REMARK INTRA:                  -1.327
REMARK UNBOUND:                -0.509
REMARK  Name = 
REMARK  8 active torsions:
REMARK  status: ('A' for Active; 'I' for Inactive)
REMARK    1  A    between atoms: C_2  and  C_3
REMARK    2  A    between atoms: C_3  and  N_4
REMARK    3  A    between atoms: C_3  and  C_26
REMARK    4  A    between atoms: N_4  and  C_5
REMARK    5  A    between atoms: C_5  and  C_6
REMARK    6  A    between atoms: C_9  and  C_10
REMARK    7  A    between atoms: C_10  and  N_11
REMARK    8  A    between atoms: C_12  and  C_14
REMARK                            x       y       z     vdW  Elec       q    Type
REMARK                         _______ _______ _______ _____ _____    ______ ____
ROOT
ATOM      1  C   UNL     1      50.393   7.200  15.555  0.00  0.00    +0.000 A 
ATOM      2  C   UNL     1      49.074   6.764  15.434  0.00  0.00    +0.000 A 
ATOM      3  C   UNL     1      48.371   7.043  14.261  0.00  0.00    +0.000 A 
ATOM      4  C   UNL     1      48.999   7.732  13.221  0.00  0.00    +0.000 A 
ATOM      5  C   UNL     1      50.320   8.113  13.425  0.00  0.00    +0.000 A 
ATOM      6  N   UNL     1      51.029   7.858  14.554  0.00  0.00    +0.000 NA
ENDROOT
BRANCH   1   7
ATOM      7  C   UNL     1      51.125   7.071  16.879  0.00  0.00    +0.000 C 
BRANCH   7   8
ATOM      8  N   UNL     1      51.671   5.724  17.168  0.00  0.00    +0.000 NA
ATOM      9  H   UNL     1      52.658   5.850  17.405  0.00  0.00    +0.000 HD
BRANCH   8  10
ATOM     10  C   UNL     1      50.991   5.161  18.378  0.00  0.00    +0.000 C 
BRANCH  10  11
ATOM     11  C   UNL     1      49.668   4.451  18.082  0.00  0.00    +0.000 A 
ATOM     12  C   UNL     1      49.623   3.257  17.357  0.00  0.00    +0.000 A 
ATOM     13  C   UNL     1      48.386   2.758  16.950  0.00  0.00    +0.000 A 
ATOM     14  C   UNL     1      47.227   3.449  17.275  0.00  0.00    +0.000 A 
ATOM     15  C   UNL     1      47.348   4.609  18.018  0.00  0.00    +0.000 A 
ATOM     16  N   UNL     1      48.532   5.118  18.430  0.00  0.00    +0.000 NA
ENDBRANCH  10  11
BRANCH  10  18
ATOM     17  N   UNL     1      50.496   6.967  20.255  0.00  0.00    +0.000 NA
ATOM     18  C   UNL     1      50.727   6.191  19.419  0.00  0.00    +0.000 C 
ENDBRANCH  10  18
ENDBRANCH   8  10
ENDBRANCH   7   8
ENDBRANCH   1   7
BRANCH   4  19
ATOM     19  C   UNL     1      48.277   8.088  11.953  0.00  0.00    +0.000 C 
BRANCH  19  20
ATOM     20  N   UNL     1      47.588   6.952  11.389  0.00  0.00    +0.000 N 
ATOM     21  C   UNL     1      46.216   6.902  11.351  0.00  0.00    +0.000 C 
ATOM     22  O   UNL     1      45.524   7.835  11.750  0.00  0.00    +0.000 OA
ATOM     23  H   UNL     1      48.119   6.096  11.257  0.00  0.00    +0.000 HD
BRANCH  21  24
ATOM     24  C   UNL     1      45.612   5.703  10.756  0.00  0.00    +0.000 A 
ATOM     25  C   UNL     1      45.759   5.464   9.395  0.00  0.00    +0.000 A 
ATOM     26  S   UNL     1      45.037   4.009   8.872  0.00  0.00    +0.000 S 
ATOM     27  C   UNL     1      44.456   3.674  10.435  0.00  0.00    +0.000 A 
ATOM     28  N   UNL     1      43.712   2.561  10.679  0.00  0.00    +0.000 NA
ATOM     29  C   UNL     1      43.307   2.448  11.900  0.00  0.00    +0.000 A 
ATOM     30  N   UNL     1      43.585   3.342  12.901  0.00  0.00    +0.000 N 
ATOM     31  C   UNL     1      44.361   4.460  12.710  0.00  0.00    +0.000 A 
ATOM     32  O   UNL     1      44.637   5.215  13.636  0.00  0.00    +0.000 OA
ATOM     33  C   UNL     1      44.826   4.645  11.348  0.00  0.00    +0.000 A 
ATOM     34  H   UNL     1      43.246   3.189  13.840  0.00  0.00    +0.000 HD
ENDBRANCH  21  24
ENDBRANCH  19  20
ENDBRANCH   4  19
TORSDOF 8
ENDMDL
MODEL 9
REMARK VINA RESULT:    -6.878      5.008      6.618
REMARK INTER + INTRA:         -10.603
REMARK INTER:                  -9.697
REMARK INTRA:                  -0.906
REMARK UNBOUND:                -0.509
REMARK  Name = 
REMARK  8 active torsions:
REMARK  status: ('A' for Active; 'I' for Inactive)
REMARK    1  A    between atoms: C_2  and  C_3
REMARK    2  A    between atoms: C_3  and  N_4
REMARK    3  A    between atoms: C_3  and  C_26
REMARK    4  A    between atoms: N_4  and  C_5
REMARK    5  A    between atoms: C_5  and  C_6
REMARK    6  A    between atoms: C_9  and  C_10
REMARK    7  A    between atoms: C_10  and  N_11
REMARK    8  A    between atoms: C_12  and  C_14
REMARK                            x       y       z     vdW  Elec       q    Type
REMARK                         _______ _______ _______ _____ _____    ______ ____
ROOT
ATOM      1  C   UNL     1      46.622   5.772  12.930  0.00  0.00    +0.000 A 
ATOM      2  C   UNL     1      46.870   6.581  11.821  0.00  0.00    +0.000 A 
ATOM      3  C   UNL     1      48.034   7.350  11.788  0.00  0.00    +0.000 A 
ATOM      4  C   UNL     1      48.942   7.285  12.848  0.00  0.00    +0.000 A 
ATOM      5  C   UNL     1      48.618   6.439  13.903  0.00  0.00    +0.000 A 
ATOM      6  N   UNL     1      47.495   5.681  13.964  0.00  0.00    +0.000 NA
ENDROOT
BRANCH   1   7
ATOM      7  C   UNL     1      45.288   5.063  13.079  0.00  0.00    +0.000 C 
BRANCH   7   8
ATOM      8  N   UNL     1      45.269   3.654  12.621  0.00  0.00    +0.000 NA
ATOM      9  H   UNL     1      44.997   3.085  13.427  0.00  0.00    +0.000 HD
BRANCH   8  10
ATOM     10  C   UNL     1      44.207   3.484  11.579  0.00  0.00    +0.000 C 
BRANCH  10  11
ATOM     11  C   UNL     1      44.738   3.429  10.144  0.00  0.00    +0.000 A 
ATOM     12  C   UNL     1      45.004   2.213   9.509  0.00  0.00    +0.000 A 
ATOM     13  C   UNL     1      45.666   2.222   8.281  0.00  0.00    +0.000 A 
ATOM     14  C   UNL     1      46.041   3.432   7.713  0.00  0.00    +0.000 A 
ATOM     15  C   UNL     1      45.720   4.595   8.388  0.00  0.00    +0.000 A 
ATOM     16  N   UNL     1      45.076   4.620   9.578  0.00  0.00    +0.000 NA
ENDBRANCH  10  11
BRANCH  10  18
ATOM     17  N   UNL     1      42.334   5.359  11.657  0.00  0.00    +0.000 NA
ATOM     18  C   UNL     1      43.171   4.551  11.635  0.00  0.00    +0.000 C 
ENDBRANCH  10  18
ENDBRANCH   8  10
ENDBRANCH   7   8
ENDBRANCH   1   7
BRANCH   4  19
ATOM     19  C   UNL     1      50.191   8.117  12.877  0.00  0.00    +0.000 C 
BRANCH  19  20
ATOM     20  N   UNL     1      50.694   8.381  11.550  0.00  0.00    +0.000 N 
ATOM     21  C   UNL     1      52.035   8.575  11.326  0.00  0.00    +0.000 C 
ATOM     22  O   UNL     1      52.861   8.487  12.231  0.00  0.00    +0.000 OA
ATOM     23  H   UNL     1      50.026   8.668  10.841  0.00  0.00    +0.000 HD
BRANCH  21  24
ATOM     24  C   UNL     1      52.445   8.835   9.940  0.00  0.00    +0.000 A 
ATOM     25  C   UNL     1      52.331  10.118   9.420  0.00  0.00    +0.000 A 
ATOM     26  S   UNL     1      52.891  10.261   7.815  0.00  0.00    +0.000 S 
ATOM     27  C   UNL     1      53.255   8.601   7.739  0.00  0.00    +0.000 A 
ATOM     28  N   UNL     1      53.754   8.048   6.600  0.00  0.00    +0.000 NA
ATOM     29  C   UNL     1      53.952   6.774   6.669  0.00  0.00    +0.000 A 
ATOM     30  N   UNL     1      53.704   6.004   7.776  0.00  0.00    +0.000 N 
ATOM     31  C   UNL     1      53.234   6.524   8.958  0.00  0.00    +0.000 A 
ATOM     32  O   UNL     1      53.071   5.820   9.949  0.00  0.00    +0.000 OA
ATOM     33  C   UNL     1      52.975   7.951   8.928  0.00  0.00    +0.000 A 
ATOM     34  H   UNL     1      53.892   5.012   7.768  0.00  0.00    +0.000 HD
ENDBRANCH  21  24
ENDBRANCH  19  20
ENDBRANCH   4  19
TORSDOF 8
ENDMDL
