MODEL 1
REMARK VINA RESULT:    -8.889      0.000      0.000
REMARK INTER + INTRA:         -12.595
REMARK INTER:                 -12.007
REMARK INTRA:                  -0.588
REMARK UNBOUND:                -0.588
REMARK  Name = 
REMARK  6 active torsions:
REMARK  status: ('A' for Active; 'I' for Inactive)
REMARK    1  A    between atoms: C_2  and  C_25
REMARK    2  A    between atoms: N_3  and  C_4
REMARK    3  A    between atoms: C_4  and  C_5
REMARK    4  A    between atoms: C_8  and  C_9
REMARK    5  A    between atoms: C_9  and  N_10
REMARK    6  A    between atoms: C_11  and  C_13
REMARK                            x       y       z     vdW  Elec       q    Type
REMARK                         _______ _______ _______ _____ _____    ______ ____
ROOT
ATOM      1  C   UNL     1      43.608   4.351  11.782  0.00  0.00    +0.000 C 
ATOM      2  C   UNL     1      44.436   3.136  12.233  0.00  0.00    +0.000 C 
ATOM      3  C   UNL     1      45.931   3.429  12.375  0.00  0.00    +0.000 C 
ATOM      4  C   UNL     1      46.241   4.665  13.238  0.00  0.00    +0.000 C 
ATOM      5  C   UNL     1      45.438   5.871  12.730  0.00  0.00    +0.000 C 
ATOM      6  C   UNL     1      43.937   5.588  12.635  0.00  0.00    +0.000 C 
ENDROOT
BRANCH   1   7
ATOM      7  C   UNL     1      43.778   4.663  10.282  0.00  0.00    +0.000 C 
BRANCH   7  10
ATOM      8  O   UNL     1      45.920   5.069   8.456  0.00  0.00    +0.000 OA
ATOM      9  C   UNL     1      45.547   3.926   8.708  0.00  0.00    +0.000 C 
ATOM     10  N   UNL     1      44.519   3.640   9.577  0.00  0.00    +0.000 N 
ATOM     11  H   UNL     1      44.299   2.656   9.704  0.00  0.00    +0.000 HD
BRANCH   9  12
ATOM     12  C   UNL     1      46.172   2.754   8.129  0.00  0.00    +0.000 A 
ATOM     13  N   UNL     1      45.966   1.503   8.513  0.00  0.00    +0.000 NA
ATOM     14  C   UNL     1      46.776   0.738   7.710  0.00  0.00    +0.000 A 
ATOM     15  C   UNL     1      47.492   1.526   6.840  0.00  0.00    +0.000 A 
ATOM     16  N   UNL     1      47.084   2.803   7.104  0.00  0.00    +0.000 N 
ATOM     17  H   UNL     1      47.396   3.657   6.660  0.00  0.00    +0.000 HD
ENDBRANCH   9  12
ENDBRANCH   7  10
ENDBRANCH   1   7
BRANCH   4  18
ATOM     18  C   UNL     1      45.990   4.446  14.741  0.00  0.00    +0.000 C 
BRANCH  18  19
ATOM     19  N   UNL     1      47.176   4.623  15.543  0.00  0.00    +0.000 N 
ATOM     20  C   UNL     1      47.375   4.032  16.765  0.00  0.00    +0.000 C 
ATOM     21  O   UNL     1      46.503   3.401  17.350  0.00  0.00    +0.000 OA
ATOM     22  H   UNL     1      47.969   5.040  15.063  0.00  0.00    +0.000 HD
BRANCH  20  23
ATOM     23  C   UNL     1      48.709   4.235  17.349  0.00  0.00    +0.000 A 
ATOM     24  C   UNL     1      49.003   5.399  18.043  0.00  0.00    +0.000 A 
ATOM     25  S   UNL     1      50.605   5.457  18.628  0.00  0.00    +0.000 S 
ATOM     26  C   UNL     1      50.945   3.904  18.022  0.00  0.00    +0.000 A 
ATOM     27  N   UNL     1      52.161   3.324  18.211  0.00  0.00    +0.000 NA
ATOM     28  C   UNL     1      52.261   2.126  17.738  0.00  0.00    +0.000 A 
ATOM     29  N   UNL     1      51.261   1.459  17.085  0.00  0.00    +0.000 N 
ATOM     30  C   UNL     1      50.048   2.032  16.800  0.00  0.00    +0.000 A 
ATOM     31  O   UNL     1      49.228   1.456  16.090  0.00  0.00    +0.000 OA
ATOM     32  C   UNL     1      49.861   3.361  17.353  0.00  0.00    +0.000 A 
ATOM     33  H   UNL     1      51.411   0.532  16.711  0.00  0.00    +0.000 HD
ENDBRANCH  20  23
ENDBRANCH  18  19
ENDBRANCH   4  18
TORSDOF 6
ENDMDL
MODEL 2
REMARK VINA RESULT:    -8.024      2.166      2.719
REMARK INTER + INTRA:         -11.427
REMARK INTER:                 -10.933
REMARK INTRA:                  -0.493
REMARK UNBOUND:                -0.588
REMARK  Name = 
REMARK  6 active torsions:
REMARK  status: ('A' for Active; 'I' for Inactive)
REMARK    1  A    between atoms: C_2  and  C_25
REMARK    2  A    between atoms: N_3  and  C_4
REMARK    3  A    between atoms: C_4  and  C_5
REMARK    4  A    between atoms: C_8  and  C_9
REMARK    5  A    between atoms: C_9  and  N_10
REMARK    6  A    between atoms: C_11  and  C_13
REMARK                            x       y       z     vdW  Elec       q    Type
REMARK                         _______ _______ _______ _____ _____    ______ ____
ROOT
ATOM      1  C   UNL     1      43.578   6.143  12.073  0.00  0.00    +0.000 C 
ATOM      2  C   UNL     1      44.321   5.480  13.245  0.00  0.00    +0.000 C 
ATOM      3  C   UNL     1      45.715   4.965  12.878  0.00  0.00    +0.000 C 
ATOM      4  C   UNL     1      46.599   6.015  12.182  0.00  0.00    +0.000 C 
ATOM      5  C   UNL     1      45.849   6.622  10.988  0.00  0.00    +0.000 C 
ATOM      6  C   UNL     1      44.475   7.177  11.369  0.00  0.00    +0.000 C 
ENDROOT
BRANCH   1   7
ATOM      7  C   UNL     1      43.029   5.120  11.060  0.00  0.00    +0.000 C 
BRANCH   7  10
ATOM      8  O   UNL     1      43.820   2.488  10.329  0.00  0.00    +0.000 OA
ATOM      9  C   UNL     1      44.321   3.452   9.756  0.00  0.00    +0.000 C 
ATOM     10  N   UNL     1      43.996   4.758  10.048  0.00  0.00    +0.000 N 
ATOM     11  H   UNL     1      44.478   5.471   9.508  0.00  0.00    +0.000 HD
BRANCH   9  12
ATOM     12  C   UNL     1      45.293   3.311   8.690  0.00  0.00    +0.000 A 
ATOM     13  N   UNL     1      45.721   4.288   7.906  0.00  0.00    +0.000 NA
ATOM     14  C   UNL     1      46.608   3.696   7.039  0.00  0.00    +0.000 A 
ATOM     15  C   UNL     1      46.711   2.348   7.287  0.00  0.00    +0.000 A 
ATOM     16  N   UNL     1      45.885   2.120   8.351  0.00  0.00    +0.000 N 
ATOM     17  H   UNL     1      45.701   1.240   8.815  0.00  0.00    +0.000 HD
ENDBRANCH   9  12
ENDBRANCH   7  10
ENDBRANCH   1   7
BRANCH   4  18
ATOM     18  C   UNL     1      47.095   7.126  13.125  0.00  0.00    +0.000 C 
BRANCH  18  19
ATOM     19  N   UNL     1      47.490   6.631  14.422  0.00  0.00    +0.000 N 
ATOM     20  C   UNL     1      48.775   6.664  14.900  0.00  0.00    +0.000 C 
ATOM     21  O   UNL     1      49.733   7.000  14.215  0.00  0.00    +0.000 OA
ATOM     22  H   UNL     1      46.728   6.446  15.069  0.00  0.00    +0.000 HD
BRANCH  20  23
ATOM     23  C   UNL     1      48.934   6.234  16.297  0.00  0.00    +0.000 A 
ATOM     24  C   UNL     1      49.486   7.091  17.238  0.00  0.00    +0.000 A 
ATOM     25  S   UNL     1      49.603   6.406  18.797  0.00  0.00    +0.000 S 
ATOM     26  C   UNL     1      48.870   4.960  18.281  0.00  0.00    +0.000 A 
ATOM     27  N   UNL     1      48.635   3.940  19.150  0.00  0.00    +0.000 NA
ATOM     28  C   UNL     1      48.029   2.924  18.630  0.00  0.00    +0.000 A 
ATOM     29  N   UNL     1      47.646   2.831  17.320  0.00  0.00    +0.000 N 
ATOM     30  C   UNL     1      47.933   3.798  16.391  0.00  0.00    +0.000 A 
ATOM     31  O   UNL     1      47.699   3.618  15.199  0.00  0.00    +0.000 OA
ATOM     32  C   UNL     1      48.568   4.987  16.930  0.00  0.00    +0.000 A 
ATOM     33  H   UNL     1      47.201   1.995  16.966  0.00  0.00    +0.000 HD
ENDBRANCH  20  23
ENDBRANCH  18  19
ENDBRANCH   4  18
TORSDOF 6
ENDMDL
MODEL 3
REMARK VINA RESULT:    -7.522      2.306      2.870
REMARK INTER + INTRA:         -10.749
REMARK INTER:                 -10.003
REMARK INTRA:                  -0.746
REMARK UNBOUND:                -0.588
REMARK  Name = 
REMARK  6 active torsions:
REMARK  status: ('A' for Active; 'I' for Inactive)
REMARK    1  A    between atoms: C_2  and  C_25
REMARK    2  A    between atoms: N_3  and  C_4
REMARK    3  A    between atoms: C_4  and  C_5
REMARK    4  A    between atoms: C_8  and  C_9
REMARK    5  A    between atoms: C_9  and  N_10
REMARK    6  A    between atoms: C_11  and  C_13
REMARK                            x       y       z     vdW  Elec       q    Type
REMARK                         _______ _______ _______ _____ _____    ______ ____
ROOT
ATOM      1  C   UNL     1      43.577   4.281  11.855  0.00  0.00    +0.000 C 
ATOM      2  C   UNL     1      44.426   3.068  12.271  0.00  0.00    +0.000 C 
ATOM      3  C   UNL     1      45.931   3.340  12.265  0.00  0.00    +0.000 C 
ATOM      4  C   UNL     1      46.337   4.599  13.052  0.00  0.00    +0.000 C 
ATOM      5  C   UNL     1      45.508   5.801  12.578  0.00  0.00    +0.000 C 
ATOM      6  C   UNL     1      44.001   5.541  12.631  0.00  0.00    +0.000 C 
ENDROOT
BRANCH   1   7
ATOM      7  C   UNL     1      43.611   4.540  10.336  0.00  0.00    +0.000 C 
BRANCH   7  10
ATOM      8  O   UNL     1      45.741   5.008   8.511  0.00  0.00    +0.000 OA
ATOM      9  C   UNL     1      45.388   3.855   8.747  0.00  0.00    +0.000 C 
ATOM     10  N   UNL     1      44.367   3.540   9.614  0.00  0.00    +0.000 N 
ATOM     11  H   UNL     1      44.164   2.550   9.728  0.00  0.00    +0.000 HD
BRANCH   9  12
ATOM     12  C   UNL     1      46.031   2.702   8.150  0.00  0.00    +0.000 A 
ATOM     13  N   UNL     1      45.889   1.448   8.551  0.00  0.00    +0.000 NA
ATOM     14  C   UNL     1      46.692   0.706   7.719  0.00  0.00    +0.000 A 
ATOM     15  C   UNL     1      47.338   1.513   6.813  0.00  0.00    +0.000 A 
ATOM     16  N   UNL     1      46.895   2.776   7.085  0.00  0.00    +0.000 N 
ATOM     17  H   UNL     1      47.155   3.637   6.622  0.00  0.00    +0.000 HD
ENDBRANCH   9  12
ENDBRANCH   7  10
ENDBRANCH   1   7
BRANCH   4  18
ATOM     18  C   UNL     1      46.223   4.435  14.578  0.00  0.00    +0.000 C 
BRANCH  18  19
ATOM     19  N   UNL     1      47.138   5.280  15.306  0.00  0.00    +0.000 N 
ATOM     20  C   UNL     1      48.041   4.821  16.230  0.00  0.00    +0.000 C 
ATOM     21  O   UNL     1      48.064   3.659  16.620  0.00  0.00    +0.000 OA
ATOM     22  H   UNL     1      47.239   6.226  14.946  0.00  0.00    +0.000 HD
BRANCH  20  23
ATOM     23  C   UNL     1      48.971   5.833  16.753  0.00  0.00    +0.000 A 
ATOM     24  C   UNL     1      49.243   5.903  18.111  0.00  0.00    +0.000 A 
ATOM     25  S   UNL     1      50.330   7.152  18.524  0.00  0.00    +0.000 S 
ATOM     26  C   UNL     1      50.519   7.606  16.896  0.00  0.00    +0.000 A 
ATOM     27  N   UNL     1      51.359   8.615  16.538  0.00  0.00    +0.000 NA
ATOM     28  C   UNL     1      51.438   8.818  15.264  0.00  0.00    +0.000 A 
ATOM     29  N   UNL     1      50.748   8.113  14.317  0.00  0.00    +0.000 N 
ATOM     30  C   UNL     1      49.831   7.143  14.634  0.00  0.00    +0.000 A 
ATOM     31  O   UNL     1      49.129   6.631  13.767  0.00  0.00    +0.000 OA
ATOM     32  C   UNL     1      49.738   6.837  16.050  0.00  0.00    +0.000 A 
ATOM     33  H   UNL     1      50.830   8.340  13.336  0.00  0.00    +0.000 HD
ENDBRANCH  20  23
ENDBRANCH  18  19
ENDBRANCH   4  18
TORSDOF 6
ENDMDL
MODEL 4
REMARK VINA RESULT:    -7.357      3.716      4.269
REMARK INTER + INTRA:         -10.526
REMARK INTER:                 -10.067
REMARK INTRA:                  -0.459
REMARK UNBOUND:                -0.588
REMARK  Name = 
REMARK  6 active torsions:
REMARK  status: ('A' for Active; 'I' for Inactive)
REMARK    1  A    between atoms: C_2  and  C_25
REMARK    2  A    between atoms: N_3  and  C_4
REMARK    3  A    between atoms: C_4  and  C_5
REMARK    4  A    between atoms: C_8  and  C_9
REMARK    5  A    between atoms: C_9  and  N_10
REMARK    6  A    between atoms: C_11  and  C_13
REMARK                            x       y       z     vdW  Elec       q    Type
REMARK                         _______ _______ _______ _____ _____    ______ ____
ROOT
ATOM      1  C   UNL     1      44.027   3.605  12.333  0.00  0.00    +0.000 C 
ATOM      2  C   UNL     1      45.511   3.957  12.139  0.00  0.00    +0.000 C 
ATOM      3  C   UNL     1      45.742   5.187  11.258  0.00  0.00    +0.000 C 
ATOM      4  C   UNL     1      44.930   6.421  11.692  0.00  0.00    +0.000 C 
ATOM      5  C   UNL     1      43.446   6.048  11.828  0.00  0.00    +0.000 C 
ATOM      6  C   UNL     1      43.217   4.846  12.747  0.00  0.00    +0.000 C 
ENDROOT
BRANCH   1   7
ATOM      7  C   UNL     1      43.405   2.938  11.090  0.00  0.00    +0.000 C 
BRANCH   7  10
ATOM      8  O   UNL     1      44.197   3.954   8.555  0.00  0.00    +0.000 OA
ATOM      9  C   UNL     1      44.722   2.931   8.989  0.00  0.00    +0.000 C 
ATOM     10  N   UNL     1      44.397   2.371  10.203  0.00  0.00    +0.000 N 
ATOM     11  H   UNL     1      44.897   1.523  10.454  0.00  0.00    +0.000 HD
BRANCH   9  12
ATOM     12  C   UNL     1      45.759   2.218   8.270  0.00  0.00    +0.000 A 
ATOM     13  N   UNL     1      45.989   0.917   8.342  0.00  0.00    +0.000 NA
ATOM     14  C   UNL     1      47.068   0.692   7.522  0.00  0.00    +0.000 A 
ATOM     15  C   UNL     1      47.508   1.865   6.956  0.00  0.00    +0.000 A 
ATOM     16  N   UNL     1      46.655   2.824   7.425  0.00  0.00    +0.000 N 
ATOM     17  H   UNL     1      46.669   3.816   7.225  0.00  0.00    +0.000 HD
ENDBRANCH   9  12
ENDBRANCH   7  10
ENDBRANCH   1   7
BRANCH   4  18
ATOM     18  C   UNL     1      45.441   7.070  12.990  0.00  0.00    +0.000 C 
BRANCH  18  19
ATOM     19  N   UNL     1      46.797   7.551  12.883  0.00  0.00    +0.000 N 
ATOM     20  C   UNL     1      47.898   6.855  13.314  0.00  0.00    +0.000 C 
ATOM     21  O   UNL     1      47.819   5.811  13.952  0.00  0.00    +0.000 OA
ATOM     22  H   UNL     1      46.930   8.350  12.269  0.00  0.00    +0.000 HD
BRANCH  20  23
ATOM     23  C   UNL     1      49.194   7.466  12.985  0.00  0.00    +0.000 A 
ATOM     24  C   UNL     1      49.493   7.817  11.677  0.00  0.00    +0.000 A 
ATOM     25  S   UNL     1      51.049   8.495  11.493  0.00  0.00    +0.000 S 
ATOM     26  C   UNL     1      51.355   8.393  13.164  0.00  0.00    +0.000 A 
ATOM     27  N   UNL     1      52.523   8.844  13.695  0.00  0.00    +0.000 NA
ATOM     28  C   UNL     1      52.598   8.747  14.982  0.00  0.00    +0.000 A 
ATOM     29  N   UNL     1      51.616   8.231  15.784  0.00  0.00    +0.000 N 
ATOM     30  C   UNL     1      50.458   7.692  15.286  0.00  0.00    +0.000 A 
ATOM     31  O   UNL     1      49.665   7.112  16.023  0.00  0.00    +0.000 OA
ATOM     32  C   UNL     1      50.297   7.820  13.849  0.00  0.00    +0.000 A 
ATOM     33  H   UNL     1      51.747   8.155  16.783  0.00  0.00    +0.000 HD
ENDBRANCH  20  23
ENDBRANCH  18  19
ENDBRANCH   4  18
TORSDOF 6
ENDMDL
MODEL 5
REMARK VINA RESULT:    -7.354      2.446      2.972
REMARK INTER + INTRA:         -10.522
REMARK INTER:                 -10.630
REMARK INTRA:                   0.108
REMARK UNBOUND:                -0.588
REMARK  Name = 
REMARK  6 active torsions:
REMARK  status: ('A' for Active; 'I' for Inactive)
REMARK    1  A    between atoms: C_2  and  C_25
REMARK    2  A    between atoms: N_3  and  C_4
REMARK    3  A    between atoms: C_4  and  C_5
REMARK    4  A    between atoms: C_8  and  C_9
REMARK    5  A    between atoms: C_9  and  N_10
REMARK    6  A    between atoms: C_11  and  C_13
REMARK                            x       y       z     vdW  Elec       q    Type
REMARK                         _______ _______ _______ _____ _____    ______ ____
ROOT
ATOM      1  C   UNL     1      44.005   3.750  12.576  0.00  0.00    +0.000 C 
ATOM      2  C   UNL     1      45.539   3.810  12.483  0.00  0.00    +0.000 C 
ATOM      3  C   UNL     1      46.055   4.846  11.483  0.00  0.00    +0.000 C 
ATOM      4  C   UNL     1      45.454   6.250  11.679  0.00  0.00    +0.000 C 
ATOM      5  C   UNL     1      43.921   6.161  11.717  0.00  0.00    +0.000 C 
ATOM      6  C   UNL     1      43.410   5.157  12.752  0.00  0.00    +0.000 C 
ENDROOT
BRANCH   1   7
ATOM      7  C   UNL     1      43.363   3.033  11.371  0.00  0.00    +0.000 C 
BRANCH   7  10
ATOM      8  O   UNL     1      43.993   4.022   8.780  0.00  0.00    +0.000 OA
ATOM      9  C   UNL     1      44.586   3.036   9.213  0.00  0.00    +0.000 C 
ATOM     10  N   UNL     1      44.342   2.493  10.454  0.00  0.00    +0.000 N 
ATOM     11  H   UNL     1      44.894   1.676  10.702  0.00  0.00    +0.000 HD
BRANCH   9  12
ATOM     12  C   UNL     1      45.625   2.357   8.466  0.00  0.00    +0.000 A 
ATOM     13  N   UNL     1      45.859   1.054   8.485  0.00  0.00    +0.000 NA
ATOM     14  C   UNL     1      46.938   0.865   7.655  0.00  0.00    +0.000 A 
ATOM     15  C   UNL     1      47.373   2.062   7.138  0.00  0.00    +0.000 A 
ATOM     16  N   UNL     1      46.519   2.999   7.645  0.00  0.00    +0.000 N 
ATOM     17  H   UNL     1      46.529   3.998   7.486  0.00  0.00    +0.000 HD
ENDBRANCH   9  12
ENDBRANCH   7  10
ENDBRANCH   1   7
BRANCH   4  18
ATOM     18  C   UNL     1      45.981   6.976  12.930  0.00  0.00    +0.000 C 
BRANCH  18  19
ATOM     19  N   UNL     1      46.381   6.072  13.981  0.00  0.00    +0.000 N 
ATOM     20  C   UNL     1      47.672   5.927  14.422  0.00  0.00    +0.000 C 
ATOM     21  O   UNL     1      48.629   6.460  13.872  0.00  0.00    +0.000 OA
ATOM     22  H   UNL     1      45.623   5.692  14.542  0.00  0.00    +0.000 HD
BRANCH  20  23
ATOM     23  C   UNL     1      47.839   5.054  15.593  0.00  0.00    +0.000 A 
ATOM     24  C   UNL     1      47.510   3.709  15.520  0.00  0.00    +0.000 A 
ATOM     25  S   UNL     1      47.755   2.868  16.985  0.00  0.00    +0.000 S 
ATOM     26  C   UNL     1      48.362   4.260  17.751  0.00  0.00    +0.000 A 
ATOM     27  N   UNL     1      48.795   4.222  19.040  0.00  0.00    +0.000 NA
ATOM     28  C   UNL     1      49.274   5.341  19.476  0.00  0.00    +0.000 A 
ATOM     29  N   UNL     1      49.349   6.495  18.745  0.00  0.00    +0.000 N 
ATOM     30  C   UNL     1      48.851   6.602  17.471  0.00  0.00    +0.000 A 
ATOM     31  O   UNL     1      48.808   7.687  16.899  0.00  0.00    +0.000 OA
ATOM     32  C   UNL     1      48.348   5.360  16.912  0.00  0.00    +0.000 A 
ATOM     33  H   UNL     1      49.707   7.348  19.153  0.00  0.00    +0.000 HD
ENDBRANCH  20  23
ENDBRANCH  18  19
ENDBRANCH   4  18
TORSDOF 6
ENDMDL
MODEL 6
REMARK VINA RESULT:    -7.282      3.658      4.425
REMARK INTER + INTRA:         -10.425
REMARK INTER:                  -9.244
REMARK INTRA:                  -1.180
REMARK UNBOUND:                -0.588
REMARK  Name = 
REMARK  6 active torsions:
REMARK  status: ('A' for Active; 'I' for Inactive)
REMARK    1  A    between atoms: C_2  and  C_25
REMARK    2  A    between atoms: N_3  and  C_4
REMARK    3  A    between atoms: C_4  and  C_5
REMARK    4  A    between atoms: C_8  and  C_9
REMARK    5  A    between atoms: C_9  and  N_10
REMARK    6  A    between atoms: C_11  and  C_13
REMARK                            x       y       z     vdW  Elec       q    Type
REMARK                         _______ _______ _______ _____ _____    ______ ____
ROOT
ATOM      1  C   UNL     1      44.045   4.715  11.368  0.00  0.00    +0.000 C 
ATOM      2  C   UNL     1      45.557   4.685  11.649  0.00  0.00    +0.000 C 
ATOM      3  C   UNL     1      46.286   5.962  11.230  0.00  0.00    +0.000 C 
ATOM      4  C   UNL     1      45.645   7.250  11.778  0.00  0.00    +0.000 C 
ATOM      5  C   UNL     1      44.148   7.273  11.437  0.00  0.00    +0.000 C 
ATOM      6  C   UNL     1      43.413   6.013  11.900  0.00  0.00    +0.000 C 
ENDROOT
BRANCH   1   7
ATOM      7  C   UNL     1      43.712   4.519   9.875  0.00  0.00    +0.000 C 
BRANCH   7  10
ATOM      8  O   UNL     1      45.848   4.848   8.026  0.00  0.00    +0.000 OA
ATOM      9  C   UNL     1      45.515   3.717   8.372  0.00  0.00    +0.000 C 
ATOM     10  N   UNL     1      44.493   3.469   9.260  0.00  0.00    +0.000 N 
ATOM     11  H   UNL     1      44.308   2.491   9.469  0.00  0.00    +0.000 HD
BRANCH   9  12
ATOM     12  C   UNL     1      46.184   2.524   7.895  0.00  0.00    +0.000 A 
ATOM     13  N   UNL     1      46.037   1.307   8.397  0.00  0.00    +0.000 NA
ATOM     14  C   UNL     1      46.871   0.505   7.656  0.00  0.00    +0.000 A 
ATOM     15  C   UNL     1      47.541   1.239   6.706  0.00  0.00    +0.000 A 
ATOM     16  N   UNL     1      47.081   2.516   6.856  0.00  0.00    +0.000 N 
ATOM     17  H   UNL     1      47.350   3.337   6.330  0.00  0.00    +0.000 HD
ENDBRANCH   9  12
ENDBRANCH   7  10
ENDBRANCH   1   7
BRANCH   4  18
ATOM     18  C   UNL     1      45.855   7.448  13.290  0.00  0.00    +0.000 C 
BRANCH  18  19
ATOM     19  N   UNL     1      47.219   7.768  13.633  0.00  0.00    +0.000 N 
ATOM     20  C   UNL     1      48.131   6.855  14.097  0.00  0.00    +0.000 C 
ATOM     21  O   UNL     1      47.832   5.703  14.390  0.00  0.00    +0.000 OA
ATOM     22  H   UNL     1      47.550   8.673  13.307  0.00  0.00    +0.000 HD
BRANCH  20  23
ATOM     23  C   UNL     1      49.502   7.364  14.254  0.00  0.00    +0.000 A 
ATOM     24  C   UNL     1      50.153   7.267  15.474  0.00  0.00    +0.000 A 
ATOM     25  S   UNL     1      51.726   7.929  15.462  0.00  0.00    +0.000 S 
ATOM     26  C   UNL     1      51.613   8.317  13.809  0.00  0.00    +0.000 A 
ATOM     27  N   UNL     1      52.654   8.892  13.147  0.00  0.00    +0.000 NA
ATOM     28  C   UNL     1      52.443   9.086  11.887  0.00  0.00    +0.000 A 
ATOM     29  N   UNL     1      51.285   8.769  11.231  0.00  0.00    +0.000 N 
ATOM     30  C   UNL     1      50.183   8.264  11.872  0.00  0.00    +0.000 A 
ATOM     31  O   UNL     1      49.117   8.124  11.278  0.00  0.00    +0.000 OA
ATOM     32  C   UNL     1      50.380   7.977  13.281  0.00  0.00    +0.000 A 
ATOM     33  H   UNL     1      51.171   8.974  10.248  0.00  0.00    +0.000 HD
ENDBRANCH  20  23
ENDBRANCH  18  19
ENDBRANCH   4  18
TORSDOF 6
ENDMDL
MODEL 7
REMARK VINA RESULT:    -6.950      1.991      2.636
REMARK INTER + INTRA:          -9.976
REMARK INTER:                  -9.325
REMARK INTRA:                  -0.650
REMARK UNBOUND:                -0.588
REMARK  Name = 
REMARK  6 active torsions:
REMARK  status: ('A' for Active; 'I' for Inactive)
REMARK    1  A    between atoms: C_2  and  C_25
REMARK    2  A    between atoms: N_3  and  C_4
REMARK    3  A    between atoms: C_4  and  C_5
REMARK    4  A    between atoms: C_8  and  C_9
REMARK    5  A    between atoms: C_9  and  N_10
REMARK    6  A    between atoms: C_11  and  C_13
REMARK                            x       y       z     vdW  Elec       q    Type
REMARK                         _______ _______ _______ _____ _____    ______ ____
ROOT
ATOM      1  C   UNL     1      45.574   6.996  12.688  0.00  0.00    +0.000 C 
ATOM      2  C   UNL     1      46.342   5.754  13.170  0.00  0.00    +0.000 C 
ATOM      3  C   UNL     1      47.863   5.906  13.101  0.00  0.00    +0.000 C 
ATOM      4  C   UNL     1      48.389   7.183  13.780  0.00  0.00    +0.000 C 
ATOM      5  C   UNL     1      47.637   8.409  13.241  0.00  0.00    +0.000 C 
ATOM      6  C   UNL     1      46.118   8.271  13.355  0.00  0.00    +0.000 C 
ENDROOT
BRANCH   1   7
ATOM      7  C   UNL     1      45.577   7.140  11.153  0.00  0.00    +0.000 C 
BRANCH   7  10
ATOM      8  O   UNL     1      43.494   5.304  10.539  0.00  0.00    +0.000 OA
ATOM      9  C   UNL     1      44.649   5.041  10.213  0.00  0.00    +0.000 C 
ATOM     10  N   UNL     1      45.715   5.872  10.472  0.00  0.00    +0.000 N 
ATOM     11  H   UNL     1      46.624   5.546  10.154  0.00  0.00    +0.000 HD
BRANCH   9  12
ATOM     12  C   UNL     1      45.003   3.833   9.496  0.00  0.00    +0.000 A 
ATOM     13  N   UNL     1      45.608   3.786   8.319  0.00  0.00    +0.000 NA
ATOM     14  C   UNL     1      45.719   2.449   8.020  0.00  0.00    +0.000 A 
ATOM     15  C   UNL     1      45.169   1.676   9.015  0.00  0.00    +0.000 A 
ATOM     16  N   UNL     1      44.735   2.567   9.955  0.00  0.00    +0.000 N 
ATOM     17  H   UNL     1      44.272   2.366  10.832  0.00  0.00    +0.000 HD
ENDBRANCH   9  12
ENDBRANCH   7  10
ENDBRANCH   1   7
BRANCH   4  18
ATOM     18  C   UNL     1      48.314   7.140  15.317  0.00  0.00    +0.000 C 
BRANCH  18  19
ATOM     19  N   UNL     1      49.443   6.473  15.918  0.00  0.00    +0.000 N 
ATOM     20  C   UNL     1      49.363   5.680  17.035  0.00  0.00    +0.000 C 
ATOM     21  O   UNL     1      48.342   5.571  17.705  0.00  0.00    +0.000 OA
ATOM     22  H   UNL     1      50.283   6.436  15.348  0.00  0.00    +0.000 HD
BRANCH  20  23
ATOM     23  C   UNL     1      50.607   4.985  17.399  0.00  0.00    +0.000 A 
ATOM     24  C   UNL     1      51.699   5.699  17.870  0.00  0.00    +0.000 A 
ATOM     25  S   UNL     1      53.052   4.720  18.221  0.00  0.00    +0.000 S 
ATOM     26  C   UNL     1      52.207   3.302  17.809  0.00  0.00    +0.000 A 
ATOM     27  N   UNL     1      52.790   2.078  17.918  0.00  0.00    +0.000 NA
ATOM     28  C   UNL     1      52.015   1.089  17.617  0.00  0.00    +0.000 A 
ATOM     29  N   UNL     1      50.716   1.212  17.208  0.00  0.00    +0.000 N 
ATOM     30  C   UNL     1      50.112   2.427  17.006  0.00  0.00    +0.000 A 
ATOM     31  O   UNL     1      48.994   2.500  16.505  0.00  0.00    +0.000 OA
ATOM     32  C   UNL     1      50.920   3.574  17.379  0.00  0.00    +0.000 A 
ATOM     33  H   UNL     1      50.169   0.399  16.957  0.00  0.00    +0.000 HD
ENDBRANCH  20  23
ENDBRANCH  18  19
ENDBRANCH   4  18
TORSDOF 6
ENDMDL
MODEL 8
REMARK VINA RESULT:    -6.852      3.702      9.246
REMARK INTER + INTRA:          -9.843
REMARK INTER:                  -9.543
REMARK INTRA:                  -0.300
REMARK UNBOUND:                -0.588
REMARK  Name = 
REMARK  6 active torsions:
REMARK  status: ('A' for Active; 'I' for Inactive)
REMARK    1  A    between atoms: C_2  and  C_25
REMARK    2  A    between atoms: N_3  and  C_4
REMARK    3  A    between atoms: C_4  and  C_5
REMARK    4  A    between atoms: C_8  and  C_9
REMARK    5  A    between atoms: C_9  and  N_10
REMARK    6  A    between atoms: C_11  and  C_13
REMARK                            x       y       z     vdW  Elec       q    Type
REMARK                         _______ _______ _______ _____ _____    ______ ____
ROOT
ATOM      1  C   UNL     1      49.215   5.420  19.531  0.00  0.00    +0.000 C 
ATOM      2  C   UNL     1      48.926   6.104  18.183  0.00  0.00    +0.000 C 
ATOM      3  C   UNL     1      49.282   5.246  16.968  0.00  0.00    +0.000 C 
ATOM      4  C   UNL     1      48.680   3.829  17.013  0.00  0.00    +0.000 C 
ATOM      5  C   UNL     1      49.029   3.156  18.348  0.00  0.00    +0.000 C 
ATOM      6  C   UNL     1      48.628   3.998  19.561  0.00  0.00    +0.000 C 
ENDROOT
BRANCH   1   7
ATOM      7  C   UNL     1      50.716   5.398  19.878  0.00  0.00    +0.000 C 
BRANCH   7  10
ATOM      8  O   UNL     1      52.947   5.052  18.147  0.00  0.00    +0.000 OA
ATOM      9  C   UNL     1      52.435   4.070  18.680  0.00  0.00    +0.000 C 
ATOM     10  N   UNL     1      51.354   4.148  19.528  0.00  0.00    +0.000 N 
ATOM     11  H   UNL     1      51.017   3.267  19.907  0.00  0.00    +0.000 HD
BRANCH   9  12
ATOM     12  C   UNL     1      52.936   2.724  18.486  0.00  0.00    +0.000 A 
ATOM     13  N   UNL     1      54.198   2.347  18.619  0.00  0.00    +0.000 NA
ATOM     14  C   UNL     1      54.210   1.006  18.319  0.00  0.00    +0.000 A 
ATOM     15  C   UNL     1      52.950   0.565  17.988  0.00  0.00    +0.000 A 
ATOM     16  N   UNL     1      52.147   1.663  18.117  0.00  0.00    +0.000 N 
ATOM     17  H   UNL     1      51.151   1.724  17.953  0.00  0.00    +0.000 HD
ENDBRANCH   9  12
ENDBRANCH   7  10
ENDBRANCH   1   7
BRANCH   4  18
ATOM     18  C   UNL     1      47.160   3.798  16.776  0.00  0.00    +0.000 C 
BRANCH  18  19
ATOM     19  N   UNL     1      46.737   4.673  15.710  0.00  0.00    +0.000 N 
ATOM     20  C   UNL     1      46.699   4.313  14.387  0.00  0.00    +0.000 C 
ATOM     21  O   UNL     1      47.148   3.251  13.972  0.00  0.00    +0.000 OA
ATOM     22  H   UNL     1      46.253   5.518  16.004  0.00  0.00    +0.000 HD
BRANCH  20  23
ATOM     23  C   UNL     1      46.106   5.310  13.483  0.00  0.00    +0.000 A 
ATOM     24  C   UNL     1      46.811   6.454  13.139  0.00  0.00    +0.000 A 
ATOM     25  S   UNL     1      45.950   7.496  12.097  0.00  0.00    +0.000 S 
ATOM     26  C   UNL     1      44.628   6.428  12.026  0.00  0.00    +0.000 A 
ATOM     27  N   UNL     1      43.537   6.708  11.262  0.00  0.00    +0.000 NA
ATOM     28  C   UNL     1      42.632   5.785  11.266  0.00  0.00    +0.000 A 
ATOM     29  N   UNL     1      42.712   4.616  11.971  0.00  0.00    +0.000 N 
ATOM     30  C   UNL     1      43.753   4.327  12.816  0.00  0.00    +0.000 A 
ATOM     31  O   UNL     1      43.724   3.335  13.538  0.00  0.00    +0.000 OA
ATOM     32  C   UNL     1      44.826   5.306  12.811  0.00  0.00    +0.000 A 
ATOM     33  H   UNL     1      41.955   3.946  11.957  0.00  0.00    +0.000 HD
ENDBRANCH  20  23
ENDBRANCH  18  19
ENDBRANCH   4  18
TORSDOF 6
ENDMDL
MODEL 9
REMARK VINA RESULT:    -6.247      4.953      5.463
REMARK INTER + INTRA:          -9.026
REMARK INTER:                  -8.144
REMARK INTRA:                  -0.882
REMARK UNBOUND:                -0.588
REMARK  Name = 
REMARK  6 active torsions:
REMARK  status: ('A' for Active; 'I' for Inactive)
REMARK    1  A    between atoms: C_2  and  C_25
REMARK    2  A    between atoms: N_3  and  C_4
REMARK    3  A    between atoms: C_4  and  C_5
REMARK    4  A    between atoms: C_8  and  C_9
REMARK    5  A    between atoms: C_9  and  N_10
REMARK    6  A    between atoms: C_11  and  C_13
REMARK                            x       y       z     vdW  Elec       q    Type
REMARK                         _______ _______ _______ _____ _____    ______ ____
ROOT
ATOM      1  C   UNL     1      44.320   3.688  12.244  0.00  0.00    +0.000 C 
ATOM      2  C   UNL     1      45.715   4.281  11.981  0.00  0.00    +0.000 C 
ATOM      3  C   UNL     1      45.695   5.540  11.113  0.00  0.00    +0.000 C 
ATOM      4  C   UNL     1      44.717   6.620  11.610  0.00  0.00    +0.000 C 
ATOM      5  C   UNL     1      43.324   6.008  11.814  0.00  0.00    +0.000 C 
ATOM      6  C   UNL     1      43.343   4.776  12.721  0.00  0.00    +0.000 C 
ENDROOT
BRANCH   1   7
ATOM      7  C   UNL     1      43.750   2.942  11.021  0.00  0.00    +0.000 C 
BRANCH   7  10
ATOM      8  O   UNL     1      44.168   3.874   8.368  0.00  0.00    +0.000 OA
ATOM      9  C   UNL     1      44.910   3.011   8.831  0.00  0.00    +0.000 C 
ATOM     10  N   UNL     1      44.778   2.504  10.103  0.00  0.00    +0.000 N 
ATOM     11  H   UNL     1      45.450   1.792  10.374  0.00  0.00    +0.000 HD
BRANCH   9  12
ATOM     12  C   UNL     1      46.021   2.453   8.086  0.00  0.00    +0.000 A 
ATOM     13  N   UNL     1      46.390   1.182   8.093  0.00  0.00    +0.000 NA
ATOM     14  C   UNL     1      47.491   1.118   7.273  0.00  0.00    +0.000 A 
ATOM     15  C   UNL     1      47.803   2.360   6.773  0.00  0.00    +0.000 A 
ATOM     16  N   UNL     1      46.851   3.196   7.283  0.00  0.00    +0.000 N 
ATOM     17  H   UNL     1      46.758   4.192   7.135  0.00  0.00    +0.000 HD
ENDBRANCH   9  12
ENDBRANCH   7  10
ENDBRANCH   1   7
BRANCH   4  18
ATOM     18  C   UNL     1      45.185   7.331  12.892  0.00  0.00    +0.000 C 
BRANCH  18  19
ATOM     19  N   UNL     1      46.459   7.991  12.739  0.00  0.00    +0.000 N 
ATOM     20  C   UNL     1      46.613   9.264  12.251  0.00  0.00    +0.000 C 
ATOM     21  O   UNL     1      45.688   9.912  11.775  0.00  0.00    +0.000 OA
ATOM     22  H   UNL     1      47.240   7.549  13.216  0.00  0.00    +0.000 HD
BRANCH  20  23
ATOM     23  C   UNL     1      47.983   9.794  12.307  0.00  0.00    +0.000 A 
ATOM     24  C   UNL     1      48.222  11.076  12.778  0.00  0.00    +0.000 A 
ATOM     25  S   UNL     1      49.871  11.516  12.749  0.00  0.00    +0.000 S 
ATOM     26  C   UNL     1      50.329   9.988  12.158  0.00  0.00    +0.000 A 
ATOM     27  N   UNL     1      51.636   9.680  11.937  0.00  0.00    +0.000 NA
ATOM     28  C   UNL     1      51.838   8.469  11.534  0.00  0.00    +0.000 A 
ATOM     29  N   UNL     1      50.855   7.542  11.322  0.00  0.00    +0.000 N 
ATOM     30  C   UNL     1      49.521   7.831  11.453  0.00  0.00    +0.000 A 
ATOM     31  O   UNL     1      48.663   7.018  11.120  0.00  0.00    +0.000 OA
ATOM     32  C   UNL     1      49.236   9.163  11.955  0.00  0.00    +0.000 A 
ATOM     33  H   UNL     1      51.076   6.618  10.977  0.00  0.00    +0.000 HD
ENDBRANCH  20  23
ENDBRANCH  18  19
ENDBRANCH   4  18
TORSDOF 6
ENDMDL
