MODEL 1
REMARK VINA RESULT:    -8.474      0.000      0.000
REMARK INTER + INTRA:         -12.957
REMARK INTER:                 -11.941
REMARK INTRA:                  -1.016
REMARK UNBOUND:                -1.016
REMARK  Name = 
REMARK  7 active torsions:
REMARK  status: ('A' for Active; 'I' for Inactive)
REMARK    1  A    between atoms: C_2  and  C_3
REMARK    2  A    between atoms: C_6  and  N_7
REMARK    3  A    between atoms: N_7  and  C_8
REMARK    4  A    between atoms: C_8  and  C_9
REMARK    5  A    between atoms: C_9  and  C_12
REMARK    6  A    between atoms: C_16  and  O_17
REMARK    7  A    between atoms: O_17  and  C_18
REMARK                            x       y       z     vdW  Elec       q    Type
REMARK                         _______ _______ _______ _____ _____    ______ ____
ROOT
ATOM      1  C   UNL     1      43.910   4.815  12.493  0.00  0.00    +0.000 C 
ATOM      2  F   UNL     1      43.010   5.503  13.257  0.00  0.00    +0.000 F 
ATOM      3  F   UNL     1      43.766   3.506  12.870  0.00  0.00    +0.000 F 
ENDROOT
BRANCH   1   4
ATOM      4  C   UNL     1      45.324   5.317  12.708  0.00  0.00    +0.000 A 
ATOM      5  C   UNL     1      45.909   6.222  11.812  0.00  0.00    +0.000 A 
ATOM      6  C   UNL     1      47.199   6.708  12.037  0.00  0.00    +0.000 A 
ATOM      7  C   UNL     1      47.926   6.293  13.157  0.00  0.00    +0.000 A 
ATOM      8  C   UNL     1      47.362   5.380  14.045  0.00  0.00    +0.000 A 
ATOM      9  C   UNL     1      46.070   4.898  13.820  0.00  0.00    +0.000 A 
BRANCH   8  10
ATOM     10  O   UNL     1      47.955   4.924  15.193  0.00  0.00    +0.000 OA
BRANCH  10  11
ATOM     11  C   UNL     1      47.184   4.150  16.139  0.00  0.00    +0.000 C 
ATOM     12  C   UNL     1      47.156   4.622  17.609  0.00  0.00    +0.000 C 
ATOM     13  N   UNL     1      47.466   3.251  18.058  0.00  0.00    +0.000 NA
ATOM     14  C   UNL     1      47.920   2.911  16.698  0.00  0.00    +0.000 C 
ATOM     15  H   UNL     1      46.651   2.719  18.361  0.00  0.00    +0.000 HD
ENDBRANCH  10  11
ENDBRANCH   8  10
ENDBRANCH   1   4
BRANCH   1  16
ATOM     16  C   UNL     1      43.489   4.927  11.003  0.00  0.00    +0.000 C 
BRANCH  16  17
ATOM     17  N   UNL     1      43.549   3.635  10.293  0.00  0.00    +0.000 N 
ATOM     18  H   UNL     1      43.195   2.844  10.835  0.00  0.00    +0.000 HD
BRANCH  17  22
ATOM     19  C   UNL     1      46.563   2.510   7.566  0.00  0.00    +0.000 A 
ATOM     20  C   UNL     1      46.202   3.855   7.680  0.00  0.00    +0.000 A 
ATOM     21  C   UNL     1      45.221   4.247   8.597  0.00  0.00    +0.000 A 
ATOM     22  C   UNL     1      44.598   3.316   9.438  0.00  0.00    +0.000 A 
ATOM     23  C   UNL     1      44.964   1.971   9.300  0.00  0.00    +0.000 A 
ATOM     24  C   UNL     1      45.937   1.567   8.378  0.00  0.00    +0.000 A 
BRANCH  19  26
ATOM     25  N   UNL     1      48.348   1.787   5.829  0.00  0.00    +0.000 NA
ATOM     26  C   UNL     1      47.551   2.110   6.609  0.00  0.00    +0.000 C 
ENDBRANCH  19  26
ENDBRANCH  17  22
ENDBRANCH  16  17
ENDBRANCH   1  16
TORSDOF 7
ENDMDL
MODEL 2
REMARK VINA RESULT:    -7.608      1.744      1.905
REMARK INTER + INTRA:         -11.738
REMARK INTER:                 -10.770
REMARK INTRA:                  -0.968
REMARK UNBOUND:                -1.016
REMARK  Name = 
REMARK  7 active torsions:
REMARK  status: ('A' for Active; 'I' for Inactive)
REMARK    1  A    between atoms: C_2  and  C_3
REMARK    2  A    between atoms: C_6  and  N_7
REMARK    3  A    between atoms: N_7  and  C_8
REMARK    4  A    between atoms: C_8  and  C_9
REMARK    5  A    between atoms: C_9  and  C_12
REMARK    6  A    between atoms: C_16  and  O_17
REMARK    7  A    between atoms: O_17  and  C_18
REMARK                            x       y       z     vdW  Elec       q    Type
REMARK                         _______ _______ _______ _____ _____    ______ ____
ROOT
ATOM      1  C   UNL     1      44.359   4.851  12.398  0.00  0.00    +0.000 C 
ATOM      2  F   UNL     1      43.463   5.396  13.275  0.00  0.00    +0.000 F 
ATOM      3  F   UNL     1      44.456   3.534  12.765  0.00  0.00    +0.000 F 
ENDROOT
BRANCH   1   4
ATOM      4  C   UNL     1      45.698   5.558  12.458  0.00  0.00    +0.000 A 
ATOM      5  C   UNL     1      46.133   6.362  11.395  0.00  0.00    +0.000 A 
ATOM      6  C   UNL     1      47.352   7.040  11.474  0.00  0.00    +0.000 A 
ATOM      7  C   UNL     1      48.158   6.919  12.609  0.00  0.00    +0.000 A 
ATOM      8  C   UNL     1      47.744   6.108  13.664  0.00  0.00    +0.000 A 
ATOM      9  C   UNL     1      46.523   5.434  13.586  0.00  0.00    +0.000 A 
BRANCH   8  10
ATOM     10  O   UNL     1      48.424   5.934  14.841  0.00  0.00    +0.000 OA
BRANCH  10  11
ATOM     11  C   UNL     1      49.321   6.967  15.310  0.00  0.00    +0.000 C 
ATOM     12  C   UNL     1      50.461   6.556  16.266  0.00  0.00    +0.000 C 
ATOM     13  N   UNL     1      50.103   7.664  17.172  0.00  0.00    +0.000 NA
ATOM     14  C   UNL     1      48.788   7.773  16.516  0.00  0.00    +0.000 C 
ATOM     15  H   UNL     1      50.684   8.495  17.064  0.00  0.00    +0.000 HD
ENDBRANCH  10  11
ENDBRANCH   8  10
ENDBRANCH   1   4
BRANCH   1  16
ATOM     16  C   UNL     1      43.754   4.900  10.970  0.00  0.00    +0.000 C 
BRANCH  16  17
ATOM     17  N   UNL     1      43.804   3.596  10.282  0.00  0.00    +0.000 N 
ATOM     18  H   UNL     1      43.499   2.809  10.857  0.00  0.00    +0.000 HD
BRANCH  17  22
ATOM     19  C   UNL     1      46.687   2.493   7.408  0.00  0.00    +0.000 A 
ATOM     20  C   UNL     1      46.343   3.839   7.559  0.00  0.00    +0.000 A 
ATOM     21  C   UNL     1      45.406   4.222   8.524  0.00  0.00    +0.000 A 
ATOM     22  C   UNL     1      44.813   3.283   9.377  0.00  0.00    +0.000 A 
ATOM     23  C   UNL     1      45.161   1.938   9.201  0.00  0.00    +0.000 A 
ATOM     24  C   UNL     1      46.089   1.541   8.231  0.00  0.00    +0.000 A 
BRANCH  19  26
ATOM     25  N   UNL     1      48.394   1.778   5.590  0.00  0.00    +0.000 NA
ATOM     26  C   UNL     1      47.629   2.101   6.402  0.00  0.00    +0.000 C 
ENDBRANCH  19  26
ENDBRANCH  17  22
ENDBRANCH  16  17
ENDBRANCH   1  16
TORSDOF 7
ENDMDL
MODEL 3
REMARK VINA RESULT:    -7.465      2.367      3.693
REMARK INTER + INTRA:         -11.535
REMARK INTER:                 -10.836
REMARK INTRA:                  -0.700
REMARK UNBOUND:                -1.016
REMARK  Name = 
REMARK  7 active torsions:
REMARK  status: ('A' for Active; 'I' for Inactive)
REMARK    1  A    between atoms: C_2  and  C_3
REMARK    2  A    between atoms: C_6  and  N_7
REMARK    3  A    between atoms: N_7  and  C_8
REMARK    4  A    between atoms: C_8  and  C_9
REMARK    5  A    between atoms: C_9  and  C_12
REMARK    6  A    between atoms: C_16  and  O_17
REMARK    7  A    between atoms: O_17  and  C_18
REMARK                            x       y       z     vdW  Elec       q    Type
REMARK                         _______ _______ _______ _____ _____    ______ ____
ROOT
ATOM      1  C   UNL     1      43.841   4.546  12.421  0.00  0.00    +0.000 C 
ATOM      2  F   UNL     1      42.834   4.929  13.262  0.00  0.00    +0.000 F 
ATOM      3  F   UNL     1      43.858   3.177  12.491  0.00  0.00    +0.000 F 
ENDROOT
BRANCH   1   4
ATOM      4  C   UNL     1      45.169   5.153  12.830  0.00  0.00    +0.000 A 
ATOM      5  C   UNL     1      46.038   4.465  13.687  0.00  0.00    +0.000 A 
ATOM      6  C   UNL     1      47.276   5.015  14.029  0.00  0.00    +0.000 A 
ATOM      7  C   UNL     1      47.661   6.261  13.525  0.00  0.00    +0.000 A 
ATOM      8  C   UNL     1      46.797   6.961  12.686  0.00  0.00    +0.000 A 
ATOM      9  C   UNL     1      45.561   6.408  12.342  0.00  0.00    +0.000 A 
BRANCH   8  10
ATOM     10  O   UNL     1      47.071   8.170  12.101  0.00  0.00    +0.000 OA
BRANCH  10  11
ATOM     11  C   UNL     1      46.525   9.381  12.670  0.00  0.00    +0.000 C 
ATOM     12  C   UNL     1      45.014   9.645  12.496  0.00  0.00    +0.000 C 
ATOM     13  N   UNL     1      45.304  11.019  12.042  0.00  0.00    +0.000 NA
ATOM     14  C   UNL     1      46.704  10.636  11.785  0.00  0.00    +0.000 C 
ATOM     15  H   UNL     1      45.201  11.728  12.768  0.00  0.00    +0.000 HD
ENDBRANCH  10  11
ENDBRANCH   8  10
ENDBRANCH   1   4
BRANCH   1  16
ATOM     16  C   UNL     1      43.459   4.941  10.970  0.00  0.00    +0.000 C 
BRANCH  16  17
ATOM     17  N   UNL     1      43.404   3.783  10.057  0.00  0.00    +0.000 N 
ATOM     18  H   UNL     1      42.851   3.000  10.409  0.00  0.00    +0.000 HD
BRANCH  17  22
ATOM     19  C   UNL     1      46.558   2.479   7.578  0.00  0.00    +0.000 A 
ATOM     20  C   UNL     1      46.220   3.835   7.610  0.00  0.00    +0.000 A 
ATOM     21  C   UNL     1      45.192   4.285   8.445  0.00  0.00    +0.000 A 
ATOM     22  C   UNL     1      44.498   3.406   9.285  0.00  0.00    +0.000 A 
ATOM     23  C   UNL     1      44.842   2.049   9.229  0.00  0.00    +0.000 A 
ATOM     24  C   UNL     1      45.861   1.585   8.390  0.00  0.00    +0.000 A 
BRANCH  19  26
ATOM     25  N   UNL     1      48.431   1.643   5.991  0.00  0.00    +0.000 NA
ATOM     26  C   UNL     1      47.594   2.018   6.704  0.00  0.00    +0.000 C 
ENDBRANCH  19  26
ENDBRANCH  17  22
ENDBRANCH  16  17
ENDBRANCH   1  16
TORSDOF 7
ENDMDL
MODEL 4
REMARK VINA RESULT:    -7.170      2.970      3.676
REMARK INTER + INTRA:         -11.120
REMARK INTER:                 -10.353
REMARK INTRA:                  -0.766
REMARK UNBOUND:                -1.016
REMARK  Name = 
REMARK  7 active torsions:
REMARK  status: ('A' for Active; 'I' for Inactive)
REMARK    1  A    between atoms: C_2  and  C_3
REMARK    2  A    between atoms: C_6  and  N_7
REMARK    3  A    between atoms: N_7  and  C_8
REMARK    4  A    between atoms: C_8  and  C_9
REMARK    5  A    between atoms: C_9  and  C_12
REMARK    6  A    between atoms: C_16  and  O_17
REMARK    7  A    between atoms: O_17  and  C_18
REMARK                            x       y       z     vdW  Elec       q    Type
REMARK                         _______ _______ _______ _____ _____    ______ ____
ROOT
ATOM      1  C   UNL     1      44.863   5.372  12.114  0.00  0.00    +0.000 C 
ATOM      2  F   UNL     1      44.132   5.205  13.256  0.00  0.00    +0.000 F 
ATOM      3  F   UNL     1      45.655   4.257  12.034  0.00  0.00    +0.000 F 
ENDROOT
BRANCH   1   4
ATOM      4  C   UNL     1      45.681   6.648  12.157  0.00  0.00    +0.000 A 
ATOM      5  C   UNL     1      45.118   7.845  12.618  0.00  0.00    +0.000 A 
ATOM      6  C   UNL     1      45.889   9.008  12.689  0.00  0.00    +0.000 A 
ATOM      7  C   UNL     1      47.230   8.994  12.295  0.00  0.00    +0.000 A 
ATOM      8  C   UNL     1      47.795   7.814  11.818  0.00  0.00    +0.000 A 
ATOM      9  C   UNL     1      47.024   6.651  11.751  0.00  0.00    +0.000 A 
BRANCH   8  10
ATOM     10  O   UNL     1      49.102   7.661  11.435  0.00  0.00    +0.000 OA
BRANCH  10  11
ATOM     11  C   UNL     1      50.125   8.491  12.031  0.00  0.00    +0.000 C 
ATOM     12  C   UNL     1      51.585   8.274  11.582  0.00  0.00    +0.000 C 
ATOM     13  N   UNL     1      52.015   8.233  12.993  0.00  0.00    +0.000 NA
ATOM     14  C   UNL     1      50.622   7.996  13.408  0.00  0.00    +0.000 C 
ATOM     15  H   UNL     1      52.400   9.113  13.337  0.00  0.00    +0.000 HD
ENDBRANCH  10  11
ENDBRANCH   8  10
ENDBRANCH   1   4
BRANCH   1  16
ATOM     16  C   UNL     1      43.900   5.356  10.897  0.00  0.00    +0.000 C 
BRANCH  16  17
ATOM     17  N   UNL     1      43.703   4.004  10.340  0.00  0.00    +0.000 N 
ATOM     18  H   UNL     1      43.342   3.325  11.012  0.00  0.00    +0.000 HD
BRANCH  17  22
ATOM     19  C   UNL     1      46.538   2.509   7.597  0.00  0.00    +0.000 A 
ATOM     20  C   UNL     1      45.828   1.621   8.410  0.00  0.00    +0.000 A 
ATOM     21  C   UNL     1      44.868   2.100   9.308  0.00  0.00    +0.000 A 
ATOM     22  C   UNL     1      44.573   3.466   9.397  0.00  0.00    +0.000 A 
ATOM     23  C   UNL     1      45.304   4.342   8.584  0.00  0.00    +0.000 A 
ATOM     24  C   UNL     1      46.274   3.874   7.690  0.00  0.00    +0.000 A 
BRANCH  19  26
ATOM     25  N   UNL     1      48.351   1.617   5.972  0.00  0.00    +0.000 NA
ATOM     26  C   UNL     1      47.537   2.017   6.697  0.00  0.00    +0.000 C 
ENDBRANCH  19  26
ENDBRANCH  17  22
ENDBRANCH  16  17
ENDBRANCH   1  16
TORSDOF 7
ENDMDL
MODEL 5
REMARK VINA RESULT:    -7.042      2.691      3.205
REMARK INTER + INTRA:         -10.940
REMARK INTER:                 -10.200
REMARK INTRA:                  -0.740
REMARK UNBOUND:                -1.016
REMARK  Name = 
REMARK  7 active torsions:
REMARK  status: ('A' for Active; 'I' for Inactive)
REMARK    1  A    between atoms: C_2  and  C_3
REMARK    2  A    between atoms: C_6  and  N_7
REMARK    3  A    between atoms: N_7  and  C_8
REMARK    4  A    between atoms: C_8  and  C_9
REMARK    5  A    between atoms: C_9  and  C_12
REMARK    6  A    between atoms: C_16  and  O_17
REMARK    7  A    between atoms: O_17  and  C_18
REMARK                            x       y       z     vdW  Elec       q    Type
REMARK                         _______ _______ _______ _____ _____    ______ ____
ROOT
ATOM      1  C   UNL     1      44.429   5.339  12.177  0.00  0.00    +0.000 C 
ATOM      2  F   UNL     1      43.591   5.150  13.240  0.00  0.00    +0.000 F 
ATOM      3  F   UNL     1      45.317   4.297  12.238  0.00  0.00    +0.000 F 
ENDROOT
BRANCH   1   4
ATOM      4  C   UNL     1      45.125   6.684  12.247  0.00  0.00    +0.000 A 
ATOM      5  C   UNL     1      44.558   7.816  11.647  0.00  0.00    +0.000 A 
ATOM      6  C   UNL     1      45.188   9.060  11.747  0.00  0.00    +0.000 A 
ATOM      7  C   UNL     1      46.393   9.189  12.442  0.00  0.00    +0.000 A 
ATOM      8  C   UNL     1      46.975   8.066  13.027  0.00  0.00    +0.000 A 
ATOM      9  C   UNL     1      46.343   6.824  12.930  0.00  0.00    +0.000 A 
BRANCH   8  10
ATOM     10  O   UNL     1      48.131   8.067  13.762  0.00  0.00    +0.000 OA
BRANCH  10  11
ATOM     11  C   UNL     1      49.354   8.565  13.173  0.00  0.00    +0.000 C 
ATOM     12  C   UNL     1      49.970   7.770  12.003  0.00  0.00    +0.000 C 
ATOM     13  N   UNL     1      51.289   7.816  12.662  0.00  0.00    +0.000 NA
ATOM     14  C   UNL     1      50.637   8.164  13.937  0.00  0.00    +0.000 C 
ATOM     15  H   UNL     1      51.907   8.545  12.306  0.00  0.00    +0.000 HD
ENDBRANCH  10  11
ENDBRANCH   8  10
ENDBRANCH   1   4
BRANCH   1  16
ATOM     16  C   UNL     1      43.614   5.189  10.865  0.00  0.00    +0.000 C 
BRANCH  16  17
ATOM     17  N   UNL     1      43.690   3.829  10.296  0.00  0.00    +0.000 N 
ATOM     18  H   UNL     1      43.388   3.093  10.935  0.00  0.00    +0.000 HD
BRANCH  17  22
ATOM     19  C   UNL     1      46.617   2.529   7.552  0.00  0.00    +0.000 A 
ATOM     20  C   UNL     1      46.311   3.890   7.641  0.00  0.00    +0.000 A 
ATOM     21  C   UNL     1      45.359   4.339   8.564  0.00  0.00    +0.000 A 
ATOM     22  C   UNL     1      44.714   3.451   9.433  0.00  0.00    +0.000 A 
ATOM     23  C   UNL     1      45.024   2.090   9.319  0.00  0.00    +0.000 A 
ATOM     24  C   UNL     1      45.967   1.629   8.393  0.00  0.00    +0.000 A 
BRANCH  19  26
ATOM     25  N   UNL     1      48.355   1.704   5.812  0.00  0.00    +0.000 NA
ATOM     26  C   UNL     1      47.575   2.071   6.590  0.00  0.00    +0.000 C 
ENDBRANCH  19  26
ENDBRANCH  17  22
ENDBRANCH  16  17
ENDBRANCH   1  16
TORSDOF 7
ENDMDL
MODEL 6
REMARK VINA RESULT:    -6.901      2.609      8.017
REMARK INTER + INTRA:         -10.742
REMARK INTER:                 -10.150
REMARK INTRA:                  -0.592
REMARK UNBOUND:                -1.016
REMARK  Name = 
REMARK  7 active torsions:
REMARK  status: ('A' for Active; 'I' for Inactive)
REMARK    1  A    between atoms: C_2  and  C_3
REMARK    2  A    between atoms: C_6  and  N_7
REMARK    3  A    between atoms: N_7  and  C_8
REMARK    4  A    between atoms: C_8  and  C_9
REMARK    5  A    between atoms: C_9  and  C_12
REMARK    6  A    between atoms: C_16  and  O_17
REMARK    7  A    between atoms: O_17  and  C_18
REMARK                            x       y       z     vdW  Elec       q    Type
REMARK                         _______ _______ _______ _____ _____    ______ ____
ROOT
ATOM      1  C   UNL     1      45.675   6.171  11.234  0.00  0.00    +0.000 C 
ATOM      2  F   UNL     1      44.772   7.180  11.050  0.00  0.00    +0.000 F 
ATOM      3  F   UNL     1      46.869   6.682  10.796  0.00  0.00    +0.000 F 
ENDROOT
BRANCH   1   4
ATOM      4  C   UNL     1      45.279   4.921  10.473  0.00  0.00    +0.000 A 
ATOM      5  C   UNL     1      44.503   3.926  11.084  0.00  0.00    +0.000 A 
ATOM      6  C   UNL     1      44.111   2.794  10.364  0.00  0.00    +0.000 A 
ATOM      7  C   UNL     1      44.492   2.637   9.029  0.00  0.00    +0.000 A 
ATOM      8  C   UNL     1      45.279   3.611   8.418  0.00  0.00    +0.000 A 
ATOM      9  C   UNL     1      45.667   4.744   9.137  0.00  0.00    +0.000 A 
BRANCH   8  10
ATOM     10  O   UNL     1      45.688   3.591   7.110  0.00  0.00    +0.000 OA
BRANCH  10  11
ATOM     11  C   UNL     1      47.072   3.319   6.796  0.00  0.00    +0.000 C 
ATOM     12  C   UNL     1      47.421   2.915   5.348  0.00  0.00    +0.000 C 
ATOM     13  N   UNL     1      48.212   1.776   5.852  0.00  0.00    +0.000 NA
ATOM     14  C   UNL     1      47.536   1.889   7.157  0.00  0.00    +0.000 C 
ATOM     15  H   UNL     1      49.215   1.953   5.895  0.00  0.00    +0.000 HD
ENDBRANCH  10  11
ENDBRANCH   8  10
ENDBRANCH   1   4
BRANCH   1  16
ATOM     16  C   UNL     1      45.810   5.892  12.754  0.00  0.00    +0.000 C 
BRANCH  16  17
ATOM     17  N   UNL     1      47.214   5.785  13.195  0.00  0.00    +0.000 N 
ATOM     18  H   UNL     1      47.856   5.466  12.467  0.00  0.00    +0.000 HD
BRANCH  17  22
ATOM     19  C   UNL     1      48.122   4.725  17.175  0.00  0.00    +0.000 A 
ATOM     20  C   UNL     1      47.301   3.893  16.409  0.00  0.00    +0.000 A 
ATOM     21  C   UNL     1      47.010   4.219  15.080  0.00  0.00    +0.000 A 
ATOM     22  C   UNL     1      47.551   5.361  14.476  0.00  0.00    +0.000 A 
ATOM     23  C   UNL     1      48.360   6.190  15.264  0.00  0.00    +0.000 A 
ATOM     24  C   UNL     1      48.649   5.879  16.598  0.00  0.00    +0.000 A 
BRANCH  19  26
ATOM     25  N   UNL     1      48.626   4.135  19.650  0.00  0.00    +0.000 NA
ATOM     26  C   UNL     1      48.398   4.400  18.542  0.00  0.00    +0.000 C 
ENDBRANCH  19  26
ENDBRANCH  17  22
ENDBRANCH  16  17
ENDBRANCH   1  16
TORSDOF 7
ENDMDL
MODEL 7
REMARK VINA RESULT:    -6.853      3.114      4.486
REMARK INTER + INTRA:         -10.673
REMARK INTER:                 -10.233
REMARK INTRA:                  -0.440
REMARK UNBOUND:                -1.016
REMARK  Name = 
REMARK  7 active torsions:
REMARK  status: ('A' for Active; 'I' for Inactive)
REMARK    1  A    between atoms: C_2  and  C_3
REMARK    2  A    between atoms: C_6  and  N_7
REMARK    3  A    between atoms: N_7  and  C_8
REMARK    4  A    between atoms: C_8  and  C_9
REMARK    5  A    between atoms: C_9  and  C_12
REMARK    6  A    between atoms: C_16  and  O_17
REMARK    7  A    between atoms: O_17  and  C_18
REMARK                            x       y       z     vdW  Elec       q    Type
REMARK                         _______ _______ _______ _____ _____    ______ ____
ROOT
ATOM      1  C   UNL     1      43.589   5.236  12.073  0.00  0.00    +0.000 C 
ATOM      2  F   UNL     1      42.586   5.670  11.252  0.00  0.00    +0.000 F 
ATOM      3  F   UNL     1      43.015   5.145  13.314  0.00  0.00    +0.000 F 
ENDROOT
BRANCH   1   4
ATOM      4  C   UNL     1      44.770   6.187  12.061  0.00  0.00    +0.000 A 
ATOM      5  C   UNL     1      46.044   5.743  11.685  0.00  0.00    +0.000 A 
ATOM      6  C   UNL     1      47.120   6.634  11.642  0.00  0.00    +0.000 A 
ATOM      7  C   UNL     1      46.940   7.978  11.979  0.00  0.00    +0.000 A 
ATOM      8  C   UNL     1      45.681   8.427  12.372  0.00  0.00    +0.000 A 
ATOM      9  C   UNL     1      44.605   7.536  12.411  0.00  0.00    +0.000 A 
BRANCH   8  10
ATOM     10  O   UNL     1      45.367   9.722  12.692  0.00  0.00    +0.000 OA
BRANCH  10  11
ATOM     11  C   UNL     1      44.507  10.488  11.819  0.00  0.00    +0.000 C 
ATOM     12  C   UNL     1      43.901   9.774  10.591  0.00  0.00    +0.000 C 
ATOM     13  N   UNL     1      44.324  10.893   9.728  0.00  0.00    +0.000 NA
ATOM     14  C   UNL     1      45.260  11.343  10.774  0.00  0.00    +0.000 C 
ATOM     15  H   UNL     1      43.584  11.565   9.525  0.00  0.00    +0.000 HD
ENDBRANCH  10  11
ENDBRANCH   8  10
ENDBRANCH   1   4
BRANCH   1  16
ATOM     16  C   UNL     1      44.007   3.806  11.640  0.00  0.00    +0.000 C 
BRANCH  16  17
ATOM     17  N   UNL     1      43.742   3.540  10.213  0.00  0.00    +0.000 N 
ATOM     18  H   UNL     1      42.865   3.047  10.037  0.00  0.00    +0.000 HD
BRANCH  17  22
ATOM     19  C   UNL     1      46.666   2.410   7.391  0.00  0.00    +0.000 A 
ATOM     20  C   UNL     1      46.302   3.754   7.508  0.00  0.00    +0.000 A 
ATOM     21  C   UNL     1      45.351   4.147   8.456  0.00  0.00    +0.000 A 
ATOM     22  C   UNL     1      44.763   3.220   9.324  0.00  0.00    +0.000 A 
ATOM     23  C   UNL     1      45.130   1.875   9.183  0.00  0.00    +0.000 A 
ATOM     24  C   UNL     1      46.073   1.469   8.231  0.00  0.00    +0.000 A 
BRANCH  19  26
ATOM     25  N   UNL     1      48.402   1.686   5.606  0.00  0.00    +0.000 NA
ATOM     26  C   UNL     1      47.622   2.008   6.404  0.00  0.00    +0.000 C 
ENDBRANCH  19  26
ENDBRANCH  17  22
ENDBRANCH  16  17
ENDBRANCH   1  16
TORSDOF 7
ENDMDL
MODEL 8
REMARK VINA RESULT:    -6.089      2.767      4.180
REMARK INTER + INTRA:          -9.597
REMARK INTER:                  -8.720
REMARK INTRA:                  -0.876
REMARK UNBOUND:                -1.016
REMARK  Name = 
REMARK  7 active torsions:
REMARK  status: ('A' for Active; 'I' for Inactive)
REMARK    1  A    between atoms: C_2  and  C_3
REMARK    2  A    between atoms: C_6  and  N_7
REMARK    3  A    between atoms: N_7  and  C_8
REMARK    4  A    between atoms: C_8  and  C_9
REMARK    5  A    between atoms: C_9  and  C_12
REMARK    6  A    between atoms: C_16  and  O_17
REMARK    7  A    between atoms: O_17  and  C_18
REMARK                            x       y       z     vdW  Elec       q    Type
REMARK                         _______ _______ _______ _____ _____    ______ ____
ROOT
ATOM      1  C   UNL     1      47.788   8.075  12.843  0.00  0.00    +0.000 C 
ATOM      2  F   UNL     1      48.195   7.044  12.042  0.00  0.00    +0.000 F 
ATOM      3  F   UNL     1      48.358   9.194  12.295  0.00  0.00    +0.000 F 
ENDROOT
BRANCH   1   4
ATOM      4  C   UNL     1      48.216   7.865  14.282  0.00  0.00    +0.000 A 
ATOM      5  C   UNL     1      48.186   8.922  15.201  0.00  0.00    +0.000 A 
ATOM      6  C   UNL     1      48.547   8.711  16.534  0.00  0.00    +0.000 A 
ATOM      7  C   UNL     1      48.949   7.445  16.967  0.00  0.00    +0.000 A 
ATOM      8  C   UNL     1      49.001   6.391  16.058  0.00  0.00    +0.000 A 
ATOM      9  C   UNL     1      48.636   6.602  14.726  0.00  0.00    +0.000 A 
BRANCH   8  10
ATOM     10  O   UNL     1      49.343   5.099  16.364  0.00  0.00    +0.000 OA
BRANCH  10  11
ATOM     11  C   UNL     1      48.598   4.380  17.372  0.00  0.00    +0.000 C 
ATOM     12  C   UNL     1      48.217   2.913  17.081  0.00  0.00    +0.000 C 
ATOM     13  N   UNL     1      46.826   3.190  17.487  0.00  0.00    +0.000 NA
ATOM     14  C   UNL     1      47.074   4.635  17.338  0.00  0.00    +0.000 C 
ATOM     15  H   UNL     1      46.608   2.909  18.443  0.00  0.00    +0.000 HD
ENDBRANCH  10  11
ENDBRANCH   8  10
ENDBRANCH   1   4
BRANCH   1  16
ATOM     16  C   UNL     1      46.248   8.222  12.724  0.00  0.00    +0.000 C 
BRANCH  16  17
ATOM     17  N   UNL     1      45.519   7.040  13.224  0.00  0.00    +0.000 N 
ATOM     18  H   UNL     1      45.717   6.810  14.199  0.00  0.00    +0.000 HD
BRANCH  17  22
ATOM     19  C   UNL     1      44.998   3.745  10.644  0.00  0.00    +0.000 A 
ATOM     20  C   UNL     1      45.100   3.533  12.022  0.00  0.00    +0.000 A 
ATOM     21  C   UNL     1      45.250   4.619  12.892  0.00  0.00    +0.000 A 
ATOM     22  C   UNL     1      45.272   5.936  12.416  0.00  0.00    +0.000 A 
ATOM     23  C   UNL     1      45.181   6.126  11.031  0.00  0.00    +0.000 A 
ATOM     24  C   UNL     1      45.042   5.047  10.151  0.00  0.00    +0.000 A 
BRANCH  19  26
ATOM     25  N   UNL     1      44.760   1.728   9.031  0.00  0.00    +0.000 NA
ATOM     26  C   UNL     1      44.869   2.630   9.755  0.00  0.00    +0.000 C 
ENDBRANCH  19  26
ENDBRANCH  17  22
ENDBRANCH  16  17
ENDBRANCH   1  16
TORSDOF 7
ENDMDL
MODEL 9
REMARK VINA RESULT:    -5.931      3.478      8.136
REMARK INTER + INTRA:          -9.374
REMARK INTER:                  -8.846
REMARK INTRA:                  -0.529
REMARK UNBOUND:                -1.016
REMARK  Name = 
REMARK  7 active torsions:
REMARK  status: ('A' for Active; 'I' for Inactive)
REMARK    1  A    between atoms: C_2  and  C_3
REMARK    2  A    between atoms: C_6  and  N_7
REMARK    3  A    between atoms: N_7  and  C_8
REMARK    4  A    between atoms: C_8  and  C_9
REMARK    5  A    between atoms: C_9  and  C_12
REMARK    6  A    between atoms: C_16  and  O_17
REMARK    7  A    between atoms: O_17  and  C_18
REMARK                            x       y       z     vdW  Elec       q    Type
REMARK                         _______ _______ _______ _____ _____    ______ ____
ROOT
ATOM      1  C   UNL     1      47.512   4.314  15.823  0.00  0.00    +0.000 C 
ATOM      2  F   UNL     1      47.819   3.007  15.570  0.00  0.00    +0.000 F 
ATOM      3  F   UNL     1      46.392   4.268  16.611  0.00  0.00    +0.000 F 
ENDROOT
BRANCH   1   4
ATOM      4  C   UNL     1      47.275   5.089  14.542  0.00  0.00    +0.000 A 
ATOM      5  C   UNL     1      48.039   6.224  14.238  0.00  0.00    +0.000 A 
ATOM      6  C   UNL     1      47.839   6.911  13.038  0.00  0.00    +0.000 A 
ATOM      7  C   UNL     1      46.870   6.480  12.128  0.00  0.00    +0.000 A 
ATOM      8  C   UNL     1      46.093   5.363  12.428  0.00  0.00    +0.000 A 
ATOM      9  C   UNL     1      46.296   4.675  13.626  0.00  0.00    +0.000 A 
BRANCH   8  10
ATOM     10  O   UNL     1      45.138   4.821  11.607  0.00  0.00    +0.000 OA
BRANCH  10  11
ATOM     11  C   UNL     1      44.769   3.432  11.759  0.00  0.00    +0.000 C 
ATOM     12  C   UNL     1      44.074   2.734  10.570  0.00  0.00    +0.000 C 
ATOM     13  N   UNL     1      43.037   2.211  11.480  0.00  0.00    +0.000 NA
ATOM     14  C   UNL     1      43.427   3.207  12.493  0.00  0.00    +0.000 C 
ATOM     15  H   UNL     1      43.189   1.246  11.774  0.00  0.00    +0.000 HD
ENDBRANCH  10  11
ENDBRANCH   8  10
ENDBRANCH   1   4
BRANCH   1  16
ATOM     16  C   UNL     1      48.656   4.942  16.663  0.00  0.00    +0.000 C 
BRANCH  16  17
ATOM     17  N   UNL     1      49.096   4.074  17.772  0.00  0.00    +0.000 N 
ATOM     18  H   UNL     1      48.847   4.423  18.699  0.00  0.00    +0.000 HD
BRANCH  17  22
ATOM     19  C   UNL     1      52.764   1.997  17.907  0.00  0.00    +0.000 A 
ATOM     20  C   UNL     1      51.638   1.375  17.361  0.00  0.00    +0.000 A 
ATOM     21  C   UNL     1      50.420   2.060  17.287  0.00  0.00    +0.000 A 
ATOM     22  C   UNL     1      50.302   3.384  17.729  0.00  0.00    +0.000 A 
ATOM     23  C   UNL     1      51.438   3.985  18.285  0.00  0.00    +0.000 A 
ATOM     24  C   UNL     1      52.659   3.306  18.373  0.00  0.00    +0.000 A 
BRANCH  19  26
ATOM     25  N   UNL     1      55.004   0.702  18.081  0.00  0.00    +0.000 NA
ATOM     26  C   UNL     1      54.003   1.284  18.002  0.00  0.00    +0.000 C 
ENDBRANCH  19  26
ENDBRANCH  17  22
ENDBRANCH  16  17
ENDBRANCH   1  16
TORSDOF 7
ENDMDL
