MODEL 1
REMARK VINA RESULT:    -7.977      0.000      0.000
REMARK INTER + INTRA:         -10.711
REMARK INTER:                 -10.075
REMARK INTRA:                  -0.636
REMARK UNBOUND:                -0.636
REMARK  Name = 
REMARK  5 active torsions:
REMARK  status: ('A' for Active; 'I' for Inactive)
REMARK    1  A    between atoms: N_1  and  C_2
REMARK    2  A    between atoms: C_2  and  C_3
REMARK    3  A    between atoms: C_3  and  C_4
REMARK    4  A    between atoms: C_7  and  C_8
REMARK    5  A    between atoms: C_8  and  N_9
REMARK                            x       y       z     vdW  Elec       q    Type
REMARK                         _______ _______ _______ _____ _____    ______ ____
ROOT
ATOM      1  C   UNL     1      45.900   2.562   8.187  0.00  0.00    +0.000 A 
ATOM      2  C   UNL     1      45.017   1.990   9.112  0.00  0.00    +0.000 A 
ATOM      3  C   UNL     1      44.267   2.791   9.977  0.00  0.00    +0.000 A 
ATOM      4  C   UNL     1      44.381   4.186   9.938  0.00  0.00    +0.000 A 
ATOM      5  C   UNL     1      45.261   4.758   9.030  0.00  0.00    +0.000 A 
ATOM      6  C   UNL     1      46.023   3.957   8.165  0.00  0.00    +0.000 A 
ENDROOT
BRANCH   1   7
ATOM      7  C   UNL     1      46.761   1.698   7.285  0.00  0.00    +0.000 C 
BRANCH   7   8
ATOM      8  C   UNL     1      48.015   2.415   6.749  0.00  0.00    +0.000 C 
BRANCH   8   9
ATOM      9  N   UNL     1      48.438   1.848   5.470  0.00  0.00    +0.000 NA
ATOM     10  H   UNL     1      47.938   2.312   4.716  0.00  0.00    +0.000 HD
ATOM     11  H   UNL     1      48.174   0.864   5.425  0.00  0.00    +0.000 HD
ENDBRANCH   8   9
ENDBRANCH   7   8
ENDBRANCH   1   7
BRANCH   4  12
ATOM     12  C   UNL     1      43.521   5.064  10.827  0.00  0.00    +0.000 C 
BRANCH  12  13
ATOM     13  N   UNL     1      44.284   6.007  11.648  0.00  0.00    +0.000 N 
ATOM     14  C   UNL     1      44.368   7.356  11.388  0.00  0.00    +0.000 A 
ATOM     15  C   UNL     1      45.195   7.919  12.334  0.00  0.00    +0.000 A 
ATOM     16  C   UNL     1      45.948   6.851  12.877  0.00  0.00    +0.000 A 
ATOM     17  C   UNL     1      47.168   6.790  13.577  0.00  0.00    +0.000 A 
ATOM     18  C   UNL     1      47.639   5.548  14.014  0.00  0.00    +0.000 A 
ATOM     19  C   UNL     1      46.853   4.420  13.850  0.00  0.00    +0.000 A 
ATOM     20  F   UNL     1      47.284   3.254  14.349  0.00  0.00    +0.000 F 
ATOM     21  C   UNL     1      45.638   4.446  13.148  0.00  0.00    +0.000 A 
ATOM     22  C   UNL     1      45.254   5.665  12.584  0.00  0.00    +0.000 A 
ENDBRANCH  12  13
ENDBRANCH   4  12
TORSDOF 5
ENDMDL
MODEL 2
REMARK VINA RESULT:    -7.079      1.881      2.557
REMARK INTER + INTRA:          -9.576
REMARK INTER:                  -9.018
REMARK INTRA:                  -0.558
REMARK UNBOUND:                -0.636
REMARK  Name = 
REMARK  5 active torsions:
REMARK  status: ('A' for Active; 'I' for Inactive)
REMARK    1  A    between atoms: N_1  and  C_2
REMARK    2  A    between atoms: C_2  and  C_3
REMARK    3  A    between atoms: C_3  and  C_4
REMARK    4  A    between atoms: C_7  and  C_8
REMARK    5  A    between atoms: C_8  and  N_9
REMARK                            x       y       z     vdW  Elec       q    Type
REMARK                         _______ _______ _______ _____ _____    ______ ____
ROOT
ATOM      1  C   UNL     1      45.864   3.038   7.705  0.00  0.00    +0.000 A 
ATOM      2  C   UNL     1      45.251   2.375   8.776  0.00  0.00    +0.000 A 
ATOM      3  C   UNL     1      44.928   3.058   9.952  0.00  0.00    +0.000 A 
ATOM      4  C   UNL     1      45.210   4.423  10.086  0.00  0.00    +0.000 A 
ATOM      5  C   UNL     1      45.827   5.083   9.032  0.00  0.00    +0.000 A 
ATOM      6  C   UNL     1      46.160   4.400   7.853  0.00  0.00    +0.000 A 
ENDROOT
BRANCH   1   7
ATOM      7  C   UNL     1      46.272   2.292   6.449  0.00  0.00    +0.000 C 
BRANCH   7   8
ATOM      8  C   UNL     1      47.551   1.449   6.613  0.00  0.00    +0.000 C 
BRANCH   8   9
ATOM      9  N   UNL     1      48.586   1.877   5.672  0.00  0.00    +0.000 NA
ATOM     10  H   UNL     1      48.256   2.691   5.159  0.00  0.00    +0.000 HD
ATOM     11  H   UNL     1      48.746   1.146   4.980  0.00  0.00    +0.000 HD
ENDBRANCH   8   9
ENDBRANCH   7   8
ENDBRANCH   1   7
BRANCH   4  12
ATOM     12  C   UNL     1      44.802   5.186  11.332  0.00  0.00    +0.000 C 
BRANCH  12  13
ATOM     13  N   UNL     1      45.819   5.189  12.386  0.00  0.00    +0.000 N 
ATOM     14  C   UNL     1      45.688   4.516  13.580  0.00  0.00    +0.000 A 
ATOM     15  C   UNL     1      46.809   4.774  14.336  0.00  0.00    +0.000 A 
ATOM     16  C   UNL     1      47.389   5.941  13.786  0.00  0.00    +0.000 A 
ATOM     17  C   UNL     1      48.289   6.900  14.290  0.00  0.00    +0.000 A 
ATOM     18  C   UNL     1      48.702   7.946  13.458  0.00  0.00    +0.000 A 
ATOM     19  C   UNL     1      48.310   7.963  12.130  0.00  0.00    +0.000 A 
ATOM     20  F   UNL     1      48.783   8.927  11.329  0.00  0.00    +0.000 F 
ATOM     21  C   UNL     1      47.407   7.028  11.602  0.00  0.00    +0.000 A 
ATOM     22  C   UNL     1      46.882   6.079  12.482  0.00  0.00    +0.000 A 
ENDBRANCH  12  13
ENDBRANCH   4  12
TORSDOF 5
ENDMDL
MODEL 3
REMARK VINA RESULT:    -6.850      2.128      3.025
REMARK INTER + INTRA:          -9.287
REMARK INTER:                  -8.746
REMARK INTRA:                  -0.541
REMARK UNBOUND:                -0.636
REMARK  Name = 
REMARK  5 active torsions:
REMARK  status: ('A' for Active; 'I' for Inactive)
REMARK    1  A    between atoms: N_1  and  C_2
REMARK    2  A    between atoms: C_2  and  C_3
REMARK    3  A    between atoms: C_3  and  C_4
REMARK    4  A    between atoms: C_7  and  C_8
REMARK    5  A    between atoms: C_8  and  N_9
REMARK                            x       y       z     vdW  Elec       q    Type
REMARK                         _______ _______ _______ _____ _____    ______ ____
ROOT
ATOM      1  C   UNL     1      45.811   2.709   7.822  0.00  0.00    +0.000 A 
ATOM      2  C   UNL     1      45.182   1.986   8.843  0.00  0.00    +0.000 A 
ATOM      3  C   UNL     1      44.711   2.630   9.992  0.00  0.00    +0.000 A 
ATOM      4  C   UNL     1      44.858   4.014  10.146  0.00  0.00    +0.000 A 
ATOM      5  C   UNL     1      45.490   4.733   9.141  0.00  0.00    +0.000 A 
ATOM      6  C   UNL     1      45.971   4.091   7.991  0.00  0.00    +0.000 A 
ENDROOT
BRANCH   1   7
ATOM      7  C   UNL     1      46.377   2.011   6.600  0.00  0.00    +0.000 C 
BRANCH   7   8
ATOM      8  C   UNL     1      47.912   1.877   6.615  0.00  0.00    +0.000 C 
BRANCH   8   9
ATOM      9  N   UNL     1      48.480   2.188   5.304  0.00  0.00    +0.000 NA
ATOM     10  H   UNL     1      49.064   3.016   5.380  0.00  0.00    +0.000 HD
ATOM     11  H   UNL     1      47.732   2.423   4.652  0.00  0.00    +0.000 HD
ENDBRANCH   8   9
ENDBRANCH   7   8
ENDBRANCH   1   7
BRANCH   4  12
ATOM     12  C   UNL     1      44.290   4.728  11.358  0.00  0.00    +0.000 C 
BRANCH  12  13
ATOM     13  N   UNL     1      45.219   5.674  11.979  0.00  0.00    +0.000 N 
ATOM     14  C   UNL     1      46.060   5.351  13.020  0.00  0.00    +0.000 A 
ATOM     15  C   UNL     1      46.755   6.487  13.371  0.00  0.00    +0.000 A 
ATOM     16  C   UNL     1      46.014   7.573  12.847  0.00  0.00    +0.000 A 
ATOM     17  C   UNL     1      45.970   8.947  13.153  0.00  0.00    +0.000 A 
ATOM     18  C   UNL     1      45.131   9.781  12.409  0.00  0.00    +0.000 A 
ATOM     19  C   UNL     1      44.444   9.270  11.321  0.00  0.00    +0.000 A 
ATOM     20  F   UNL     1      43.710  10.102  10.571  0.00  0.00    +0.000 F 
ATOM     21  C   UNL     1      44.459   7.905  10.997  0.00  0.00    +0.000 A 
ATOM     22  C   UNL     1      45.180   7.057  11.841  0.00  0.00    +0.000 A 
ENDBRANCH  12  13
ENDBRANCH   4  12
TORSDOF 5
ENDMDL
MODEL 4
REMARK VINA RESULT:    -6.600      1.232      1.916
REMARK INTER + INTRA:          -8.972
REMARK INTER:                  -8.668
REMARK INTRA:                  -0.304
REMARK UNBOUND:                -0.636
REMARK  Name = 
REMARK  5 active torsions:
REMARK  status: ('A' for Active; 'I' for Inactive)
REMARK    1  A    between atoms: N_1  and  C_2
REMARK    2  A    between atoms: C_2  and  C_3
REMARK    3  A    between atoms: C_3  and  C_4
REMARK    4  A    between atoms: C_7  and  C_8
REMARK    5  A    between atoms: C_8  and  N_9
REMARK                            x       y       z     vdW  Elec       q    Type
REMARK                         _______ _______ _______ _____ _____    ______ ____
ROOT
ATOM      1  C   UNL     1      45.860   3.168   8.007  0.00  0.00    +0.000 A 
ATOM      2  C   UNL     1      46.037   4.521   8.326  0.00  0.00    +0.000 A 
ATOM      3  C   UNL     1      45.538   5.047   9.521  0.00  0.00    +0.000 A 
ATOM      4  C   UNL     1      44.850   4.232  10.428  0.00  0.00    +0.000 A 
ATOM      5  C   UNL     1      44.663   2.893  10.112  0.00  0.00    +0.000 A 
ATOM      6  C   UNL     1      45.155   2.362   8.910  0.00  0.00    +0.000 A 
ENDROOT
BRANCH   1   7
ATOM      7  C   UNL     1      46.346   2.603   6.686  0.00  0.00    +0.000 C 
BRANCH   7   8
ATOM      8  C   UNL     1      47.531   1.627   6.825  0.00  0.00    +0.000 C 
BRANCH   8   9
ATOM      9  N   UNL     1      48.485   1.800   5.730  0.00  0.00    +0.000 NA
ATOM     10  H   UNL     1      47.986   2.097   4.895  0.00  0.00    +0.000 HD
ATOM     11  H   UNL     1      48.915   0.903   5.504  0.00  0.00    +0.000 HD
ENDBRANCH   8   9
ENDBRANCH   7   8
ENDBRANCH   1   7
BRANCH   4  12
ATOM     12  C   UNL     1      44.365   4.780  11.757  0.00  0.00    +0.000 C 
BRANCH  12  13
ATOM     13  N   UNL     1      44.650   6.203  11.952  0.00  0.00    +0.000 N 
ATOM     14  C   UNL     1      43.956   7.216  11.328  0.00  0.00    +0.000 A 
ATOM     15  C   UNL     1      44.518   8.412  11.713  0.00  0.00    +0.000 A 
ATOM     16  C   UNL     1      45.808   8.097  12.202  0.00  0.00    +0.000 A 
ATOM     17  C   UNL     1      46.980   8.855  12.390  0.00  0.00    +0.000 A 
ATOM     18  C   UNL     1      48.108   8.236  12.937  0.00  0.00    +0.000 A 
ATOM     19  C   UNL     1      48.025   6.928  13.384  0.00  0.00    +0.000 A 
ATOM     20  F   UNL     1      49.092   6.380  13.980  0.00  0.00    +0.000 F 
ATOM     21  C   UNL     1      46.875   6.144  13.202  0.00  0.00    +0.000 A 
ATOM     22  C   UNL     1      45.807   6.727  12.516  0.00  0.00    +0.000 A 
ENDBRANCH  12  13
ENDBRANCH   4  12
TORSDOF 5
ENDMDL
MODEL 5
REMARK VINA RESULT:    -6.280      2.629      6.422
REMARK INTER + INTRA:          -8.568
REMARK INTER:                  -8.254
REMARK INTRA:                  -0.314
REMARK UNBOUND:                -0.636
REMARK  Name = 
REMARK  5 active torsions:
REMARK  status: ('A' for Active; 'I' for Inactive)
REMARK    1  A    between atoms: N_1  and  C_2
REMARK    2  A    between atoms: C_2  and  C_3
REMARK    3  A    between atoms: C_3  and  C_4
REMARK    4  A    between atoms: C_7  and  C_8
REMARK    5  A    between atoms: C_8  and  N_9
REMARK                            x       y       z     vdW  Elec       q    Type
REMARK                         _______ _______ _______ _____ _____    ______ ____
ROOT
ATOM      1  C   UNL     1      47.931   6.869  13.945  0.00  0.00    +0.000 A 
ATOM      2  C   UNL     1      47.231   8.000  13.507  0.00  0.00    +0.000 A 
ATOM      3  C   UNL     1      46.119   7.875  12.670  0.00  0.00    +0.000 A 
ATOM      4  C   UNL     1      45.678   6.614  12.250  0.00  0.00    +0.000 A 
ATOM      5  C   UNL     1      46.375   5.490  12.673  0.00  0.00    +0.000 A 
ATOM      6  C   UNL     1      47.497   5.611  13.507  0.00  0.00    +0.000 A 
ENDROOT
BRANCH   1   7
ATOM      7  C   UNL     1      49.174   6.999  14.805  0.00  0.00    +0.000 C 
BRANCH   7   8
ATOM      8  C   UNL     1      48.995   6.467  16.240  0.00  0.00    +0.000 C 
BRANCH   8   9
ATOM      9  N   UNL     1      49.896   5.344  16.500  0.00  0.00    +0.000 NA
ATOM     10  H   UNL     1      50.822   5.568  16.144  0.00  0.00    +0.000 HD
ATOM     11  H   UNL     1      49.580   4.523  15.984  0.00  0.00    +0.000 HD
ENDBRANCH   8   9
ENDBRANCH   7   8
ENDBRANCH   1   7
BRANCH   4  12
ATOM     12  C   UNL     1      44.433   6.466  11.397  0.00  0.00    +0.000 C 
BRANCH  12  13
ATOM     13  N   UNL     1      44.103   5.079  11.063  0.00  0.00    +0.000 N 
ATOM     14  C   UNL     1      43.522   4.196  11.945  0.00  0.00    +0.000 A 
ATOM     15  C   UNL     1      43.395   2.982  11.307  0.00  0.00    +0.000 A 
ATOM     16  C   UNL     1      44.296   3.020  10.216  0.00  0.00    +0.000 A 
ATOM     17  C   UNL     1      44.901   2.021   9.431  0.00  0.00    +0.000 A 
ATOM     18  C   UNL     1      45.742   2.400   8.380  0.00  0.00    +0.000 A 
ATOM     19  C   UNL     1      45.880   3.741   8.060  0.00  0.00    +0.000 A 
ATOM     20  F   UNL     1      46.624   4.079   6.999  0.00  0.00    +0.000 F 
ATOM     21  C   UNL     1      45.298   4.760   8.830  0.00  0.00    +0.000 A 
ATOM     22  C   UNL     1      44.586   4.373   9.967  0.00  0.00    +0.000 A 
ENDBRANCH  12  13
ENDBRANCH   4  12
TORSDOF 5
ENDMDL
MODEL 6
REMARK VINA RESULT:    -5.772      2.726      6.743
REMARK INTER + INTRA:          -7.926
REMARK INTER:                  -7.562
REMARK INTRA:                  -0.364
REMARK UNBOUND:                -0.636
REMARK  Name = 
REMARK  5 active torsions:
REMARK  status: ('A' for Active; 'I' for Inactive)
REMARK    1  A    between atoms: N_1  and  C_2
REMARK    2  A    between atoms: C_2  and  C_3
REMARK    3  A    between atoms: C_3  and  C_4
REMARK    4  A    between atoms: C_7  and  C_8
REMARK    5  A    between atoms: C_8  and  N_9
REMARK                            x       y       z     vdW  Elec       q    Type
REMARK                         _______ _______ _______ _____ _____    ______ ____
ROOT
ATOM      1  C   UNL     1      45.121   9.601  11.763  0.00  0.00    +0.000 A 
ATOM      2  C   UNL     1      44.216   8.605  11.376  0.00  0.00    +0.000 A 
ATOM      3  C   UNL     1      44.530   7.252  11.530  0.00  0.00    +0.000 A 
ATOM      4  C   UNL     1      45.758   6.861  12.079  0.00  0.00    +0.000 A 
ATOM      5  C   UNL     1      46.663   7.844  12.455  0.00  0.00    +0.000 A 
ATOM      6  C   UNL     1      46.356   9.204  12.294  0.00  0.00    +0.000 A 
ENDROOT
BRANCH   1   7
ATOM      7  C   UNL     1      44.813  11.070  11.545  0.00  0.00    +0.000 C 
BRANCH   7   8
ATOM      8  C   UNL     1      43.379  11.338  11.050  0.00  0.00    +0.000 C 
BRANCH   8   9
ATOM      9  N   UNL     1      42.412  11.191  12.137  0.00  0.00    +0.000 NA
ATOM     10  H   UNL     1      42.905  11.197  13.027  0.00  0.00    +0.000 HD
ATOM     11  H   UNL     1      41.953  10.283  12.070  0.00  0.00    +0.000 HD
ENDBRANCH   8   9
ENDBRANCH   7   8
ENDBRANCH   1   7
BRANCH   4  12
ATOM     12  C   UNL     1      46.078   5.397  12.312  0.00  0.00    +0.000 C 
BRANCH  12  13
ATOM     13  N   UNL     1      45.182   4.475  11.611  0.00  0.00    +0.000 N 
ATOM     14  C   UNL     1      44.358   3.574  12.248  0.00  0.00    +0.000 A 
ATOM     15  C   UNL     1      43.694   2.851  11.283  0.00  0.00    +0.000 A 
ATOM     16  C   UNL     1      44.445   3.009  10.094  0.00  0.00    +0.000 A 
ATOM     17  C   UNL     1      44.524   2.270   8.898  0.00  0.00    +0.000 A 
ATOM     18  C   UNL     1      45.364   2.722   7.876  0.00  0.00    +0.000 A 
ATOM     19  C   UNL     1      46.016   3.936   8.009  0.00  0.00    +0.000 A 
ATOM     20  F   UNL     1      46.750   4.391   6.985  0.00  0.00    +0.000 F 
ATOM     21  C   UNL     1      45.966   4.690   9.191  0.00  0.00    +0.000 A 
ATOM     22  C   UNL     1      45.246   4.152  10.261  0.00  0.00    +0.000 A 
ENDBRANCH  12  13
ENDBRANCH   4  12
TORSDOF 5
ENDMDL
MODEL 7
REMARK VINA RESULT:    -5.743      2.306      3.128
REMARK INTER + INTRA:          -7.890
REMARK INTER:                  -7.465
REMARK INTRA:                  -0.425
REMARK UNBOUND:                -0.636
REMARK  Name = 
REMARK  5 active torsions:
REMARK  status: ('A' for Active; 'I' for Inactive)
REMARK    1  A    between atoms: N_1  and  C_2
REMARK    2  A    between atoms: C_2  and  C_3
REMARK    3  A    between atoms: C_3  and  C_4
REMARK    4  A    between atoms: C_7  and  C_8
REMARK    5  A    between atoms: C_8  and  N_9
REMARK                            x       y       z     vdW  Elec       q    Type
REMARK                         _______ _______ _______ _____ _____    ______ ____
ROOT
ATOM      1  C   UNL     1      44.851   4.376   9.138  0.00  0.00    +0.000 A 
ATOM      2  C   UNL     1      43.804   4.287  10.064  0.00  0.00    +0.000 A 
ATOM      3  C   UNL     1      43.822   5.041  11.241  0.00  0.00    +0.000 A 
ATOM      4  C   UNL     1      44.888   5.905  11.521  0.00  0.00    +0.000 A 
ATOM      5  C   UNL     1      45.932   5.990  10.611  0.00  0.00    +0.000 A 
ATOM      6  C   UNL     1      45.923   5.229   9.432  0.00  0.00    +0.000 A 
ENDROOT
BRANCH   1   7
ATOM      7  C   UNL     1      44.868   3.518   7.888  0.00  0.00    +0.000 C 
BRANCH   7   8
ATOM      8  C   UNL     1      46.283   3.106   7.436  0.00  0.00    +0.000 C 
BRANCH   8   9
ATOM      9  N   UNL     1      46.772   3.986   6.375  0.00  0.00    +0.000 NA
ATOM     10  H   UNL     1      47.788   3.974   6.371  0.00  0.00    +0.000 HD
ATOM     11  H   UNL     1      46.497   4.948   6.571  0.00  0.00    +0.000 HD
ENDBRANCH   8   9
ENDBRANCH   7   8
ENDBRANCH   1   7
BRANCH   4  12
ATOM     12  C   UNL     1      44.881   6.776  12.762  0.00  0.00    +0.000 C 
BRANCH  12  13
ATOM     13  N   UNL     1      45.489   8.094  12.566  0.00  0.00    +0.000 N 
ATOM     14  C   UNL     1      44.878   9.127  11.891  0.00  0.00    +0.000 A 
ATOM     15  C   UNL     1      45.750  10.192  11.868  0.00  0.00    +0.000 A 
ATOM     16  C   UNL     1      47.031   9.652  12.131  0.00  0.00    +0.000 A 
ATOM     17  C   UNL     1      48.340  10.112  11.891  0.00  0.00    +0.000 A 
ATOM     18  C   UNL     1      49.421   9.332  12.312  0.00  0.00    +0.000 A 
ATOM     19  C   UNL     1      49.193   8.183  13.051  0.00  0.00    +0.000 A 
ATOM     20  F   UNL     1      50.244   7.495  13.516  0.00  0.00    +0.000 F 
ATOM     21  C   UNL     1      47.902   7.693  13.298  0.00  0.00    +0.000 A 
ATOM     22  C   UNL     1      46.833   8.400  12.740  0.00  0.00    +0.000 A 
ENDBRANCH  12  13
ENDBRANCH   4  12
TORSDOF 5
ENDMDL
MODEL 8
REMARK VINA RESULT:    -5.631      4.535      7.451
REMARK INTER + INTRA:          -7.748
REMARK INTER:                  -7.409
REMARK INTRA:                  -0.339
REMARK UNBOUND:                -0.636
REMARK  Name = 
REMARK  5 active torsions:
REMARK  status: ('A' for Active; 'I' for Inactive)
REMARK    1  A    between atoms: N_1  and  C_2
REMARK    2  A    between atoms: C_2  and  C_3
REMARK    3  A    between atoms: C_3  and  C_4
REMARK    4  A    between atoms: C_7  and  C_8
REMARK    5  A    between atoms: C_8  and  N_9
REMARK                            x       y       z     vdW  Elec       q    Type
REMARK                         _______ _______ _______ _____ _____    ______ ____
ROOT
ATOM      1  C   UNL     1      50.772   2.873  17.467  0.00  0.00    +0.000 A 
ATOM      2  C   UNL     1      49.851   2.026  16.837  0.00  0.00    +0.000 A 
ATOM      3  C   UNL     1      48.648   2.526  16.330  0.00  0.00    +0.000 A 
ATOM      4  C   UNL     1      48.336   3.887  16.439  0.00  0.00    +0.000 A 
ATOM      5  C   UNL     1      49.241   4.728  17.071  0.00  0.00    +0.000 A 
ATOM      6  C   UNL     1      50.446   4.230  17.589  0.00  0.00    +0.000 A 
ENDROOT
BRANCH   1   7
ATOM      7  C   UNL     1      52.052   2.329  18.072  0.00  0.00    +0.000 C 
BRANCH   7   8
ATOM      8  C   UNL     1      52.498   0.980  17.476  0.00  0.00    +0.000 C 
BRANCH   8   9
ATOM      9  N   UNL     1      52.258  -0.114  18.416  0.00  0.00    +0.000 NA
ATOM     10  H   UNL     1      51.826  -0.891  17.923  0.00  0.00    +0.000 HD
ATOM     11  H   UNL     1      51.589   0.182  19.126  0.00  0.00    +0.000 HD
ENDBRANCH   8   9
ENDBRANCH   7   8
ENDBRANCH   1   7
BRANCH   4  12
ATOM     12  C   UNL     1      47.065   4.447  15.831  0.00  0.00    +0.000 C 
BRANCH  12  13
ATOM     13  N   UNL     1      47.262   5.094  14.533  0.00  0.00    +0.000 N 
ATOM     14  C   UNL     1      47.923   6.290  14.364  0.00  0.00    +0.000 A 
ATOM     15  C   UNL     1      47.883   6.611  13.026  0.00  0.00    +0.000 A 
ATOM     16  C   UNL     1      46.828   5.847  12.474  0.00  0.00    +0.000 A 
ATOM     17  C   UNL     1      46.054   5.975  11.305  0.00  0.00    +0.000 A 
ATOM     18  C   UNL     1      45.083   5.009  11.025  0.00  0.00    +0.000 A 
ATOM     19  C   UNL     1      44.971   3.892  11.836  0.00  0.00    +0.000 A 
ATOM     20  F   UNL     1      44.092   2.938  11.504  0.00  0.00    +0.000 F 
ATOM     21  C   UNL     1      45.720   3.741  13.013  0.00  0.00    +0.000 A 
ATOM     22  C   UNL     1      46.578   4.787  13.362  0.00  0.00    +0.000 A 
ENDBRANCH  12  13
ENDBRANCH   4  12
TORSDOF 5
ENDMDL
MODEL 9
REMARK VINA RESULT:    -5.549      2.760      6.516
REMARK INTER + INTRA:          -7.644
REMARK INTER:                  -7.031
REMARK INTRA:                  -0.614
REMARK UNBOUND:                -0.636
REMARK  Name = 
REMARK  5 active torsions:
REMARK  status: ('A' for Active; 'I' for Inactive)
REMARK    1  A    between atoms: N_1  and  C_2
REMARK    2  A    between atoms: C_2  and  C_3
REMARK    3  A    between atoms: C_3  and  C_4
REMARK    4  A    between atoms: C_7  and  C_8
REMARK    5  A    between atoms: C_8  and  N_9
REMARK                            x       y       z     vdW  Elec       q    Type
REMARK                         _______ _______ _______ _____ _____    ______ ____
ROOT
ATOM      1  C   UNL     1      46.799   6.683  12.714  0.00  0.00    +0.000 A 
ATOM      2  C   UNL     1      45.502   6.241  13.004  0.00  0.00    +0.000 A 
ATOM      3  C   UNL     1      44.665   5.761  11.992  0.00  0.00    +0.000 A 
ATOM      4  C   UNL     1      45.106   5.709  10.664  0.00  0.00    +0.000 A 
ATOM      5  C   UNL     1      46.387   6.156  10.370  0.00  0.00    +0.000 A 
ATOM      6  C   UNL     1      47.228   6.647  11.381  0.00  0.00    +0.000 A 
ENDROOT
BRANCH   1   7
ATOM      7  C   UNL     1      47.692   7.261  13.796  0.00  0.00    +0.000 C 
BRANCH   7   8
ATOM      8  C   UNL     1      48.156   8.703  13.514  0.00  0.00    +0.000 C 
BRANCH   8   9
ATOM      9  N   UNL     1      47.014   9.610  13.406  0.00  0.00    +0.000 NA
ATOM     10  H   UNL     1      46.169   9.120  13.687  0.00  0.00    +0.000 HD
ATOM     11  H   UNL     1      46.879   9.880  12.432  0.00  0.00    +0.000 HD
ENDBRANCH   8   9
ENDBRANCH   7   8
ENDBRANCH   1   7
BRANCH   4  12
ATOM     12  C   UNL     1      44.229   5.127   9.573  0.00  0.00    +0.000 C 
BRANCH  12  13
ATOM     13  N   UNL     1      44.448   3.699   9.335  0.00  0.00    +0.000 N 
ATOM     14  C   UNL     1      44.160   2.715  10.255  0.00  0.00    +0.000 A 
ATOM     15  C   UNL     1      44.527   1.506   9.710  0.00  0.00    +0.000 A 
ATOM     16  C   UNL     1      45.432   1.808   8.665  0.00  0.00    +0.000 A 
ATOM     17  C   UNL     1      46.414   1.056   7.992  0.00  0.00    +0.000 A 
ATOM     18  C   UNL     1      47.137   1.656   6.957  0.00  0.00    +0.000 A 
ATOM     19  C   UNL     1      46.806   2.934   6.538  0.00  0.00    +0.000 A 
ATOM     20  F   UNL     1      47.455   3.460   5.491  0.00  0.00    +0.000 F 
ATOM     21  C   UNL     1      45.840   3.712   7.195  0.00  0.00    +0.000 A 
ATOM     22  C   UNL     1      45.233   3.157   8.324  0.00  0.00    +0.000 A 
ENDBRANCH  12  13
ENDBRANCH   4  12
TORSDOF 5
ENDMDL
