MODEL 1
REMARK VINA RESULT:    -9.449      0.000      0.000
REMARK INTER + INTRA:         -13.711
REMARK INTER:                 -12.763
REMARK INTRA:                  -0.948
REMARK UNBOUND:                -0.948
REMARK  Name = 
REMARK  6 active torsions:
REMARK  status: ('A' for Active; 'I' for Inactive)
REMARK    1  A    between atoms: C_2  and  C_4
REMARK    2  A    between atoms: C_7  and  N_8
REMARK    3  A    between atoms: N_8  and  C_9
REMARK    4  A    between atoms: C_9  and  C_10
REMARK    5  A    between atoms: C_10  and  C_13
REMARK    6  A    between atoms: C_15  and  C_16
REMARK                            x       y       z     vdW  Elec       q    Type
REMARK                         _______ _______ _______ _____ _____    ______ ____
ROOT
ATOM      1  C   UNL     1      43.313   5.005  12.564  0.00  0.00    +0.000 C 
ATOM      2  F   UNL     1      42.649   6.176  12.318  0.00  0.00    +0.000 F 
ATOM      3  F   UNL     1      42.658   4.445  13.633  0.00  0.00    +0.000 F 
ENDROOT
BRANCH   1   4
ATOM      4  C   UNL     1      44.785   5.248  12.873  0.00  0.00    +0.000 A 
ATOM      5  C   UNL     1      45.390   6.415  12.398  0.00  0.00    +0.000 A 
ATOM      6  C   UNL     1      46.732   6.691  12.702  0.00  0.00    +0.000 A 
ATOM      7  C   UNL     1      47.419   5.736  13.464  0.00  0.00    +0.000 A 
ATOM      8  C   UNL     1      46.761   4.595  13.886  0.00  0.00    +0.000 A 
ATOM      9  N   UNL     1      45.469   4.337  13.617  0.00  0.00    +0.000 NA
BRANCH   6  10
ATOM     10  C   UNL     1      47.387   7.946  12.262  0.00  0.00    +0.000 A 
ATOM     11  C   UNL     1      46.687   9.168  12.241  0.00  0.00    +0.000 A 
ATOM     12  C   UNL     1      47.303  10.362  11.854  0.00  0.00    +0.000 A 
ATOM     13  C   UNL     1      48.646  10.365  11.491  0.00  0.00    +0.000 A 
ATOM     14  C   UNL     1      49.360   9.172  11.506  0.00  0.00    +0.000 A 
ATOM     15 CL   UNL     1      51.028   9.170  11.079  0.00  0.00    +0.000 Cl
ATOM     16  C   UNL     1      48.740   7.975  11.875  0.00  0.00    +0.000 A 
ENDBRANCH   6  10
ENDBRANCH   1   4
BRANCH   1  17
ATOM     17  C   UNL     1      43.145   4.059  11.353  0.00  0.00    +0.000 C 
BRANCH  17  18
ATOM     18  N   UNL     1      43.657   4.613  10.085  0.00  0.00    +0.000 N 
ATOM     19  H   UNL     1      42.946   5.045   9.497  0.00  0.00    +0.000 HD
BRANCH  18  23
ATOM     20  C   UNL     1      46.422   2.383   7.811  0.00  0.00    +0.000 A 
ATOM     21  C   UNL     1      46.373   3.769   7.660  0.00  0.00    +0.000 A 
ATOM     22  C   UNL     1      45.474   4.524   8.421  0.00  0.00    +0.000 A 
ATOM     23  C   UNL     1      44.630   3.921   9.365  0.00  0.00    +0.000 A 
ATOM     24  C   UNL     1      44.679   2.527   9.486  0.00  0.00    +0.000 A 
ATOM     25  C   UNL     1      45.559   1.760   8.716  0.00  0.00    +0.000 A 
BRANCH  20  27
ATOM     26  N   UNL     1      48.480   2.141   6.537  0.00  0.00    +0.000 N 
ATOM     27  C   UNL     1      47.341   1.543   7.004  0.00  0.00    +0.000 C 
ATOM     28  O   UNL     1      47.119   0.357   6.793  0.00  0.00    +0.000 OA
ATOM     29  H   UNL     1      49.151   1.531   6.087  0.00  0.00    +0.000 HD
ATOM     30  H   UNL     1      48.813   3.019   6.901  0.00  0.00    +0.000 HD
ENDBRANCH  20  27
ENDBRANCH  18  23
ENDBRANCH  17  18
ENDBRANCH   1  17
TORSDOF 6
ENDMDL
MODEL 2
REMARK VINA RESULT:    -9.048      2.256      3.787
REMARK INTER + INTRA:         -13.170
REMARK INTER:                 -12.129
REMARK INTRA:                  -1.040
REMARK UNBOUND:                -0.948
REMARK  Name = 
REMARK  6 active torsions:
REMARK  status: ('A' for Active; 'I' for Inactive)
REMARK    1  A    between atoms: C_2  and  C_4
REMARK    2  A    between atoms: C_7  and  N_8
REMARK    3  A    between atoms: N_8  and  C_9
REMARK    4  A    between atoms: C_9  and  C_10
REMARK    5  A    between atoms: C_10  and  C_13
REMARK    6  A    between atoms: C_15  and  C_16
REMARK                            x       y       z     vdW  Elec       q    Type
REMARK                         _______ _______ _______ _____ _____    ______ ____
ROOT
ATOM      1  C   UNL     1      43.437   4.738  12.611  0.00  0.00    +0.000 C 
ATOM      2  F   UNL     1      42.597   5.795  12.391  0.00  0.00    +0.000 F 
ATOM      3  F   UNL     1      42.927   4.107  13.719  0.00  0.00    +0.000 F 
ENDROOT
BRANCH   1   4
ATOM      4  C   UNL     1      44.871   5.197  12.839  0.00  0.00    +0.000 A 
ATOM      5  C   UNL     1      45.538   4.782  13.995  0.00  0.00    +0.000 A 
ATOM      6  C   UNL     1      46.874   5.152  14.214  0.00  0.00    +0.000 A 
ATOM      7  C   UNL     1      47.473   5.966  13.244  0.00  0.00    +0.000 A 
ATOM      8  C   UNL     1      46.748   6.353  12.131  0.00  0.00    +0.000 A 
ATOM      9  N   UNL     1      45.475   5.983  11.907  0.00  0.00    +0.000 NA
BRANCH   6  10
ATOM     10  C   UNL     1      47.627   4.682  15.401  0.00  0.00    +0.000 A 
ATOM     11  C   UNL     1      47.538   3.346  15.841  0.00  0.00    +0.000 A 
ATOM     12  C   UNL     1      48.266   2.885  16.943  0.00  0.00    +0.000 A 
ATOM     13  C   UNL     1      49.115   3.750  17.626  0.00  0.00    +0.000 A 
ATOM     14  C   UNL     1      49.221   5.072  17.209  0.00  0.00    +0.000 A 
ATOM     15 CL   UNL     1      50.286   6.144  18.036  0.00  0.00    +0.000 Cl
ATOM     16  C   UNL     1      48.481   5.538  16.120  0.00  0.00    +0.000 A 
ENDBRANCH   6  10
ENDBRANCH   1   4
BRANCH   1  17
ATOM     17  C   UNL     1      43.347   3.756  11.420  0.00  0.00    +0.000 C 
BRANCH  17  18
ATOM     18  N   UNL     1      43.699   4.358  10.120  0.00  0.00    +0.000 N 
ATOM     19  H   UNL     1      42.901   4.696   9.584  0.00  0.00    +0.000 HD
BRANCH  18  23
ATOM     20  C   UNL     1      46.547   2.485   7.637  0.00  0.00    +0.000 A 
ATOM     21  C   UNL     1      46.415   3.873   7.600  0.00  0.00    +0.000 A 
ATOM     22  C   UNL     1      45.487   4.511   8.431  0.00  0.00    +0.000 A 
ATOM     23  C   UNL     1      44.697   3.785   9.334  0.00  0.00    +0.000 A 
ATOM     24  C   UNL     1      44.829   2.391   9.342  0.00  0.00    +0.000 A 
ATOM     25  C   UNL     1      45.738   1.741   8.501  0.00  0.00    +0.000 A 
BRANCH  20  27
ATOM     26  N   UNL     1      48.551   2.490   6.259  0.00  0.00    +0.000 N 
ATOM     27  C   UNL     1      47.499   1.768   6.754  0.00  0.00    +0.000 C 
ATOM     28  O   UNL     1      47.379   0.575   6.504  0.00  0.00    +0.000 OA
ATOM     29  H   UNL     1      49.252   1.964   5.752  0.00  0.00    +0.000 HD
ATOM     30  H   UNL     1      48.818   3.381   6.643  0.00  0.00    +0.000 HD
ENDBRANCH  20  27
ENDBRANCH  18  23
ENDBRANCH  17  18
ENDBRANCH   1  17
TORSDOF 6
ENDMDL
MODEL 3
REMARK VINA RESULT:    -8.875      1.719      2.419
REMARK INTER + INTRA:         -12.936
REMARK INTER:                 -11.758
REMARK INTRA:                  -1.178
REMARK UNBOUND:                -0.948
REMARK  Name = 
REMARK  6 active torsions:
REMARK  status: ('A' for Active; 'I' for Inactive)
REMARK    1  A    between atoms: C_2  and  C_4
REMARK    2  A    between atoms: C_7  and  N_8
REMARK    3  A    between atoms: N_8  and  C_9
REMARK    4  A    between atoms: C_9  and  C_10
REMARK    5  A    between atoms: C_10  and  C_13
REMARK    6  A    between atoms: C_15  and  C_16
REMARK                            x       y       z     vdW  Elec       q    Type
REMARK                         _______ _______ _______ _____ _____    ______ ____
ROOT
ATOM      1  C   UNL     1      44.165   3.866  12.574  0.00  0.00    +0.000 C 
ATOM      2  F   UNL     1      43.347   3.804  13.669  0.00  0.00    +0.000 F 
ATOM      3  F   UNL     1      45.218   3.038  12.873  0.00  0.00    +0.000 F 
ENDROOT
BRANCH   1   4
ATOM      4  C   UNL     1      44.632   5.290  12.300  0.00  0.00    +0.000 A 
ATOM      5  C   UNL     1      45.962   5.627  12.566  0.00  0.00    +0.000 A 
ATOM      6  C   UNL     1      46.436   6.918  12.285  0.00  0.00    +0.000 A 
ATOM      7  C   UNL     1      45.511   7.833  11.765  0.00  0.00    +0.000 A 
ATOM      8  C   UNL     1      44.205   7.435  11.542  0.00  0.00    +0.000 A 
ATOM      9  N   UNL     1      43.752   6.194  11.790  0.00  0.00    +0.000 NA
BRANCH   6  10
ATOM     10  C   UNL     1      47.854   7.290  12.501  0.00  0.00    +0.000 A 
ATOM     11  C   UNL     1      48.604   7.928  11.494  0.00  0.00    +0.000 A 
ATOM     12  C   UNL     1      49.935   8.309  11.697  0.00  0.00    +0.000 A 
ATOM     13  C   UNL     1      50.545   8.072  12.925  0.00  0.00    +0.000 A 
ATOM     14  C   UNL     1      49.825   7.445  13.935  0.00  0.00    +0.000 A 
ATOM     15 CL   UNL     1      50.567   7.167  15.464  0.00  0.00    +0.000 Cl
ATOM     16  C   UNL     1      48.502   7.048  13.727  0.00  0.00    +0.000 A 
ENDBRANCH   6  10
ENDBRANCH   1   4
BRANCH   1  17
ATOM     17  C   UNL     1      43.427   3.276  11.351  0.00  0.00    +0.000 C 
BRANCH  17  18
ATOM     18  N   UNL     1      43.676   4.003  10.092  0.00  0.00    +0.000 N 
ATOM     19  H   UNL     1      42.840   4.391   9.658  0.00  0.00    +0.000 HD
BRANCH  18  23
ATOM     20  C   UNL     1      46.652   2.654   7.424  0.00  0.00    +0.000 A 
ATOM     21  C   UNL     1      45.947   1.724   8.190  0.00  0.00    +0.000 A 
ATOM     22  C   UNL     1      44.944   2.155   9.066  0.00  0.00    +0.000 A 
ATOM     23  C   UNL     1      44.603   3.510   9.174  0.00  0.00    +0.000 A 
ATOM     24  C   UNL     1      45.336   4.430   8.414  0.00  0.00    +0.000 A 
ATOM     25  C   UNL     1      46.355   4.013   7.551  0.00  0.00    +0.000 A 
BRANCH  20  27
ATOM     26  N   UNL     1      47.853   2.931   5.328  0.00  0.00    +0.000 N 
ATOM     27  C   UNL     1      47.740   2.241   6.504  0.00  0.00    +0.000 C 
ATOM     28  O   UNL     1      48.530   1.350   6.792  0.00  0.00    +0.000 OA
ATOM     29  H   UNL     1      48.665   2.717   4.762  0.00  0.00    +0.000 HD
ATOM     30  H   UNL     1      47.397   3.816   5.178  0.00  0.00    +0.000 HD
ENDBRANCH  20  27
ENDBRANCH  18  23
ENDBRANCH  17  18
ENDBRANCH   1  17
TORSDOF 6
ENDMDL
MODEL 4
REMARK VINA RESULT:    -8.269      3.860      7.226
REMARK INTER + INTRA:         -12.117
REMARK INTER:                 -11.337
REMARK INTRA:                  -0.781
REMARK UNBOUND:                -0.948
REMARK  Name = 
REMARK  6 active torsions:
REMARK  status: ('A' for Active; 'I' for Inactive)
REMARK    1  A    between atoms: C_2  and  C_4
REMARK    2  A    between atoms: C_7  and  N_8
REMARK    3  A    between atoms: N_8  and  C_9
REMARK    4  A    between atoms: C_9  and  C_10
REMARK    5  A    between atoms: C_10  and  C_13
REMARK    6  A    between atoms: C_15  and  C_16
REMARK                            x       y       z     vdW  Elec       q    Type
REMARK                         _______ _______ _______ _____ _____    ______ ____
ROOT
ATOM      1  C   UNL     1      45.290   7.028  11.942  0.00  0.00    +0.000 C 
ATOM      2  F   UNL     1      44.879   7.237  13.230  0.00  0.00    +0.000 F 
ATOM      3  F   UNL     1      44.844   8.125  11.247  0.00  0.00    +0.000 F 
ENDROOT
BRANCH   1   4
ATOM      4  C   UNL     1      44.721   5.735  11.373  0.00  0.00    +0.000 A 
ATOM      5  C   UNL     1      45.360   5.139  10.282  0.00  0.00    +0.000 A 
ATOM      6  C   UNL     1      44.887   3.925   9.761  0.00  0.00    +0.000 A 
ATOM      7  C   UNL     1      43.748   3.376  10.365  0.00  0.00    +0.000 A 
ATOM      8  C   UNL     1      43.157   4.029  11.431  0.00  0.00    +0.000 A 
ATOM      9  N   UNL     1      43.619   5.181  11.948  0.00  0.00    +0.000 NA
BRANCH   6  10
ATOM     10  C   UNL     1      45.576   3.238   8.642  0.00  0.00    +0.000 A 
ATOM     11  C   UNL     1      46.090   3.960   7.547  0.00  0.00    +0.000 A 
ATOM     12  C   UNL     1      46.766   3.325   6.500  0.00  0.00    +0.000 A 
ATOM     13  C   UNL     1      46.956   1.948   6.530  0.00  0.00    +0.000 A 
ATOM     14  C   UNL     1      46.460   1.213   7.601  0.00  0.00    +0.000 A 
ATOM     15 CL   UNL     1      46.709  -0.490   7.656  0.00  0.00    +0.000 Cl
ATOM     16  C   UNL     1      45.769   1.844   8.639  0.00  0.00    +0.000 A 
ENDBRANCH   6  10
ENDBRANCH   1   4
BRANCH   1  17
ATOM     17  C   UNL     1      46.835   7.028  11.893  0.00  0.00    +0.000 C 
BRANCH  17  18
ATOM     18  N   UNL     1      47.475   7.275  13.199  0.00  0.00    +0.000 N 
ATOM     19  H   UNL     1      48.268   7.915  13.164  0.00  0.00    +0.000 HD
BRANCH  18  23
ATOM     20  C   UNL     1      47.880   4.243  16.102  0.00  0.00    +0.000 A 
ATOM     21  C   UNL     1      47.196   3.969  14.917  0.00  0.00    +0.000 A 
ATOM     22  C   UNL     1      47.069   4.959  13.937  0.00  0.00    +0.000 A 
ATOM     23  C   UNL     1      47.645   6.227  14.102  0.00  0.00    +0.000 A 
ATOM     24  C   UNL     1      48.309   6.489  15.306  0.00  0.00    +0.000 A 
ATOM     25  C   UNL     1      48.424   5.514  16.302  0.00  0.00    +0.000 A 
BRANCH  20  27
ATOM     26  N   UNL     1      46.856   2.746  17.722  0.00  0.00    +0.000 N 
ATOM     27  C   UNL     1      48.014   3.230  17.178  0.00  0.00    +0.000 C 
ATOM     28  O   UNL     1      49.106   2.812  17.542  0.00  0.00    +0.000 OA
ATOM     29  H   UNL     1      46.957   1.976  18.372  0.00  0.00    +0.000 HD
ATOM     30  H   UNL     1      45.960   2.872  17.279  0.00  0.00    +0.000 HD
ENDBRANCH  20  27
ENDBRANCH  18  23
ENDBRANCH  17  18
ENDBRANCH   1  17
TORSDOF 6
ENDMDL
MODEL 5
REMARK VINA RESULT:    -8.023      1.906      2.626
REMARK INTER + INTRA:         -11.785
REMARK INTER:                 -11.001
REMARK INTRA:                  -0.785
REMARK UNBOUND:                -0.948
REMARK  Name = 
REMARK  6 active torsions:
REMARK  status: ('A' for Active; 'I' for Inactive)
REMARK    1  A    between atoms: C_2  and  C_4
REMARK    2  A    between atoms: C_7  and  N_8
REMARK    3  A    between atoms: N_8  and  C_9
REMARK    4  A    between atoms: C_9  and  C_10
REMARK    5  A    between atoms: C_10  and  C_13
REMARK    6  A    between atoms: C_15  and  C_16
REMARK                            x       y       z     vdW  Elec       q    Type
REMARK                         _______ _______ _______ _____ _____    ______ ____
ROOT
ATOM      1  C   UNL     1      44.348   5.436  12.327  0.00  0.00    +0.000 C 
ATOM      2  F   UNL     1      43.422   5.345  13.330  0.00  0.00    +0.000 F 
ATOM      3  F   UNL     1      45.075   4.275  12.412  0.00  0.00    +0.000 F 
ENDROOT
BRANCH   1   4
ATOM      4  C   UNL     1      45.233   6.665  12.488  0.00  0.00    +0.000 A 
ATOM      5  C   UNL     1      46.407   6.557  13.239  0.00  0.00    +0.000 A 
ATOM      6  C   UNL     1      47.267   7.658  13.371  0.00  0.00    +0.000 A 
ATOM      7  C   UNL     1      46.872   8.849  12.748  0.00  0.00    +0.000 A 
ATOM      8  C   UNL     1      45.688   8.889  12.035  0.00  0.00    +0.000 A 
ATOM      9  N   UNL     1      44.872   7.830  11.887  0.00  0.00    +0.000 NA
BRANCH   6  10
ATOM     10  C   UNL     1      48.548   7.561  14.112  0.00  0.00    +0.000 A 
ATOM     11  C   UNL     1      48.658   6.784  15.282  0.00  0.00    +0.000 A 
ATOM     12  C   UNL     1      49.868   6.663  15.973  0.00  0.00    +0.000 A 
ATOM     13  C   UNL     1      51.006   7.307  15.498  0.00  0.00    +0.000 A 
ATOM     14  C   UNL     1      50.923   8.078  14.344  0.00  0.00    +0.000 A 
ATOM     15 CL   UNL     1      52.332   8.861  13.739  0.00  0.00    +0.000 Cl
ATOM     16  C   UNL     1      49.711   8.214  13.663  0.00  0.00    +0.000 A 
ENDBRANCH   6  10
ENDBRANCH   1   4
BRANCH   1  17
ATOM     17  C   UNL     1      43.622   5.445  10.962  0.00  0.00    +0.000 C 
BRANCH  17  18
ATOM     18  N   UNL     1      43.498   4.113  10.341  0.00  0.00    +0.000 N 
ATOM     19  H   UNL     1      43.073   3.407  10.941  0.00  0.00    +0.000 HD
BRANCH  18  23
ATOM     20  C   UNL     1      46.442   2.480   7.800  0.00  0.00    +0.000 A 
ATOM     21  C   UNL     1      46.288   3.866   7.866  0.00  0.00    +0.000 A 
ATOM     22  C   UNL     1      45.327   4.423   8.718  0.00  0.00    +0.000 A 
ATOM     23  C   UNL     1      44.527   3.618   9.541  0.00  0.00    +0.000 A 
ATOM     24  C   UNL     1      44.682   2.229   9.445  0.00  0.00    +0.000 A 
ATOM     25  C   UNL     1      45.624   1.661   8.581  0.00  0.00    +0.000 A 
BRANCH  20  27
ATOM     26  N   UNL     1      48.454   2.637   6.443  0.00  0.00    +0.000 N 
ATOM     27  C   UNL     1      47.430   1.849   6.891  0.00  0.00    +0.000 C 
ATOM     28  O   UNL     1      47.361   0.666   6.580  0.00  0.00    +0.000 OA
ATOM     29  H   UNL     1      49.181   2.167   5.917  0.00  0.00    +0.000 HD
ATOM     30  H   UNL     1      48.682   3.519   6.874  0.00  0.00    +0.000 HD
ENDBRANCH  20  27
ENDBRANCH  18  23
ENDBRANCH  17  18
ENDBRANCH   1  17
TORSDOF 6
ENDMDL
MODEL 6
REMARK VINA RESULT:    -7.917      2.323      2.898
REMARK INTER + INTRA:         -11.642
REMARK INTER:                 -10.806
REMARK INTRA:                  -0.836
REMARK UNBOUND:                -0.948
REMARK  Name = 
REMARK  6 active torsions:
REMARK  status: ('A' for Active; 'I' for Inactive)
REMARK    1  A    between atoms: C_2  and  C_4
REMARK    2  A    between atoms: C_7  and  N_8
REMARK    3  A    between atoms: N_8  and  C_9
REMARK    4  A    between atoms: C_9  and  C_10
REMARK    5  A    between atoms: C_10  and  C_13
REMARK    6  A    between atoms: C_15  and  C_16
REMARK                            x       y       z     vdW  Elec       q    Type
REMARK                         _______ _______ _______ _____ _____    ______ ____
ROOT
ATOM      1  C   UNL     1      45.115   6.306  11.543  0.00  0.00    +0.000 C 
ATOM      2  F   UNL     1      45.841   6.544  10.408  0.00  0.00    +0.000 F 
ATOM      3  F   UNL     1      44.473   7.490  11.806  0.00  0.00    +0.000 F 
ENDROOT
BRANCH   1   4
ATOM      4  C   UNL     1      46.006   5.881  12.702  0.00  0.00    +0.000 A 
ATOM      5  C   UNL     1      46.965   6.778  13.181  0.00  0.00    +0.000 A 
ATOM      6  C   UNL     1      47.773   6.435  14.275  0.00  0.00    +0.000 A 
ATOM      7  C   UNL     1      47.586   5.161  14.826  0.00  0.00    +0.000 A 
ATOM      8  C   UNL     1      46.629   4.317  14.291  0.00  0.00    +0.000 A 
ATOM      9  N   UNL     1      45.838   4.650  13.256  0.00  0.00    +0.000 NA
BRANCH   6  10
ATOM     10  C   UNL     1      48.759   7.386  14.842  0.00  0.00    +0.000 A 
ATOM     11  C   UNL     1      49.896   6.931  15.539  0.00  0.00    +0.000 A 
ATOM     12  C   UNL     1      50.847   7.818  16.054  0.00  0.00    +0.000 A 
ATOM     13  C   UNL     1      50.690   9.188  15.869  0.00  0.00    +0.000 A 
ATOM     14  C   UNL     1      49.578   9.662  15.182  0.00  0.00    +0.000 A 
ATOM     15 CL   UNL     1      49.388  11.354  14.932  0.00  0.00    +0.000 Cl
ATOM     16  C   UNL     1      48.618   8.777  14.684  0.00  0.00    +0.000 A 
ENDBRANCH   6  10
ENDBRANCH   1   4
BRANCH   1  17
ATOM     17  C   UNL     1      44.039   5.236  11.244  0.00  0.00    +0.000 C 
BRANCH  17  18
ATOM     18  N   UNL     1      43.840   4.972   9.806  0.00  0.00    +0.000 N 
ATOM     19  H   UNL     1      42.873   5.049   9.495  0.00  0.00    +0.000 HD
BRANCH  18  23
ATOM     20  C   UNL     1      46.188   1.977   7.990  0.00  0.00    +0.000 A 
ATOM     21  C   UNL     1      45.233   1.614   8.940  0.00  0.00    +0.000 A 
ATOM     22  C   UNL     1      44.434   2.595   9.538  0.00  0.00    +0.000 A 
ATOM     23  C   UNL     1      44.547   3.946   9.181  0.00  0.00    +0.000 A 
ATOM     24  C   UNL     1      45.526   4.292   8.242  0.00  0.00    +0.000 A 
ATOM     25  C   UNL     1      46.344   3.323   7.652  0.00  0.00    +0.000 A 
BRANCH  20  27
ATOM     26  N   UNL     1      46.822  -0.344   7.632  0.00  0.00    +0.000 N 
ATOM     27  C   UNL     1      47.074   0.971   7.352  0.00  0.00    +0.000 C 
ATOM     28  O   UNL     1      47.967   1.293   6.578  0.00  0.00    +0.000 OA
ATOM     29  H   UNL     1      47.358  -1.022   7.104  0.00  0.00    +0.000 HD
ATOM     30  H   UNL     1      45.956  -0.649   8.046  0.00  0.00    +0.000 HD
ENDBRANCH  20  27
ENDBRANCH  18  23
ENDBRANCH  17  18
ENDBRANCH   1  17
TORSDOF 6
ENDMDL
MODEL 7
REMARK VINA RESULT:    -7.758      1.740      2.562
REMARK INTER + INTRA:         -11.426
REMARK INTER:                 -10.614
REMARK INTRA:                  -0.813
REMARK UNBOUND:                -0.948
REMARK  Name = 
REMARK  6 active torsions:
REMARK  status: ('A' for Active; 'I' for Inactive)
REMARK    1  A    between atoms: C_2  and  C_4
REMARK    2  A    between atoms: C_7  and  N_8
REMARK    3  A    between atoms: N_8  and  C_9
REMARK    4  A    between atoms: C_9  and  C_10
REMARK    5  A    between atoms: C_10  and  C_13
REMARK    6  A    between atoms: C_15  and  C_16
REMARK                            x       y       z     vdW  Elec       q    Type
REMARK                         _______ _______ _______ _____ _____    ______ ____
ROOT
ATOM      1  C   UNL     1      45.408   5.799  12.221  0.00  0.00    +0.000 C 
ATOM      2  F   UNL     1      44.829   5.426  13.404  0.00  0.00    +0.000 F 
ATOM      3  F   UNL     1      46.327   4.815  11.953  0.00  0.00    +0.000 F 
ENDROOT
BRANCH   1   4
ATOM      4  C   UNL     1      46.067   7.168  12.325  0.00  0.00    +0.000 A 
ATOM      5  C   UNL     1      47.400   7.307  11.930  0.00  0.00    +0.000 A 
ATOM      6  C   UNL     1      48.024   8.563  11.972  0.00  0.00    +0.000 A 
ATOM      7  C   UNL     1      47.260   9.635  12.450  0.00  0.00    +0.000 A 
ATOM      8  C   UNL     1      45.950   9.422  12.840  0.00  0.00    +0.000 A 
ATOM      9  N   UNL     1      45.341   8.225  12.781  0.00  0.00    +0.000 NA
BRANCH   6  10
ATOM     10  C   UNL     1      49.419   8.755  11.506  0.00  0.00    +0.000 A 
ATOM     11  C   UNL     1      50.004  10.035  11.459  0.00  0.00    +0.000 A 
ATOM     12  C   UNL     1      51.328  10.224  11.047  0.00  0.00    +0.000 A 
ATOM     13  C   UNL     1      52.106   9.129  10.686  0.00  0.00    +0.000 A 
ATOM     14  C   UNL     1      51.551   7.854  10.727  0.00  0.00    +0.000 A 
ATOM     15 CL   UNL     1      52.514   6.492  10.301  0.00  0.00    +0.000 Cl
ATOM     16  C   UNL     1      50.224   7.667  11.120  0.00  0.00    +0.000 A 
ENDBRANCH   6  10
ENDBRANCH   1   4
BRANCH   1  17
ATOM     17  C   UNL     1      44.342   5.775  11.101  0.00  0.00    +0.000 C 
BRANCH  17  18
ATOM     18  N   UNL     1      44.064   4.428  10.569  0.00  0.00    +0.000 N 
ATOM     19  H   UNL     1      43.721   3.765  11.262  0.00  0.00    +0.000 HD
BRANCH  18  23
ATOM     20  C   UNL     1      46.469   2.574   7.642  0.00  0.00    +0.000 A 
ATOM     21  C   UNL     1      46.381   3.966   7.674  0.00  0.00    +0.000 A 
ATOM     22  C   UNL     1      45.602   4.596   8.650  0.00  0.00    +0.000 A 
ATOM     23  C   UNL     1      44.922   3.858   9.629  0.00  0.00    +0.000 A 
ATOM     24  C   UNL     1      45.005   2.462   9.568  0.00  0.00    +0.000 A 
ATOM     25  C   UNL     1      45.765   1.820   8.584  0.00  0.00    +0.000 A 
BRANCH  20  27
ATOM     26  N   UNL     1      47.979   2.641   5.736  0.00  0.00    +0.000 N 
ATOM     27  C   UNL     1      47.263   1.866   6.607  0.00  0.00    +0.000 C 
ATOM     28  O   UNL     1      47.311   0.643   6.552  0.00  0.00    +0.000 OA
ATOM     29  H   UNL     1      48.602   2.147   5.110  0.00  0.00    +0.000 HD
ATOM     30  H   UNL     1      48.164   3.615   5.911  0.00  0.00    +0.000 HD
ENDBRANCH  20  27
ENDBRANCH  18  23
ENDBRANCH  17  18
ENDBRANCH   1  17
TORSDOF 6
ENDMDL
MODEL 8
REMARK VINA RESULT:    -7.290      4.598      7.747
REMARK INTER + INTRA:         -10.794
REMARK INTER:                  -9.361
REMARK INTRA:                  -1.433
REMARK UNBOUND:                -0.948
REMARK  Name = 
REMARK  6 active torsions:
REMARK  status: ('A' for Active; 'I' for Inactive)
REMARK    1  A    between atoms: C_2  and  C_4
REMARK    2  A    between atoms: C_7  and  N_8
REMARK    3  A    between atoms: N_8  and  C_9
REMARK    4  A    between atoms: C_9  and  C_10
REMARK    5  A    between atoms: C_10  and  C_13
REMARK    6  A    between atoms: C_15  and  C_16
REMARK                            x       y       z     vdW  Elec       q    Type
REMARK                         _______ _______ _______ _____ _____    ______ ____
ROOT
ATOM      1  C   UNL     1      49.555   8.154  12.274  0.00  0.00    +0.000 C 
ATOM      2  F   UNL     1      49.966   9.440  12.052  0.00  0.00    +0.000 F 
ATOM      3  F   UNL     1      50.189   7.409  11.311  0.00  0.00    +0.000 F 
ENDROOT
BRANCH   1   4
ATOM      4  C   UNL     1      48.040   8.023  12.178  0.00  0.00    +0.000 A 
ATOM      5  C   UNL     1      47.499   6.926  11.502  0.00  0.00    +0.000 A 
ATOM      6  C   UNL     1      46.109   6.752  11.432  0.00  0.00    +0.000 A 
ATOM      7  C   UNL     1      45.316   7.736  12.038  0.00  0.00    +0.000 A 
ATOM      8  C   UNL     1      45.919   8.805  12.675  0.00  0.00    +0.000 A 
ATOM      9  N   UNL     1      47.251   8.964  12.764  0.00  0.00    +0.000 NA
BRANCH   6  10
ATOM     10  C   UNL     1      45.504   5.570  10.772  0.00  0.00    +0.000 A 
ATOM     11  C   UNL     1      45.748   5.287   9.414  0.00  0.00    +0.000 A 
ATOM     12  C   UNL     1      45.205   4.159   8.790  0.00  0.00    +0.000 A 
ATOM     13  C   UNL     1      44.414   3.275   9.517  0.00  0.00    +0.000 A 
ATOM     14  C   UNL     1      44.162   3.532  10.860  0.00  0.00    +0.000 A 
ATOM     15 CL   UNL     1      43.201   2.432  11.772  0.00  0.00    +0.000 Cl
ATOM     16  C   UNL     1      44.688   4.667  11.480  0.00  0.00    +0.000 A 
ENDBRANCH   6  10
ENDBRANCH   1   4
BRANCH   1  17
ATOM     17  C   UNL     1      50.070   7.685  13.654  0.00  0.00    +0.000 C 
BRANCH  17  18
ATOM     18  N   UNL     1      49.123   7.926  14.760  0.00  0.00    +0.000 N 
ATOM     19  H   UNL     1      49.269   8.804  15.255  0.00  0.00    +0.000 HD
BRANCH  18  23
ATOM     20  C   UNL     1      48.043   4.589  17.103  0.00  0.00    +0.000 A 
ATOM     21  C   UNL     1      48.939   5.526  17.619  0.00  0.00    +0.000 A 
ATOM     22  C   UNL     1      49.293   6.648  16.861  0.00  0.00    +0.000 A 
ATOM     23  C   UNL     1      48.741   6.874  15.592  0.00  0.00    +0.000 A 
ATOM     24  C   UNL     1      47.860   5.912  15.083  0.00  0.00    +0.000 A 
ATOM     25  C   UNL     1      47.515   4.777  15.824  0.00  0.00    +0.000 A 
BRANCH  20  27
ATOM     26  N   UNL     1      48.392   3.089  18.986  0.00  0.00    +0.000 N 
ATOM     27  C   UNL     1      47.662   3.373  17.864  0.00  0.00    +0.000 C 
ATOM     28  O   UNL     1      46.716   2.671  17.531  0.00  0.00    +0.000 OA
ATOM     29  H   UNL     1      48.052   2.325  19.556  0.00  0.00    +0.000 HD
ATOM     30  H   UNL     1      48.993   3.769  19.422  0.00  0.00    +0.000 HD
ENDBRANCH  20  27
ENDBRANCH  18  23
ENDBRANCH  17  18
ENDBRANCH   1  17
TORSDOF 6
ENDMDL
MODEL 9
REMARK VINA RESULT:    -7.198      4.307      7.987
REMARK INTER + INTRA:         -10.671
REMARK INTER:                  -9.883
REMARK INTRA:                  -0.788
REMARK UNBOUND:                -0.948
REMARK  Name = 
REMARK  6 active torsions:
REMARK  status: ('A' for Active; 'I' for Inactive)
REMARK    1  A    between atoms: C_2  and  C_4
REMARK    2  A    between atoms: C_7  and  N_8
REMARK    3  A    between atoms: N_8  and  C_9
REMARK    4  A    between atoms: C_9  and  C_10
REMARK    5  A    between atoms: C_10  and  C_13
REMARK    6  A    between atoms: C_15  and  C_16
REMARK                            x       y       z     vdW  Elec       q    Type
REMARK                         _______ _______ _______ _____ _____    ______ ____
ROOT
ATOM      1  C   UNL     1      45.599   7.173  11.893  0.00  0.00    +0.000 C 
ATOM      2  F   UNL     1      45.219   7.341  13.197  0.00  0.00    +0.000 F 
ATOM      3  F   UNL     1      45.236   8.340  11.268  0.00  0.00    +0.000 F 
ENDROOT
BRANCH   1   4
ATOM      4  C   UNL     1      44.922   5.964  11.261  0.00  0.00    +0.000 A 
ATOM      5  C   UNL     1      45.555   5.316  10.197  0.00  0.00    +0.000 A 
ATOM      6  C   UNL     1      44.980   4.174   9.620  0.00  0.00    +0.000 A 
ATOM      7  C   UNL     1      43.751   3.751  10.141  0.00  0.00    +0.000 A 
ATOM      8  C   UNL     1      43.173   4.450  11.185  0.00  0.00    +0.000 A 
ATOM      9  N   UNL     1      43.730   5.533  11.755  0.00  0.00    +0.000 NA
BRANCH   6  10
ATOM     10  C   UNL     1      45.654   3.430   8.528  0.00  0.00    +0.000 A 
ATOM     11  C   UNL     1      46.216   4.102   7.425  0.00  0.00    +0.000 A 
ATOM     12  C   UNL     1      46.878   3.413   6.404  0.00  0.00    +0.000 A 
ATOM     13  C   UNL     1      47.007   2.029   6.470  0.00  0.00    +0.000 A 
ATOM     14  C   UNL     1      46.463   1.344   7.550  0.00  0.00    +0.000 A 
ATOM     15 CL   UNL     1      46.637  -0.366   7.650  0.00  0.00    +0.000 Cl
ATOM     16  C   UNL     1      45.786   2.029   8.561  0.00  0.00    +0.000 A 
ENDBRANCH   6  10
ENDBRANCH   1   4
BRANCH   1  17
ATOM     17  C   UNL     1      47.139   7.053  11.822  0.00  0.00    +0.000 C 
BRANCH  17  18
ATOM     18  N   UNL     1      47.857   8.130  12.530  0.00  0.00    +0.000 N 
ATOM     19  H   UNL     1      48.630   8.535  12.006  0.00  0.00    +0.000 HD
BRANCH  18  23
ATOM     20  C   UNL     1      48.838   7.694  16.609  0.00  0.00    +0.000 A 
ATOM     21  C   UNL     1      48.504   8.956  16.117  0.00  0.00    +0.000 A 
ATOM     22  C   UNL     1      48.158   9.113  14.770  0.00  0.00    +0.000 A 
ATOM     23  C   UNL     1      48.108   8.018  13.897  0.00  0.00    +0.000 A 
ATOM     24  C   UNL     1      48.467   6.763  14.405  0.00  0.00    +0.000 A 
ATOM     25  C   UNL     1      48.834   6.597  15.744  0.00  0.00    +0.000 A 
BRANCH  20  27
ATOM     26  N   UNL     1      48.876   8.461  18.917  0.00  0.00    +0.000 N 
ATOM     27  C   UNL     1      49.235   7.489  18.024  0.00  0.00    +0.000 C 
ATOM     28  O   UNL     1      49.825   6.481  18.391  0.00  0.00    +0.000 OA
ATOM     29  H   UNL     1      49.053   8.257  19.893  0.00  0.00    +0.000 HD
ATOM     30  H   UNL     1      48.183   9.159  18.701  0.00  0.00    +0.000 HD
ENDBRANCH  20  27
ENDBRANCH  18  23
ENDBRANCH  17  18
ENDBRANCH   1  17
TORSDOF 6
ENDMDL
