MODEL 1
REMARK VINA RESULT:    -7.452      0.000      0.000
REMARK INTER + INTRA:          -9.028
REMARK INTER:                  -8.759
REMARK INTRA:                  -0.269
REMARK UNBOUND:                -0.269
REMARK  Name = 
REMARK  5 active torsions:
REMARK  status: ('A' for Active; 'I' for Inactive)
REMARK    1  A    between atoms: C_1  and  C_2
REMARK    2  A    between atoms: C_5  and  C_6
REMARK    3  A    between atoms: C_6  and  C_7
REMARK    4  A    between atoms: C_6  and  N_8
REMARK    5  A    between atoms: C_12  and  C_13
REMARK                            x       y       z     vdW  Elec       q    Type
REMARK                         _______ _______ _______ _____ _____    ______ ____
ROOT
ATOM      1  N   UNL     1      43.781   4.925   9.854  0.00  0.00    +0.000 N 
ATOM      2  C   UNL     1      44.564   3.925   9.261  0.00  0.00    +0.000 A 
ATOM      3  C   UNL     1      44.840   4.032   7.900  0.00  0.00    +0.000 A 
ATOM      4  C   UNL     1      45.615   3.057   7.269  0.00  0.00    +0.000 A 
ATOM      5  C   UNL     1      46.110   1.984   8.009  0.00  0.00    +0.000 A 
ATOM      6  C   UNL     1      45.776   1.946   9.351  0.00  0.00    +0.000 A 
ATOM      7  N   UNL     1      45.016   2.879   9.982  0.00  0.00    +0.000 NA
ATOM      8  H   UNL     1      44.216   5.826   9.670  0.00  0.00    +0.000 HD
ENDROOT
BRANCH   5   9
ATOM      9  C   UNL     1      46.945   0.961   7.332  0.00  0.00    +0.000 C 
ATOM     10  N   UNL     1      46.755  -0.359   7.633  0.00  0.00    +0.000 N 
ATOM     11  O   UNL     1      47.804   1.282   6.519  0.00  0.00    +0.000 OA
ATOM     12  H   UNL     1      46.098  -0.732   8.299  0.00  0.00    +0.000 HD
ATOM     13  H   UNL     1      47.356  -1.019   7.154  0.00  0.00    +0.000 HD
ENDBRANCH   5   9
BRANCH   1  14
ATOM     14  C   UNL     1      43.473   4.764  11.279  0.00  0.00    +0.000 C 
ATOM     15  C   UNL     1      42.250   5.606  11.649  0.00  0.00    +0.000 C 
BRANCH  14  20
ATOM     16  C   UNL     1      48.164   6.320  14.408  0.00  0.00    +0.000 C 
ATOM     17  C   UNL     1      46.953   5.927  13.618  0.00  0.00    +0.000 A 
ATOM     18  C   UNL     1      46.230   4.773  13.935  0.00  0.00    +0.000 A 
ATOM     19  C   UNL     1      45.112   4.407  13.180  0.00  0.00    +0.000 A 
ATOM     20  C   UNL     1      44.691   5.190  12.093  0.00  0.00    +0.000 A 
ATOM     21  C   UNL     1      45.422   6.346  11.780  0.00  0.00    +0.000 A 
ATOM     22  C   UNL     1      46.539   6.712  12.536  0.00  0.00    +0.000 A 
ENDBRANCH  14  20
ENDBRANCH   1  14
TORSDOF 3
ENDMDL
MODEL 2
REMARK VINA RESULT:    -7.422      3.536      6.920
REMARK INTER + INTRA:          -8.993
REMARK INTER:                  -8.557
REMARK INTRA:                  -0.436
REMARK UNBOUND:                -0.269
REMARK  Name = 
REMARK  5 active torsions:
REMARK  status: ('A' for Active; 'I' for Inactive)
REMARK    1  A    between atoms: C_1  and  C_2
REMARK    2  A    between atoms: C_5  and  C_6
REMARK    3  A    between atoms: C_6  and  C_7
REMARK    4  A    between atoms: C_6  and  N_8
REMARK    5  A    between atoms: C_12  and  C_13
REMARK                            x       y       z     vdW  Elec       q    Type
REMARK                         _______ _______ _______ _____ _____    ______ ____
ROOT
ATOM      1  N   UNL     1      45.085   4.644  11.802  0.00  0.00    +0.000 N 
ATOM      2  C   UNL     1      45.110   6.043  11.870  0.00  0.00    +0.000 A 
ATOM      3  C   UNL     1      45.964   6.637  12.797  0.00  0.00    +0.000 A 
ATOM      4  C   UNL     1      46.019   8.029  12.899  0.00  0.00    +0.000 A 
ATOM      5  C   UNL     1      45.221   8.813  12.068  0.00  0.00    +0.000 A 
ATOM      6  C   UNL     1      44.390   8.143  11.187  0.00  0.00    +0.000 A 
ATOM      7  N   UNL     1      44.314   6.790  11.080  0.00  0.00    +0.000 NA
ATOM      8  H   UNL     1      46.033   4.312  11.645  0.00  0.00    +0.000 HD
ENDROOT
BRANCH   5   9
ATOM      9  C   UNL     1      45.298  10.292  12.174  0.00  0.00    +0.000 C 
ATOM     10  N   UNL     1      46.514  10.884  12.370  0.00  0.00    +0.000 N 
ATOM     11  O   UNL     1      44.289  10.984  12.098  0.00  0.00    +0.000 OA
ATOM     12  H   UNL     1      47.399  10.413  12.471  0.00  0.00    +0.000 HD
ATOM     13  H   UNL     1      46.514  11.894  12.447  0.00  0.00    +0.000 HD
ENDBRANCH   5   9
BRANCH   1  14
ATOM     14  C   UNL     1      44.147   4.046  10.847  0.00  0.00    +0.000 C 
ATOM     15  C   UNL     1      43.360   2.918  11.519  0.00  0.00    +0.000 C 
BRANCH  14  20
ATOM     16  C   UNL     1      47.222   2.088   6.272  0.00  0.00    +0.000 C 
ATOM     17  C   UNL     1      46.422   2.593   7.435  0.00  0.00    +0.000 A 
ATOM     18  C   UNL     1      46.238   3.963   7.642  0.00  0.00    +0.000 A 
ATOM     19  C   UNL     1      45.504   4.422   8.739  0.00  0.00    +0.000 A 
ATOM     20  C   UNL     1      44.935   3.520   9.652  0.00  0.00    +0.000 A 
ATOM     21  C   UNL     1      45.124   2.146   9.438  0.00  0.00    +0.000 A 
ATOM     22  C   UNL     1      45.857   1.688   8.340  0.00  0.00    +0.000 A 
ENDBRANCH  14  20
ENDBRANCH   1  14
TORSDOF 3
ENDMDL
MODEL 3
REMARK VINA RESULT:    -7.323      3.336      6.803
REMARK INTER + INTRA:          -8.877
REMARK INTER:                  -8.407
REMARK INTRA:                  -0.470
REMARK UNBOUND:                -0.269
REMARK  Name = 
REMARK  5 active torsions:
REMARK  status: ('A' for Active; 'I' for Inactive)
REMARK    1  A    between atoms: C_1  and  C_2
REMARK    2  A    between atoms: C_5  and  C_6
REMARK    3  A    between atoms: C_6  and  C_7
REMARK    4  A    between atoms: C_6  and  N_8
REMARK    5  A    between atoms: C_12  and  C_13
REMARK                            x       y       z     vdW  Elec       q    Type
REMARK                         _______ _______ _______ _____ _____    ______ ____
ROOT
ATOM      1  N   UNL     1      45.482   3.813  12.083  0.00  0.00    +0.000 N 
ATOM      2  C   UNL     1      45.969   5.060  12.495  0.00  0.00    +0.000 A 
ATOM      3  C   UNL     1      46.932   5.085  13.502  0.00  0.00    +0.000 A 
ATOM      4  C   UNL     1      47.444   6.307  13.944  0.00  0.00    +0.000 A 
ATOM      5  C   UNL     1      46.988   7.493  13.371  0.00  0.00    +0.000 A 
ATOM      6  C   UNL     1      46.020   7.380  12.389  0.00  0.00    +0.000 A 
ATOM      7  N   UNL     1      45.502   6.202  11.951  0.00  0.00    +0.000 NA
ATOM      8  H   UNL     1      46.271   3.234  11.806  0.00  0.00    +0.000 HD
ENDROOT
BRANCH   5   9
ATOM      9  C   UNL     1      47.549   8.786  13.838  0.00  0.00    +0.000 C 
ATOM     10  N   UNL     1      47.499   9.092  15.169  0.00  0.00    +0.000 N 
ATOM     11  O   UNL     1      48.044   9.582  13.048  0.00  0.00    +0.000 OA
ATOM     12  H   UNL     1      47.095   8.526  15.899  0.00  0.00    +0.000 HD
ATOM     13  H   UNL     1      47.884   9.990  15.438  0.00  0.00    +0.000 HD
ENDBRANCH   5   9
BRANCH   1  14
ATOM     14  C   UNL     1      44.440   3.820  11.051  0.00  0.00    +0.000 C 
ATOM     15  C   UNL     1      43.340   2.816  11.409  0.00  0.00    +0.000 C 
BRANCH  14  20
ATOM     16  C   UNL     1      46.936   2.539   5.917  0.00  0.00    +0.000 C 
ATOM     17  C   UNL     1      46.283   2.871   7.225  0.00  0.00    +0.000 A 
ATOM     18  C   UNL     1      46.101   4.199   7.623  0.00  0.00    +0.000 A 
ATOM     19  C   UNL     1      45.507   4.495   8.852  0.00  0.00    +0.000 A 
ATOM     20  C   UNL     1      45.078   3.470   9.710  0.00  0.00    +0.000 A 
ATOM     21  C   UNL     1      45.263   2.139   9.305  0.00  0.00    +0.000 A 
ATOM     22  C   UNL     1      45.857   1.843   8.075  0.00  0.00    +0.000 A 
ENDBRANCH  14  20
ENDBRANCH   1  14
TORSDOF 3
ENDMDL
MODEL 4
REMARK VINA RESULT:    -7.051      2.994      6.088
REMARK INTER + INTRA:          -8.557
REMARK INTER:                  -9.405
REMARK INTRA:                   0.848
REMARK UNBOUND:                -0.269
REMARK  Name = 
REMARK  5 active torsions:
REMARK  status: ('A' for Active; 'I' for Inactive)
REMARK    1  A    between atoms: C_1  and  C_2
REMARK    2  A    between atoms: C_5  and  C_6
REMARK    3  A    between atoms: C_6  and  C_7
REMARK    4  A    between atoms: C_6  and  N_8
REMARK    5  A    between atoms: C_12  and  C_13
REMARK                            x       y       z     vdW  Elec       q    Type
REMARK                         _______ _______ _______ _____ _____    ______ ____
ROOT
ATOM      1  N   UNL     1      44.420   5.989  10.537  0.00  0.00    +0.000 N 
ATOM      2  C   UNL     1      45.347   5.972  11.589  0.00  0.00    +0.000 A 
ATOM      3  C   UNL     1      46.024   7.155  11.881  0.00  0.00    +0.000 A 
ATOM      4  C   UNL     1      46.955   7.182  12.921  0.00  0.00    +0.000 A 
ATOM      5  C   UNL     1      47.199   6.026  13.660  0.00  0.00    +0.000 A 
ATOM      6  C   UNL     1      46.495   4.892  13.294  0.00  0.00    +0.000 A 
ATOM      7  N   UNL     1      45.592   4.841  12.280  0.00  0.00    +0.000 NA
ATOM      8  H   UNL     1      43.744   6.727  10.715  0.00  0.00    +0.000 HD
ENDROOT
BRANCH   5   9
ATOM      9  C   UNL     1      48.181   6.069  14.772  0.00  0.00    +0.000 C 
ATOM     10  N   UNL     1      47.845   5.523  15.980  0.00  0.00    +0.000 N 
ATOM     11  O   UNL     1      49.279   6.594  14.625  0.00  0.00    +0.000 OA
ATOM     12  H   UNL     1      46.966   5.091  16.217  0.00  0.00    +0.000 HD
ATOM     13  H   UNL     1      48.544   5.587  16.711  0.00  0.00    +0.000 HD
ENDBRANCH   5   9
BRANCH   1  14
ATOM     14  C   UNL     1      43.753   4.720  10.225  0.00  0.00    +0.000 C 
ATOM     15  C   UNL     1      43.395   3.985  11.519  0.00  0.00    +0.000 C 
BRANCH  14  20
ATOM     16  C   UNL     1      47.276   1.431   6.911  0.00  0.00    +0.000 C 
ATOM     17  C   UNL     1      46.383   2.272   7.772  0.00  0.00    +0.000 A 
ATOM     18  C   UNL     1      45.552   1.689   8.733  0.00  0.00    +0.000 A 
ATOM     19  C   UNL     1      44.711   2.482   9.518  0.00  0.00    +0.000 A 
ATOM     20  C   UNL     1      44.687   3.877   9.362  0.00  0.00    +0.000 A 
ATOM     21  C   UNL     1      45.523   4.456   8.396  0.00  0.00    +0.000 A 
ATOM     22  C   UNL     1      46.365   3.662   7.611  0.00  0.00    +0.000 A 
ENDBRANCH  14  20
ENDBRANCH   1  14
TORSDOF 3
ENDMDL
MODEL 5
REMARK VINA RESULT:    -6.522      4.284      6.523
REMARK INTER + INTRA:          -7.935
REMARK INTER:                  -7.456
REMARK INTRA:                  -0.480
REMARK UNBOUND:                -0.269
REMARK  Name = 
REMARK  5 active torsions:
REMARK  status: ('A' for Active; 'I' for Inactive)
REMARK    1  A    between atoms: C_1  and  C_2
REMARK    2  A    between atoms: C_5  and  C_6
REMARK    3  A    between atoms: C_6  and  C_7
REMARK    4  A    between atoms: C_6  and  N_8
REMARK    5  A    between atoms: C_12  and  C_13
REMARK                            x       y       z     vdW  Elec       q    Type
REMARK                         _______ _______ _______ _____ _____    ______ ____
ROOT
ATOM      1  N   UNL     1      47.864   5.507  15.741  0.00  0.00    +0.000 N 
ATOM      2  C   UNL     1      47.161   5.355  14.538  0.00  0.00    +0.000 A 
ATOM      3  C   UNL     1      47.319   6.335  13.561  0.00  0.00    +0.000 A 
ATOM      4  C   UNL     1      46.637   6.223  12.348  0.00  0.00    +0.000 A 
ATOM      5  C   UNL     1      45.804   5.128  12.123  0.00  0.00    +0.000 A 
ATOM      6  C   UNL     1      45.690   4.209  13.152  0.00  0.00    +0.000 A 
ATOM      7  N   UNL     1      46.338   4.305  14.344  0.00  0.00    +0.000 NA
ATOM      8  H   UNL     1      48.852   5.609  15.526  0.00  0.00    +0.000 HD
ENDROOT
BRANCH   5   9
ATOM      9  C   UNL     1      45.093   5.011  10.825  0.00  0.00    +0.000 C 
ATOM     10  N   UNL     1      45.675   5.523   9.699  0.00  0.00    +0.000 N 
ATOM     11  O   UNL     1      43.995   4.472  10.753  0.00  0.00    +0.000 OA
ATOM     12  H   UNL     1      46.558   6.005   9.648  0.00  0.00    +0.000 HD
ATOM     13  H   UNL     1      45.146   5.429   8.839  0.00  0.00    +0.000 HD
ENDBRANCH   5   9
BRANCH   1  14
ATOM     14  C   UNL     1      47.646   4.482  16.767  0.00  0.00    +0.000 C 
ATOM     15  C   UNL     1      47.118   5.129  18.051  0.00  0.00    +0.000 C 
BRANCH  14  20
ATOM     16  C   UNL     1      52.715   1.759  17.820  0.00  0.00    +0.000 C 
ATOM     17  C   UNL     1      51.422   2.463  17.537  0.00  0.00    +0.000 A 
ATOM     18  C   UNL     1      51.279   3.832  17.781  0.00  0.00    +0.000 A 
ATOM     19  C   UNL     1      50.063   4.474  17.529  0.00  0.00    +0.000 A 
ATOM     20  C   UNL     1      48.965   3.760  17.025  0.00  0.00    +0.000 A 
ATOM     21  C   UNL     1      49.114   2.386  16.783  0.00  0.00    +0.000 A 
ATOM     22  C   UNL     1      50.331   1.745  17.034  0.00  0.00    +0.000 A 
ENDBRANCH  14  20
ENDBRANCH   1  14
TORSDOF 3
ENDMDL
MODEL 6
REMARK VINA RESULT:    -6.462      1.386      2.030
REMARK INTER + INTRA:          -7.864
REMARK INTER:                  -8.636
REMARK INTRA:                   0.771
REMARK UNBOUND:                -0.269
REMARK  Name = 
REMARK  5 active torsions:
REMARK  status: ('A' for Active; 'I' for Inactive)
REMARK    1  A    between atoms: C_1  and  C_2
REMARK    2  A    between atoms: C_5  and  C_6
REMARK    3  A    between atoms: C_6  and  C_7
REMARK    4  A    between atoms: C_6  and  N_8
REMARK    5  A    between atoms: C_12  and  C_13
REMARK                            x       y       z     vdW  Elec       q    Type
REMARK                         _______ _______ _______ _____ _____    ______ ____
ROOT
ATOM      1  N   UNL     1      44.146   2.902  10.870  0.00  0.00    +0.000 N 
ATOM      2  C   UNL     1      44.932   2.916   9.710  0.00  0.00    +0.000 A 
ATOM      3  C   UNL     1      45.321   1.692   9.170  0.00  0.00    +0.000 A 
ATOM      4  C   UNL     1      46.105   1.661   8.015  0.00  0.00    +0.000 A 
ATOM      5  C   UNL     1      46.490   2.856   7.409  0.00  0.00    +0.000 A 
ATOM      6  C   UNL     1      46.073   4.027   8.019  0.00  0.00    +0.000 A 
ATOM      7  N   UNL     1      45.318   4.079   9.148  0.00  0.00    +0.000 NA
ATOM      8  H   UNL     1      43.320   2.335  10.693  0.00  0.00    +0.000 HD
ENDROOT
BRANCH   5   9
ATOM      9  C   UNL     1      47.311   2.812   6.174  0.00  0.00    +0.000 C 
ATOM     10  N   UNL     1      48.654   2.577   6.275  0.00  0.00    +0.000 N 
ATOM     11  O   UNL     1      46.806   2.992   5.072  0.00  0.00    +0.000 OA
ATOM     12  H   UNL     1      49.176   2.440   7.126  0.00  0.00    +0.000 HD
ATOM     13  H   UNL     1      49.175   2.568   5.405  0.00  0.00    +0.000 HD
ENDBRANCH   5   9
BRANCH   1  14
ATOM     14  C   UNL     1      43.785   4.204  11.439  0.00  0.00    +0.000 C 
ATOM     15  C   UNL     1      43.313   5.149  10.330  0.00  0.00    +0.000 C 
BRANCH  14  20
ATOM     16  C   UNL     1      48.413   6.468  14.210  0.00  0.00    +0.000 C 
ATOM     17  C   UNL     1      47.235   5.888  13.487  0.00  0.00    +0.000 A 
ATOM     18  C   UNL     1      46.427   6.685  12.671  0.00  0.00    +0.000 A 
ATOM     19  C   UNL     1      45.322   6.137  12.015  0.00  0.00    +0.000 A 
ATOM     20  C   UNL     1      45.002   4.777  12.158  0.00  0.00    +0.000 A 
ATOM     21  C   UNL     1      45.817   3.983  12.979  0.00  0.00    +0.000 A 
ATOM     22  C   UNL     1      46.923   4.532  13.634  0.00  0.00    +0.000 A 
ENDBRANCH  14  20
ENDBRANCH   1  14
TORSDOF 3
ENDMDL
MODEL 7
REMARK VINA RESULT:    -5.670      3.635      5.879
REMARK INTER + INTRA:          -6.934
REMARK INTER:                  -6.456
REMARK INTRA:                  -0.478
REMARK UNBOUND:                -0.269
REMARK  Name = 
REMARK  5 active torsions:
REMARK  status: ('A' for Active; 'I' for Inactive)
REMARK    1  A    between atoms: C_1  and  C_2
REMARK    2  A    between atoms: C_5  and  C_6
REMARK    3  A    between atoms: C_6  and  C_7
REMARK    4  A    between atoms: C_6  and  N_8
REMARK    5  A    between atoms: C_12  and  C_13
REMARK                            x       y       z     vdW  Elec       q    Type
REMARK                         _______ _______ _______ _____ _____    ______ ____
ROOT
ATOM      1  N   UNL     1      47.240   7.494  13.689  0.00  0.00    +0.000 N 
ATOM      2  C   UNL     1      46.398   6.458  13.261  0.00  0.00    +0.000 A 
ATOM      3  C   UNL     1      45.158   6.803  12.726  0.00  0.00    +0.000 A 
ATOM      4  C   UNL     1      44.288   5.802  12.288  0.00  0.00    +0.000 A 
ATOM      5  C   UNL     1      44.669   4.465  12.389  0.00  0.00    +0.000 A 
ATOM      6  C   UNL     1      45.909   4.209  12.947  0.00  0.00    +0.000 A 
ATOM      7  N   UNL     1      46.767   5.168  13.388  0.00  0.00    +0.000 NA
ATOM      8  H   UNL     1      47.377   8.138  12.914  0.00  0.00    +0.000 HD
ENDROOT
BRANCH   5   9
ATOM      9  C   UNL     1      43.743   3.409  11.909  0.00  0.00    +0.000 C 
ATOM     10  N   UNL     1      43.724   2.199  12.545  0.00  0.00    +0.000 N 
ATOM     11  O   UNL     1      43.006   3.604  10.949  0.00  0.00    +0.000 OA
ATOM     12  H   UNL     1      44.301   1.924  13.324  0.00  0.00    +0.000 HD
ATOM     13  H   UNL     1      43.084   1.507  12.173  0.00  0.00    +0.000 HD
ENDBRANCH   5   9
BRANCH   1  14
ATOM     14  C   UNL     1      48.520   7.100  14.286  0.00  0.00    +0.000 C 
ATOM     15  C   UNL     1      48.649   7.695  15.690  0.00  0.00    +0.000 C 
BRANCH  14  20
ATOM     16  C   UNL     1      52.905   8.947  10.883  0.00  0.00    +0.000 C 
ATOM     17  C   UNL     1      51.777   8.488  11.756  0.00  0.00    +0.000 A 
ATOM     18  C   UNL     1      51.835   8.637  13.145  0.00  0.00    +0.000 A 
ATOM     19  C   UNL     1      50.784   8.191  13.951  0.00  0.00    +0.000 A 
ATOM     20  C   UNL     1      49.650   7.588  13.384  0.00  0.00    +0.000 A 
ATOM     21  C   UNL     1      49.598   7.441  11.990  0.00  0.00    +0.000 A 
ATOM     22  C   UNL     1      50.649   7.889  11.185  0.00  0.00    +0.000 A 
ENDBRANCH  14  20
ENDBRANCH   1  14
TORSDOF 3
ENDMDL
MODEL 8
REMARK VINA RESULT:    -5.643      5.659      8.420
REMARK INTER + INTRA:          -6.902
REMARK INTER:                  -6.397
REMARK INTRA:                  -0.506
REMARK UNBOUND:                -0.269
REMARK  Name = 
REMARK  5 active torsions:
REMARK  status: ('A' for Active; 'I' for Inactive)
REMARK    1  A    between atoms: C_1  and  C_2
REMARK    2  A    between atoms: C_5  and  C_6
REMARK    3  A    between atoms: C_6  and  C_7
REMARK    4  A    between atoms: C_6  and  N_8
REMARK    5  A    between atoms: C_12  and  C_13
REMARK                            x       y       z     vdW  Elec       q    Type
REMARK                         _______ _______ _______ _____ _____    ______ ____
ROOT
ATOM      1  N   UNL     1      48.191   7.195  14.812  0.00  0.00    +0.000 N 
ATOM      2  C   UNL     1      48.533   6.541  16.003  0.00  0.00    +0.000 A 
ATOM      3  C   UNL     1      48.570   7.294  17.175  0.00  0.00    +0.000 A 
ATOM      4  C   UNL     1      48.907   6.681  18.384  0.00  0.00    +0.000 A 
ATOM      5  C   UNL     1      49.201   5.319  18.409  0.00  0.00    +0.000 A 
ATOM      6  C   UNL     1      49.156   4.649  17.198  0.00  0.00    +0.000 A 
ATOM      7  N   UNL     1      48.840   5.228  16.010  0.00  0.00    +0.000 NA
ATOM      8  H   UNL     1      47.294   7.655  14.944  0.00  0.00    +0.000 HD
ENDROOT
BRANCH   5   9
ATOM      9  C   UNL     1      49.544   4.674  19.701  0.00  0.00    +0.000 C 
ATOM     10  N   UNL     1      48.640   3.832  20.286  0.00  0.00    +0.000 N 
ATOM     11  O   UNL     1      50.617   4.893  20.251  0.00  0.00    +0.000 OA
ATOM     12  H   UNL     1      47.723   3.601  19.937  0.00  0.00    +0.000 HD
ATOM     13  H   UNL     1      48.915   3.425  21.173  0.00  0.00    +0.000 HD
ENDBRANCH   5   9
BRANCH   1  14
ATOM     14  C   UNL     1      48.200   6.387  13.589  0.00  0.00    +0.000 C 
ATOM     15  C   UNL     1      49.025   7.085  12.505  0.00  0.00    +0.000 C 
BRANCH  14  20
ATOM     16  C   UNL     1      42.661   5.575  11.892  0.00  0.00    +0.000 C 
ATOM     17  C   UNL     1      44.085   5.773  12.316  0.00  0.00    +0.000 A 
ATOM     18  C   UNL     1      44.714   4.862  13.171  0.00  0.00    +0.000 A 
ATOM     19  C   UNL     1      46.037   5.066  13.574  0.00  0.00    +0.000 A 
ATOM     20  C   UNL     1      46.760   6.182  13.128  0.00  0.00    +0.000 A 
ATOM     21  C   UNL     1      46.123   7.092  12.270  0.00  0.00    +0.000 A 
ATOM     22  C   UNL     1      44.801   6.888  11.867  0.00  0.00    +0.000 A 
ENDBRANCH  14  20
ENDBRANCH   1  14
TORSDOF 3
ENDMDL
MODEL 9
REMARK VINA RESULT:    -5.275      4.497      7.361
REMARK INTER + INTRA:          -6.469
REMARK INTER:                  -6.024
REMARK INTRA:                  -0.445
REMARK UNBOUND:                -0.269
REMARK  Name = 
REMARK  5 active torsions:
REMARK  status: ('A' for Active; 'I' for Inactive)
REMARK    1  A    between atoms: C_1  and  C_2
REMARK    2  A    between atoms: C_5  and  C_6
REMARK    3  A    between atoms: C_6  and  C_7
REMARK    4  A    between atoms: C_6  and  N_8
REMARK    5  A    between atoms: C_12  and  C_13
REMARK                            x       y       z     vdW  Elec       q    Type
REMARK                         _______ _______ _______ _____ _____    ______ ____
ROOT
ATOM      1  N   UNL     1      46.005   4.556  13.906  0.00  0.00    +0.000 N 
ATOM      2  C   UNL     1      47.013   4.622  14.878  0.00  0.00    +0.000 A 
ATOM      3  C   UNL     1      47.005   3.667  15.892  0.00  0.00    +0.000 A 
ATOM      4  C   UNL     1      47.991   3.695  16.881  0.00  0.00    +0.000 A 
ATOM      5  C   UNL     1      48.978   4.679  16.843  0.00  0.00    +0.000 A 
ATOM      6  C   UNL     1      48.903   5.598  15.810  0.00  0.00    +0.000 A 
ATOM      7  N   UNL     1      47.947   5.594  14.844  0.00  0.00    +0.000 NA
ATOM      8  H   UNL     1      46.016   3.628  13.492  0.00  0.00    +0.000 HD
ENDROOT
BRANCH   5   9
ATOM      9  C   UNL     1      50.029   4.693  17.890  0.00  0.00    +0.000 C 
ATOM     10  N   UNL     1      49.742   4.191  19.129  0.00  0.00    +0.000 N 
ATOM     11  O   UNL     1      51.142   5.154  17.663  0.00  0.00    +0.000 OA
ATOM     12  H   UNL     1      48.859   3.813  19.432  0.00  0.00    +0.000 HD
ATOM     13  H   UNL     1      50.488   4.233  19.814  0.00  0.00    +0.000 HD
ENDBRANCH   5   9
BRANCH   1  14
ATOM     14  C   UNL     1      46.014   5.599  12.875  0.00  0.00    +0.000 C 
ATOM     15  C   UNL     1      44.989   6.684  13.216  0.00  0.00    +0.000 C 
BRANCH  14  20
ATOM     16  C   UNL     1      44.735   3.095   7.745  0.00  0.00    +0.000 C 
ATOM     17  C   UNL     1      45.076   3.729   9.060  0.00  0.00    +0.000 A 
ATOM     18  C   UNL     1      44.993   3.004  10.252  0.00  0.00    +0.000 A 
ATOM     19  C   UNL     1      45.298   3.611  11.473  0.00  0.00    +0.000 A 
ATOM     20  C   UNL     1      45.696   4.956  11.528  0.00  0.00    +0.000 A 
ATOM     21  C   UNL     1      45.777   5.678  10.328  0.00  0.00    +0.000 A 
ATOM     22  C   UNL     1      45.473   5.070   9.107  0.00  0.00    +0.000 A 
ENDBRANCH  14  20
ENDBRANCH   1  14
TORSDOF 3
ENDMDL
