MODEL 1
REMARK VINA RESULT:    -8.156      0.000      0.000
REMARK INTER + INTRA:         -10.261
REMARK INTER:                  -9.586
REMARK INTRA:                  -0.674
REMARK UNBOUND:                -0.674
REMARK  Name = 
REMARK  4 active torsions:
REMARK  status: ('A' for Active; 'I' for Inactive)
REMARK    1  A    between atoms: C_1  and  C_2
REMARK    2  A    between atoms: N_6  and  C_7
REMARK    3  A    between atoms: C_7  and  C_8
REMARK    4  A    between atoms: C_12  and  C_13
REMARK                            x       y       z     vdW  Elec       q    Type
REMARK                         _______ _______ _______ _____ _____    ______ ____
ROOT
ATOM      1  C   UNL     1      44.970   4.906  11.320  0.00  0.00    +0.000 A 
ATOM      2  C   UNL     1      45.199   3.961  12.323  0.00  0.00    +0.000 A 
ATOM      3  C   UNL     1      46.202   4.176  13.265  0.00  0.00    +0.000 A 
ATOM      4  C   UNL     1      46.989   5.331  13.206  0.00  0.00    +0.000 A 
ATOM      5  C   UNL     1      46.800   6.299  12.203  0.00  0.00    +0.000 A 
ATOM      6  C   UNL     1      45.757   6.073  11.285  0.00  0.00    +0.000 A 
ENDROOT
BRANCH   5   7
ATOM      7  C   UNL     1      47.704   7.467  12.065  0.00  0.00    +0.000 A 
ATOM      8  C   UNL     1      49.086   7.293  11.855  0.00  0.00    +0.000 A 
ATOM      9  C   UNL     1      49.941   8.382  11.655  0.00  0.00    +0.000 A 
ATOM     10  C   UNL     1      49.433   9.675  11.652  0.00  0.00    +0.000 A 
ATOM     11  C   UNL     1      48.073   9.880  11.866  0.00  0.00    +0.000 A 
ATOM     12  C   UNL     1      47.222   8.789  12.078  0.00  0.00    +0.000 A 
ENDBRANCH   5   7
BRANCH   1  13
ATOM     13  C   UNL     1      43.935   4.667  10.245  0.00  0.00    +0.000 C 
BRANCH  13  19
ATOM     14  C   UNL     1      47.911   2.178   6.040  0.00  0.00    +0.000 C 
ATOM     15  C   UNL     1      46.839   2.455   7.035  0.00  0.00    +0.000 A 
ATOM     16  C   UNL     1      46.422   1.547   7.982  0.00  0.00    +0.000 A 
ATOM     17  N   UNL     1      45.470   1.803   8.906  0.00  0.00    +0.000 NA
ATOM     18  C   UNL     1      44.900   3.013   8.868  0.00  0.00    +0.000 A 
ATOM     19  N   UNL     1      43.933   3.279   9.832  0.00  0.00    +0.000 N 
ATOM     20  N   UNL     1      45.229   3.961   7.978  0.00  0.00    +0.000 NA
ATOM     21  C   UNL     1      46.185   3.662   7.078  0.00  0.00    +0.000 A 
ATOM     22  H   UNL     1      44.064   2.603  10.575  0.00  0.00    +0.000 HD
ENDBRANCH  13  19
ENDBRANCH   1  13
TORSDOF 3
ENDMDL
MODEL 2
REMARK VINA RESULT:    -7.788      3.636      7.422
REMARK INTER + INTRA:          -9.829
REMARK INTER:                  -9.314
REMARK INTRA:                  -0.515
REMARK UNBOUND:                -0.674
REMARK  Name = 
REMARK  4 active torsions:
REMARK  status: ('A' for Active; 'I' for Inactive)
REMARK    1  A    between atoms: C_1  and  C_2
REMARK    2  A    between atoms: N_6  and  C_7
REMARK    3  A    between atoms: C_7  and  C_8
REMARK    4  A    between atoms: C_12  and  C_13
REMARK                            x       y       z     vdW  Elec       q    Type
REMARK                         _______ _______ _______ _____ _____    ______ ____
ROOT
ATOM      1  C   UNL     1      45.096   4.985  12.842  0.00  0.00    +0.000 A 
ATOM      2  C   UNL     1      43.791   5.486  12.844  0.00  0.00    +0.000 A 
ATOM      3  C   UNL     1      42.973   5.301  11.733  0.00  0.00    +0.000 A 
ATOM      4  C   UNL     1      43.455   4.624  10.608  0.00  0.00    +0.000 A 
ATOM      5  C   UNL     1      44.766   4.118  10.560  0.00  0.00    +0.000 A 
ATOM      6  C   UNL     1      45.560   4.288  11.710  0.00  0.00    +0.000 A 
ENDROOT
BRANCH   5   7
ATOM      7  C   UNL     1      45.321   3.502   9.329  0.00  0.00    +0.000 A 
ATOM      8  C   UNL     1      45.856   4.299   8.298  0.00  0.00    +0.000 A 
ATOM      9  C   UNL     1      46.444   3.732   7.162  0.00  0.00    +0.000 A 
ATOM     10  C   UNL     1      46.519   2.350   7.033  0.00  0.00    +0.000 A 
ATOM     11  C   UNL     1      45.990   1.537   8.031  0.00  0.00    +0.000 A 
ATOM     12  C   UNL     1      45.391   2.107   9.160  0.00  0.00    +0.000 A 
ENDBRANCH   5   7
BRANCH   1  13
ATOM     13  C   UNL     1      46.027   5.229  14.006  0.00  0.00    +0.000 C 
BRANCH  13  19
ATOM     14  C   UNL     1      49.587   4.759  19.182  0.00  0.00    +0.000 C 
ATOM     15  C   UNL     1      48.758   4.533  17.966  0.00  0.00    +0.000 A 
ATOM     16  C   UNL     1      47.865   3.493  17.833  0.00  0.00    +0.000 A 
ATOM     17  N   UNL     1      47.090   3.299  16.744  0.00  0.00    +0.000 NA
ATOM     18  C   UNL     1      47.227   4.173  15.739  0.00  0.00    +0.000 A 
ATOM     19  N   UNL     1      46.414   3.980  14.627  0.00  0.00    +0.000 N 
ATOM     20  N   UNL     1      48.076   5.210  15.770  0.00  0.00    +0.000 NA
ATOM     21  C   UNL     1      48.827   5.366  16.876  0.00  0.00    +0.000 A 
ATOM     22  H   UNL     1      45.650   3.384  14.921  0.00  0.00    +0.000 HD
ENDBRANCH  13  19
ENDBRANCH   1  13
TORSDOF 3
ENDMDL
MODEL 3
REMARK VINA RESULT:    -7.764      2.444      6.633
REMARK INTER + INTRA:          -9.800
REMARK INTER:                  -9.282
REMARK INTRA:                  -0.518
REMARK UNBOUND:                -0.674
REMARK  Name = 
REMARK  4 active torsions:
REMARK  status: ('A' for Active; 'I' for Inactive)
REMARK    1  A    between atoms: C_1  and  C_2
REMARK    2  A    between atoms: N_6  and  C_7
REMARK    3  A    between atoms: C_7  and  C_8
REMARK    4  A    between atoms: C_12  and  C_13
REMARK                            x       y       z     vdW  Elec       q    Type
REMARK                         _______ _______ _______ _____ _____    ______ ____
ROOT
ATOM      1  C   UNL     1      44.303   5.271  11.073  0.00  0.00    +0.000 A 
ATOM      2  C   UNL     1      43.473   4.429  11.819  0.00  0.00    +0.000 A 
ATOM      3  C   UNL     1      43.403   3.073  11.512  0.00  0.00    +0.000 A 
ATOM      4  C   UNL     1      44.153   2.550  10.454  0.00  0.00    +0.000 A 
ATOM      5  C   UNL     1      44.988   3.366   9.671  0.00  0.00    +0.000 A 
ATOM      6  C   UNL     1      45.067   4.726  10.024  0.00  0.00    +0.000 A 
ENDROOT
BRANCH   5   7
ATOM      7  C   UNL     1      45.695   2.841   8.477  0.00  0.00    +0.000 A 
ATOM      8  C   UNL     1      46.040   3.691   7.407  0.00  0.00    +0.000 A 
ATOM      9  C   UNL     1      46.766   3.226   6.306  0.00  0.00    +0.000 A 
ATOM     10  C   UNL     1      47.174   1.899   6.250  0.00  0.00    +0.000 A 
ATOM     11  C   UNL     1      46.841   1.033   7.287  0.00  0.00    +0.000 A 
ATOM     12  C   UNL     1      46.103   1.498   8.382  0.00  0.00    +0.000 A 
ENDBRANCH   5   7
BRANCH   1  13
ATOM     13  C   UNL     1      44.347   6.758  11.339  0.00  0.00    +0.000 C 
BRANCH  13  19
ATOM     14  C   UNL     1      50.065   9.088  12.585  0.00  0.00    +0.000 C 
ATOM     15  C   UNL     1      48.687   8.528  12.627  0.00  0.00    +0.000 A 
ATOM     16  C   UNL     1      47.746   8.883  13.568  0.00  0.00    +0.000 A 
ATOM     17  N   UNL     1      46.485   8.400  13.594  0.00  0.00    +0.000 NA
ATOM     18  C   UNL     1      46.158   7.511  12.649  0.00  0.00    +0.000 A 
ATOM     19  N   UNL     1      44.853   7.029  12.669  0.00  0.00    +0.000 N 
ATOM     20  N   UNL     1      47.006   7.093  11.697  0.00  0.00    +0.000 NA
ATOM     21  C   UNL     1      48.252   7.604  11.709  0.00  0.00    +0.000 A 
ATOM     22  H   UNL     1      44.307   7.681  13.218  0.00  0.00    +0.000 HD
ENDBRANCH  13  19
ENDBRANCH   1  13
TORSDOF 3
ENDMDL
MODEL 4
REMARK VINA RESULT:    -6.702      4.356      7.878
REMARK INTER + INTRA:          -8.552
REMARK INTER:                  -8.032
REMARK INTRA:                  -0.519
REMARK UNBOUND:                -0.674
REMARK  Name = 
REMARK  4 active torsions:
REMARK  status: ('A' for Active; 'I' for Inactive)
REMARK    1  A    between atoms: C_1  and  C_2
REMARK    2  A    between atoms: N_6  and  C_7
REMARK    3  A    between atoms: C_7  and  C_8
REMARK    4  A    between atoms: C_12  and  C_13
REMARK                            x       y       z     vdW  Elec       q    Type
REMARK                         _______ _______ _______ _____ _____    ______ ____
ROOT
ATOM      1  C   UNL     1      46.920   6.620  13.386  0.00  0.00    +0.000 A 
ATOM      2  C   UNL     1      46.427   7.920  13.246  0.00  0.00    +0.000 A 
ATOM      3  C   UNL     1      45.518   8.213  12.233  0.00  0.00    +0.000 A 
ATOM      4  C   UNL     1      45.102   7.213  11.347  0.00  0.00    +0.000 A 
ATOM      5  C   UNL     1      45.587   5.897  11.446  0.00  0.00    +0.000 A 
ATOM      6  C   UNL     1      46.478   5.620  12.500  0.00  0.00    +0.000 A 
ENDROOT
BRANCH   5   7
ATOM      7  C   UNL     1      45.241   4.861  10.441  0.00  0.00    +0.000 A 
ATOM      8  C   UNL     1      45.692   4.962   9.110  0.00  0.00    +0.000 A 
ATOM      9  C   UNL     1      45.432   3.961   8.169  0.00  0.00    +0.000 A 
ATOM     10  C   UNL     1      44.720   2.826   8.538  0.00  0.00    +0.000 A 
ATOM     11  C   UNL     1      44.253   2.701   9.843  0.00  0.00    +0.000 A 
ATOM     12  C   UNL     1      44.504   3.711  10.779  0.00  0.00    +0.000 A 
ENDBRANCH   5   7
BRANCH   1  13
ATOM     13  C   UNL     1      47.959   6.289  14.432  0.00  0.00    +0.000 C 
BRANCH  13  19
ATOM     14  C   UNL     1      50.309   5.053  20.144  0.00  0.00    +0.000 C 
ATOM     15  C   UNL     1      49.562   5.074  18.857  0.00  0.00    +0.000 A 
ATOM     16  C   UNL     1      48.231   4.740  18.741  0.00  0.00    +0.000 A 
ATOM     17  N   UNL     1      47.540   4.786  17.581  0.00  0.00    +0.000 NA
ATOM     18  C   UNL     1      48.214   5.164  16.489  0.00  0.00    +0.000 A 
ATOM     19  N   UNL     1      47.495   5.226  15.300  0.00  0.00    +0.000 N 
ATOM     20  N   UNL     1      49.513   5.498  16.498  0.00  0.00    +0.000 NA
ATOM     21  C   UNL     1      50.161   5.441  17.677  0.00  0.00    +0.000 A 
ATOM     22  H   UNL     1      46.515   5.265  15.551  0.00  0.00    +0.000 HD
ENDBRANCH  13  19
ENDBRANCH   1  13
TORSDOF 3
ENDMDL
MODEL 5
REMARK VINA RESULT:    -6.495      2.888      6.940
REMARK INTER + INTRA:          -8.309
REMARK INTER:                  -7.725
REMARK INTRA:                  -0.583
REMARK UNBOUND:                -0.674
REMARK  Name = 
REMARK  4 active torsions:
REMARK  status: ('A' for Active; 'I' for Inactive)
REMARK    1  A    between atoms: C_1  and  C_2
REMARK    2  A    between atoms: N_6  and  C_7
REMARK    3  A    between atoms: C_7  and  C_8
REMARK    4  A    between atoms: C_12  and  C_13
REMARK                            x       y       z     vdW  Elec       q    Type
REMARK                         _______ _______ _______ _____ _____    ______ ____
ROOT
ATOM      1  C   UNL     1      45.028   5.958  12.066  0.00  0.00    +0.000 A 
ATOM      2  C   UNL     1      43.659   5.863  12.329  0.00  0.00    +0.000 A 
ATOM      3  C   UNL     1      42.868   4.986  11.591  0.00  0.00    +0.000 A 
ATOM      4  C   UNL     1      43.437   4.205  10.580  0.00  0.00    +0.000 A 
ATOM      5  C   UNL     1      44.807   4.283  10.274  0.00  0.00    +0.000 A 
ATOM      6  C   UNL     1      45.589   5.151  11.058  0.00  0.00    +0.000 A 
ENDROOT
BRANCH   5   7
ATOM      7  C   UNL     1      45.394   3.545   9.128  0.00  0.00    +0.000 A 
ATOM      8  C   UNL     1      45.895   4.231   8.004  0.00  0.00    +0.000 A 
ATOM      9  C   UNL     1      46.512   3.556   6.947  0.00  0.00    +0.000 A 
ATOM     10  C   UNL     1      46.652   2.174   6.990  0.00  0.00    +0.000 A 
ATOM     11  C   UNL     1      46.159   1.467   8.082  0.00  0.00    +0.000 A 
ATOM     12  C   UNL     1      45.530   2.144   9.133  0.00  0.00    +0.000 A 
ENDBRANCH   5   7
BRANCH   1  13
ATOM     13  C   UNL     1      45.897   6.949  12.804  0.00  0.00    +0.000 C 
BRANCH  13  19
ATOM     14  C   UNL     1      51.661   8.820  14.524  0.00  0.00    +0.000 C 
ATOM     15  C   UNL     1      50.390   8.503  13.817  0.00  0.00    +0.000 A 
ATOM     16  C   UNL     1      50.328   8.098  12.502  0.00  0.00    +0.000 A 
ATOM     17  N   UNL     1      49.180   7.781  11.864  0.00  0.00    +0.000 NA
ATOM     18  C   UNL     1      48.046   7.891  12.566  0.00  0.00    +0.000 A 
ATOM     19  N   UNL     1      46.868   7.547  11.911  0.00  0.00    +0.000 N 
ATOM     20  N   UNL     1      48.003   8.286  13.847  0.00  0.00    +0.000 NA
ATOM     21  C   UNL     1      49.171   8.589  14.444  0.00  0.00    +0.000 A 
ATOM     22  H   UNL     1      47.131   6.983  11.111  0.00  0.00    +0.000 HD
ENDBRANCH  13  19
ENDBRANCH   1  13
TORSDOF 3
ENDMDL
MODEL 6
REMARK VINA RESULT:    -6.338      3.994      7.610
REMARK INTER + INTRA:          -8.124
REMARK INTER:                  -7.444
REMARK INTRA:                  -0.680
REMARK UNBOUND:                -0.674
REMARK  Name = 
REMARK  4 active torsions:
REMARK  status: ('A' for Active; 'I' for Inactive)
REMARK    1  A    between atoms: C_1  and  C_2
REMARK    2  A    between atoms: N_6  and  C_7
REMARK    3  A    between atoms: C_7  and  C_8
REMARK    4  A    between atoms: C_12  and  C_13
REMARK                            x       y       z     vdW  Elec       q    Type
REMARK                         _______ _______ _______ _____ _____    ______ ____
ROOT
ATOM      1  C   UNL     1      47.308   7.909  12.392  0.00  0.00    +0.000 A 
ATOM      2  C   UNL     1      46.331   8.901  12.507  0.00  0.00    +0.000 A 
ATOM      3  C   UNL     1      45.051   8.678  12.006  0.00  0.00    +0.000 A 
ATOM      4  C   UNL     1      44.741   7.466  11.379  0.00  0.00    +0.000 A 
ATOM      5  C   UNL     1      45.700   6.449  11.232  0.00  0.00    +0.000 A 
ATOM      6  C   UNL     1      46.975   6.687  11.778  0.00  0.00    +0.000 A 
ENDROOT
BRANCH   5   7
ATOM      7  C   UNL     1      45.412   5.210  10.467  0.00  0.00    +0.000 A 
ATOM      8  C   UNL     1      44.790   4.106  11.084  0.00  0.00    +0.000 A 
ATOM      9  C   UNL     1      44.451   2.958  10.362  0.00  0.00    +0.000 A 
ATOM     10  C   UNL     1      44.718   2.886   9.000  0.00  0.00    +0.000 A 
ATOM     11  C   UNL     1      45.340   3.957   8.365  0.00  0.00    +0.000 A 
ATOM     12  C   UNL     1      45.690   5.100   9.092  0.00  0.00    +0.000 A 
ENDBRANCH   5   7
BRANCH   1  13
ATOM     13  C   UNL     1      48.723   8.150  12.865  0.00  0.00    +0.000 C 
BRANCH  13  19
ATOM     14  C   UNL     1      48.392   6.931  19.037  0.00  0.00    +0.000 C 
ATOM     15  C   UNL     1      48.645   6.931  17.570  0.00  0.00    +0.000 A 
ATOM     16  C   UNL     1      48.663   5.790  16.798  0.00  0.00    +0.000 A 
ATOM     17  N   UNL     1      48.864   5.786  15.463  0.00  0.00    +0.000 NA
ATOM     18  C   UNL     1      49.073   6.972  14.878  0.00  0.00    +0.000 A 
ATOM     19  N   UNL     1      49.262   6.965  13.500  0.00  0.00    +0.000 N 
ATOM     20  N   UNL     1      49.085   8.136  15.545  0.00  0.00    +0.000 NA
ATOM     21  C   UNL     1      48.878   8.092  16.874  0.00  0.00    +0.000 A 
ATOM     22  H   UNL     1      48.899   6.083  13.158  0.00  0.00    +0.000 HD
ENDBRANCH  13  19
ENDBRANCH   1  13
TORSDOF 3
ENDMDL
MODEL 7
REMARK VINA RESULT:    -6.134      5.442      7.225
REMARK INTER + INTRA:          -7.884
REMARK INTER:                  -7.363
REMARK INTRA:                  -0.520
REMARK UNBOUND:                -0.674
REMARK  Name = 
REMARK  4 active torsions:
REMARK  status: ('A' for Active; 'I' for Inactive)
REMARK    1  A    between atoms: C_1  and  C_2
REMARK    2  A    between atoms: N_6  and  C_7
REMARK    3  A    between atoms: C_7  and  C_8
REMARK    4  A    between atoms: C_12  and  C_13
REMARK                            x       y       z     vdW  Elec       q    Type
REMARK                         _______ _______ _______ _____ _____    ______ ____
ROOT
ATOM      1  C   UNL     1      47.734   4.413  16.913  0.00  0.00    +0.000 A 
ATOM      2  C   UNL     1      47.387   5.073  18.095  0.00  0.00    +0.000 A 
ATOM      3  C   UNL     1      48.282   5.106  19.161  0.00  0.00    +0.000 A 
ATOM      4  C   UNL     1      49.525   4.473  19.058  0.00  0.00    +0.000 A 
ATOM      5  C   UNL     1      49.905   3.786  17.892  0.00  0.00    +0.000 A 
ATOM      6  C   UNL     1      48.996   3.798  16.817  0.00  0.00    +0.000 A 
ENDROOT
BRANCH   5   7
ATOM      7  C   UNL     1      51.171   3.015  17.817  0.00  0.00    +0.000 A 
ATOM      8  C   UNL     1      52.398   3.599  18.191  0.00  0.00    +0.000 A 
ATOM      9  C   UNL     1      53.589   2.866  18.191  0.00  0.00    +0.000 A 
ATOM     10  C   UNL     1      53.582   1.526  17.825  0.00  0.00    +0.000 A 
ATOM     11  C   UNL     1      52.387   0.924  17.441  0.00  0.00    +0.000 A 
ATOM     12  C   UNL     1      51.199   1.663  17.430  0.00  0.00    +0.000 A 
ENDBRANCH   5   7
BRANCH   1  13
ATOM     13  C   UNL     1      46.756   4.303  15.766  0.00  0.00    +0.000 C 
BRANCH  13  19
ATOM     14  C   UNL     1      44.165   4.144  10.026  0.00  0.00    +0.000 C 
ATOM     15  C   UNL     1      44.985   4.407  11.240  0.00  0.00    +0.000 A 
ATOM     16  C   UNL     1      45.493   5.645  11.566  0.00  0.00    +0.000 A 
ATOM     17  N   UNL     1      46.213   5.896  12.680  0.00  0.00    +0.000 NA
ATOM     18  C   UNL     1      46.449   4.861  13.495  0.00  0.00    +0.000 A 
ATOM     19  N   UNL     1      47.175   5.127  14.651  0.00  0.00    +0.000 N 
ATOM     20  N   UNL     1      46.006   3.616  13.261  0.00  0.00    +0.000 NA
ATOM     21  C   UNL     1      45.290   3.413  12.139  0.00  0.00    +0.000 A 
ATOM     22  H   UNL     1      47.126   6.127  14.806  0.00  0.00    +0.000 HD
ENDBRANCH  13  19
ENDBRANCH   1  13
TORSDOF 3
ENDMDL
MODEL 8
REMARK VINA RESULT:    -6.005      4.100      6.436
REMARK INTER + INTRA:          -7.733
REMARK INTER:                  -7.073
REMARK INTRA:                  -0.659
REMARK UNBOUND:                -0.674
REMARK  Name = 
REMARK  4 active torsions:
REMARK  status: ('A' for Active; 'I' for Inactive)
REMARK    1  A    between atoms: C_1  and  C_2
REMARK    2  A    between atoms: N_6  and  C_7
REMARK    3  A    between atoms: C_7  and  C_8
REMARK    4  A    between atoms: C_12  and  C_13
REMARK                            x       y       z     vdW  Elec       q    Type
REMARK                         _______ _______ _______ _____ _____    ______ ____
ROOT
ATOM      1  C   UNL     1      46.486   4.556  13.324  0.00  0.00    +0.000 A 
ATOM      2  C   UNL     1      45.404   4.267  12.488  0.00  0.00    +0.000 A 
ATOM      3  C   UNL     1      45.050   5.155  11.476  0.00  0.00    +0.000 A 
ATOM      4  C   UNL     1      45.768   6.342  11.297  0.00  0.00    +0.000 A 
ATOM      5  C   UNL     1      46.853   6.676  12.126  0.00  0.00    +0.000 A 
ATOM      6  C   UNL     1      47.211   5.745  13.118  0.00  0.00    +0.000 A 
ENDROOT
BRANCH   5   7
ATOM      7  C   UNL     1      47.545   7.985  12.017  0.00  0.00    +0.000 A 
ATOM      8  C   UNL     1      48.918   8.055  11.710  0.00  0.00    +0.000 A 
ATOM      9  C   UNL     1      49.569   9.280  11.537  0.00  0.00    +0.000 A 
ATOM     10  C   UNL     1      48.860  10.470  11.658  0.00  0.00    +0.000 A 
ATOM     11  C   UNL     1      47.505  10.433  11.970  0.00  0.00    +0.000 A 
ATOM     12  C   UNL     1      46.859   9.205  12.155  0.00  0.00    +0.000 A 
ENDBRANCH   5   7
BRANCH   1  13
ATOM     13  C   UNL     1      46.850   3.644  14.472  0.00  0.00    +0.000 C 
BRANCH  13  19
ATOM     14  C   UNL     1      51.741   3.527  18.440  0.00  0.00    +0.000 C 
ATOM     15  C   UNL     1      50.448   3.754  17.738  0.00  0.00    +0.000 A 
ATOM     16  C   UNL     1      49.764   4.949  17.765  0.00  0.00    +0.000 A 
ATOM     17  N   UNL     1      48.605   5.170  17.107  0.00  0.00    +0.000 NA
ATOM     18  C   UNL     1      48.102   4.147  16.406  0.00  0.00    +0.000 A 
ATOM     19  N   UNL     1      46.918   4.384  15.715  0.00  0.00    +0.000 N 
ATOM     20  N   UNL     1      48.688   2.943  16.327  0.00  0.00    +0.000 NA
ATOM     21  C   UNL     1      49.842   2.769  16.997  0.00  0.00    +0.000 A 
ATOM     22  H   UNL     1      46.824   5.389  15.630  0.00  0.00    +0.000 HD
ENDBRANCH  13  19
ENDBRANCH   1  13
TORSDOF 3
ENDMDL
MODEL 9
REMARK VINA RESULT:    -5.975      2.964      5.022
REMARK INTER + INTRA:          -7.697
REMARK INTER:                  -7.028
REMARK INTRA:                  -0.669
REMARK UNBOUND:                -0.674
REMARK  Name = 
REMARK  4 active torsions:
REMARK  status: ('A' for Active; 'I' for Inactive)
REMARK    1  A    between atoms: C_1  and  C_2
REMARK    2  A    between atoms: N_6  and  C_7
REMARK    3  A    between atoms: C_7  and  C_8
REMARK    4  A    between atoms: C_12  and  C_13
REMARK                            x       y       z     vdW  Elec       q    Type
REMARK                         _______ _______ _______ _____ _____    ______ ____
ROOT
ATOM      1  C   UNL     1      47.305   7.256  13.039  0.00  0.00    +0.000 A 
ATOM      2  C   UNL     1      48.106   8.390  13.192  0.00  0.00    +0.000 A 
ATOM      3  C   UNL     1      48.998   8.474  14.258  0.00  0.00    +0.000 A 
ATOM      4  C   UNL     1      49.088   7.430  15.185  0.00  0.00    +0.000 A 
ATOM      5  C   UNL     1      48.288   6.278  15.075  0.00  0.00    +0.000 A 
ATOM      6  C   UNL     1      47.421   6.205  13.969  0.00  0.00    +0.000 A 
ENDROOT
BRANCH   5   7
ATOM      7  C   UNL     1      48.295   5.221  16.116  0.00  0.00    +0.000 A 
ATOM      8  C   UNL     1      49.280   5.202  17.124  0.00  0.00    +0.000 A 
ATOM      9  C   UNL     1      49.261   4.253  18.150  0.00  0.00    +0.000 A 
ATOM     10  C   UNL     1      48.249   3.302  18.201  0.00  0.00    +0.000 A 
ATOM     11  C   UNL     1      47.267   3.289  17.215  0.00  0.00    +0.000 A 
ATOM     12  C   UNL     1      47.296   4.232  16.182  0.00  0.00    +0.000 A 
ENDBRANCH   5   7
BRANCH   1  13
ATOM     13  C   UNL     1      46.281   7.167  11.932  0.00  0.00    +0.000 C 
BRANCH  13  19
ATOM     14  C   UNL     1      44.722   1.873   8.894  0.00  0.00    +0.000 C 
ATOM     15  C   UNL     1      44.821   3.049   9.801  0.00  0.00    +0.000 A 
ATOM     16  C   UNL     1      44.523   3.004  11.145  0.00  0.00    +0.000 A 
ATOM     17  N   UNL     1      44.639   4.060  11.980  0.00  0.00    +0.000 NA
ATOM     18  C   UNL     1      45.054   5.213  11.442  0.00  0.00    +0.000 A 
ATOM     19  N   UNL     1      45.189   6.294  12.308  0.00  0.00    +0.000 N 
ATOM     20  N   UNL     1      45.358   5.360  10.144  0.00  0.00    +0.000 NA
ATOM     21  C   UNL     1      45.230   4.280   9.351  0.00  0.00    +0.000 A 
ATOM     22  H   UNL     1      45.237   5.914  13.246  0.00  0.00    +0.000 HD
ENDBRANCH  13  19
ENDBRANCH   1  13
TORSDOF 3
ENDMDL
