MODEL 1
REMARK VINA RESULT:    -7.825      0.000      0.000
REMARK INTER + INTRA:         -10.339
REMARK INTER:                  -9.884
REMARK INTRA:                  -0.456
REMARK UNBOUND:                -0.456
REMARK  Name = 
REMARK  8 active torsions:
REMARK  status: ('A' for Active; 'I' for Inactive)
REMARK    1  A    between atoms: C_1  and  C_2
REMARK    2  A    between atoms: C_2  and  C_3
REMARK    3  A    between atoms: C_2  and  C_4
REMARK    4  A    between atoms: C_2  and  C_5
REMARK    5  A    between atoms: C_8  and  C_9
REMARK    6  A    between atoms: C_9  and  N_10
REMARK    7  A    between atoms: C_15  and  C_16
REMARK    8  A    between atoms: C_16  and  O_18
REMARK                            x       y       z     vdW  Elec       q    Type
REMARK                         _______ _______ _______ _____ _____    ______ ____
ROOT
ATOM      1  N   UNL     1      44.327   4.417  10.493  0.00  0.00    +0.000 N 
ATOM      2  C   UNL     1      43.948   3.299  11.212  0.00  0.00    +0.000 A 
ATOM      3  C   UNL     1      43.977   2.227  10.351  0.00  0.00    +0.000 A 
ATOM      4  C   UNL     1      44.889   2.602   9.336  0.00  0.00    +0.000 A 
ATOM      5  C   UNL     1      45.725   1.892   8.454  0.00  0.00    +0.000 A 
ATOM      6  C   UNL     1      46.589   2.665   7.668  0.00  0.00    +0.000 A 
ATOM      7  C   UNL     1      46.474   4.047   7.669  0.00  0.00    +0.000 A 
ATOM      8  N   UNL     1      45.692   4.771   8.514  0.00  0.00    +0.000 NA
ATOM      9  C   UNL     1      44.985   3.991   9.358  0.00  0.00    +0.000 A 
ENDROOT
BRANCH   6  10
ATOM     10  C   UNL     1      47.667   2.037   6.893  0.00  0.00    +0.000 C 
ATOM     11  O   UNL     1      47.632   0.854   6.564  0.00  0.00    +0.000 OA
BRANCH  10  12
ATOM     12  O   UNL     1      48.624   2.887   6.527  0.00  0.00    +0.000 OA
ATOM     13  H   UNL     1      48.991   2.760   5.629  0.00  0.00    +0.000 HD
ENDBRANCH  10  12
ENDBRANCH   6  10
BRANCH   1  14
ATOM     14  C   UNL     1      44.388   5.767  11.035  0.00  0.00    +0.000 C 
BRANCH  14  18
ATOM     15  C   UNL     1      47.628   6.994  13.589  0.00  0.00    +0.000 A 
ATOM     16  C   UNL     1      47.179   5.660  13.635  0.00  0.00    +0.000 A 
ATOM     17  C   UNL     1      46.172   5.204  12.764  0.00  0.00    +0.000 A 
ATOM     18  C   UNL     1      45.626   6.091  11.833  0.00  0.00    +0.000 A 
ATOM     19  N   UNL     1      46.084   7.357  11.719  0.00  0.00    +0.000 NA
ATOM     20  C   UNL     1      47.061   7.766  12.582  0.00  0.00    +0.000 A 
BRANCH  15  22
ATOM     21  C   UNL     1      49.995   7.792  13.757  0.00  0.00    +0.000 C 
ATOM     22  C   UNL     1      48.688   7.566  14.540  0.00  0.00    +0.000 C 
ATOM     23  C   UNL     1      48.998   6.638  15.741  0.00  0.00    +0.000 C 
ATOM     24  C   UNL     1      48.259   8.924  15.160  0.00  0.00    +0.000 C 
ENDBRANCH  15  22
ENDBRANCH  14  18
ENDBRANCH   1  14
TORSDOF 5
ENDMDL
MODEL 2
REMARK VINA RESULT:    -6.895      2.992      7.155
REMARK INTER + INTRA:          -9.164
REMARK INTER:                  -8.635
REMARK INTRA:                  -0.529
REMARK UNBOUND:                -0.456
REMARK  Name = 
REMARK  8 active torsions:
REMARK  status: ('A' for Active; 'I' for Inactive)
REMARK    1  A    between atoms: C_1  and  C_2
REMARK    2  A    between atoms: C_2  and  C_3
REMARK    3  A    between atoms: C_2  and  C_4
REMARK    4  A    between atoms: C_2  and  C_5
REMARK    5  A    between atoms: C_8  and  C_9
REMARK    6  A    between atoms: C_9  and  N_10
REMARK    7  A    between atoms: C_15  and  C_16
REMARK    8  A    between atoms: C_16  and  O_18
REMARK                            x       y       z     vdW  Elec       q    Type
REMARK                         _______ _______ _______ _____ _____    ______ ____
ROOT
ATOM      1  N   UNL     1      44.550   6.319  11.689  0.00  0.00    +0.000 N 
ATOM      2  C   UNL     1      44.515   7.610  11.196  0.00  0.00    +0.000 A 
ATOM      3  C   UNL     1      45.119   8.423  12.126  0.00  0.00    +0.000 A 
ATOM      4  C   UNL     1      45.981   7.565  12.852  0.00  0.00    +0.000 A 
ATOM      5  C   UNL     1      47.173   7.753  13.573  0.00  0.00    +0.000 A 
ATOM      6  C   UNL     1      47.794   6.591  14.050  0.00  0.00    +0.000 A 
ATOM      7  C   UNL     1      47.148   5.368  13.940  0.00  0.00    +0.000 A 
ATOM      8  N   UNL     1      46.005   5.142  13.239  0.00  0.00    +0.000 NA
ATOM      9  C   UNL     1      45.519   6.264  12.670  0.00  0.00    +0.000 A 
ENDROOT
BRANCH   6  10
ATOM     10  C   UNL     1      49.154   6.635  14.603  0.00  0.00    +0.000 C 
ATOM     11  O   UNL     1      49.411   6.239  15.737  0.00  0.00    +0.000 OA
BRANCH  10  12
ATOM     12  O   UNL     1      50.067   7.066  13.737  0.00  0.00    +0.000 OA
ATOM     13  H   UNL     1      49.984   6.730  12.822  0.00  0.00    +0.000 HD
ENDBRANCH  10  12
ENDBRANCH   6  10
BRANCH   1  14
ATOM     14  C   UNL     1      43.978   5.161  11.018  0.00  0.00    +0.000 C 
BRANCH  14  18
ATOM     15  C   UNL     1      46.203   2.949   8.071  0.00  0.00    +0.000 A 
ATOM     16  C   UNL     1      46.330   4.350   8.124  0.00  0.00    +0.000 A 
ATOM     17  C   UNL     1      45.675   5.100   9.119  0.00  0.00    +0.000 A 
ATOM     18  C   UNL     1      44.903   4.435  10.073  0.00  0.00    +0.000 A 
ATOM     19  N   UNL     1      44.818   3.086  10.090  0.00  0.00    +0.000 NA
ATOM     20  C   UNL     1      45.465   2.390   9.108  0.00  0.00    +0.000 A 
BRANCH  15  22
ATOM     21  C   UNL     1      46.791   0.603   7.426  0.00  0.00    +0.000 C 
ATOM     22  C   UNL     1      46.852   2.078   6.988  0.00  0.00    +0.000 C 
ATOM     23  C   UNL     1      48.334   2.441   6.716  0.00  0.00    +0.000 C 
ATOM     24  C   UNL     1      46.132   2.202   5.617  0.00  0.00    +0.000 C 
ENDBRANCH  15  22
ENDBRANCH  14  18
ENDBRANCH   1  14
TORSDOF 5
ENDMDL
MODEL 3
REMARK VINA RESULT:    -6.438      3.995      5.976
REMARK INTER + INTRA:          -8.587
REMARK INTER:                  -8.262
REMARK INTRA:                  -0.325
REMARK UNBOUND:                -0.456
REMARK  Name = 
REMARK  8 active torsions:
REMARK  status: ('A' for Active; 'I' for Inactive)
REMARK    1  A    between atoms: C_1  and  C_2
REMARK    2  A    between atoms: C_2  and  C_3
REMARK    3  A    between atoms: C_2  and  C_4
REMARK    4  A    between atoms: C_2  and  C_5
REMARK    5  A    between atoms: C_8  and  C_9
REMARK    6  A    between atoms: C_9  and  N_10
REMARK    7  A    between atoms: C_15  and  C_16
REMARK    8  A    between atoms: C_16  and  O_18
REMARK                            x       y       z     vdW  Elec       q    Type
REMARK                         _______ _______ _______ _____ _____    ______ ____
ROOT
ATOM      1  N   UNL     1      47.346   5.005  14.657  0.00  0.00    +0.000 N 
ATOM      2  C   UNL     1      47.846   6.283  14.491  0.00  0.00    +0.000 A 
ATOM      3  C   UNL     1      47.874   6.542  13.141  0.00  0.00    +0.000 A 
ATOM      4  C   UNL     1      46.895   5.683  12.587  0.00  0.00    +0.000 A 
ATOM      5  C   UNL     1      46.088   5.727  11.435  0.00  0.00    +0.000 A 
ATOM      6  C   UNL     1      45.132   4.710  11.313  0.00  0.00    +0.000 A 
ATOM      7  C   UNL     1      45.132   3.652  12.210  0.00  0.00    +0.000 A 
ATOM      8  N   UNL     1      45.881   3.580  13.342  0.00  0.00    +0.000 NA
ATOM      9  C   UNL     1      46.683   4.653  13.499  0.00  0.00    +0.000 A 
ENDROOT
BRANCH   6  10
ATOM     10  C   UNL     1      44.082   4.781  10.289  0.00  0.00    +0.000 C 
ATOM     11  O   UNL     1      44.113   4.092   9.272  0.00  0.00    +0.000 OA
BRANCH  10  12
ATOM     12  O   UNL     1      43.080   5.594  10.610  0.00  0.00    +0.000 OA
ATOM     13  H   UNL     1      43.332   6.454  11.005  0.00  0.00    +0.000 HD
ENDBRANCH  10  12
ENDBRANCH   6  10
BRANCH   1  14
ATOM     14  C   UNL     1      47.193   4.336  15.941  0.00  0.00    +0.000 C 
BRANCH  14  18
ATOM     15  C   UNL     1      51.041   3.929  17.826  0.00  0.00    +0.000 A 
ATOM     16  C   UNL     1      50.315   5.124  17.988  0.00  0.00    +0.000 A 
ATOM     17  C   UNL     1      49.024   5.268  17.448  0.00  0.00    +0.000 A 
ATOM     18  C   UNL     1      48.455   4.197  16.755  0.00  0.00    +0.000 A 
ATOM     19  N   UNL     1      49.098   3.014  16.642  0.00  0.00    +0.000 NA
ATOM     20  C   UNL     1      50.352   2.911  17.177  0.00  0.00    +0.000 A 
BRANCH  15  22
ATOM     21  C   UNL     1      52.881   2.258  18.125  0.00  0.00    +0.000 C 
ATOM     22  C   UNL     1      52.469   3.725  18.349  0.00  0.00    +0.000 C 
ATOM     23  C   UNL     1      52.621   4.045  19.857  0.00  0.00    +0.000 C 
ATOM     24  C   UNL     1      53.502   4.630  17.623  0.00  0.00    +0.000 C 
ENDBRANCH  15  22
ENDBRANCH  14  18
ENDBRANCH   1  14
TORSDOF 5
ENDMDL
MODEL 4
REMARK VINA RESULT:    -6.367      1.403      2.080
REMARK INTER + INTRA:          -8.497
REMARK INTER:                  -8.472
REMARK INTRA:                  -0.025
REMARK UNBOUND:                -0.456
REMARK  Name = 
REMARK  8 active torsions:
REMARK  status: ('A' for Active; 'I' for Inactive)
REMARK    1  A    between atoms: C_1  and  C_2
REMARK    2  A    between atoms: C_2  and  C_3
REMARK    3  A    between atoms: C_2  and  C_4
REMARK    4  A    between atoms: C_2  and  C_5
REMARK    5  A    between atoms: C_8  and  C_9
REMARK    6  A    between atoms: C_9  and  N_10
REMARK    7  A    between atoms: C_15  and  C_16
REMARK    8  A    between atoms: C_16  and  O_18
REMARK                            x       y       z     vdW  Elec       q    Type
REMARK                         _______ _______ _______ _____ _____    ______ ____
ROOT
ATOM      1  N   UNL     1      44.618   4.830  11.558  0.00  0.00    +0.000 N 
ATOM      2  C   UNL     1      44.061   3.752  12.221  0.00  0.00    +0.000 A 
ATOM      3  C   UNL     1      43.623   2.864  11.268  0.00  0.00    +0.000 A 
ATOM      4  C   UNL     1      44.411   3.140  10.125  0.00  0.00    +0.000 A 
ATOM      5  C   UNL     1      44.833   2.384   9.017  0.00  0.00    +0.000 A 
ATOM      6  C   UNL     1      45.733   3.015   8.148  0.00  0.00    +0.000 A 
ATOM      7  C   UNL     1      46.029   4.359   8.317  0.00  0.00    +0.000 A 
ATOM      8  N   UNL     1      45.655   5.120   9.379  0.00  0.00    +0.000 NA
ATOM      9  C   UNL     1      44.911   4.432  10.270  0.00  0.00    +0.000 A 
ENDROOT
BRANCH   6  10
ATOM     10  C   UNL     1      46.426   2.256   7.098  0.00  0.00    +0.000 C 
ATOM     11  O   UNL     1      46.592   2.706   5.967  0.00  0.00    +0.000 OA
BRANCH  10  12
ATOM     12  O   UNL     1      46.910   1.089   7.517  0.00  0.00    +0.000 OA
ATOM     13  H   UNL     1      46.512   0.727   8.335  0.00  0.00    +0.000 HD
ENDBRANCH  10  12
ENDBRANCH   6  10
BRANCH   1  14
ATOM     14  C   UNL     1      45.166   6.010  12.211  0.00  0.00    +0.000 C 
BRANCH  14  18
ATOM     15  C   UNL     1      47.995   5.603  15.430  0.00  0.00    +0.000 A 
ATOM     16  C   UNL     1      47.128   4.534  15.133  0.00  0.00    +0.000 A 
ATOM     17  C   UNL     1      46.239   4.602  14.043  0.00  0.00    +0.000 A 
ATOM     18  C   UNL     1      46.236   5.745  13.240  0.00  0.00    +0.000 A 
ATOM     19  N   UNL     1      47.105   6.757  13.457  0.00  0.00    +0.000 NA
ATOM     20  C   UNL     1      47.951   6.658  14.526  0.00  0.00    +0.000 A 
BRANCH  15  22
ATOM     21  C   UNL     1      49.261   4.158  17.034  0.00  0.00    +0.000 C 
ATOM     22  C   UNL     1      48.952   5.611  16.628  0.00  0.00    +0.000 C 
ATOM     23  C   UNL     1      48.378   6.346  17.866  0.00  0.00    +0.000 C 
ATOM     24  C   UNL     1      50.298   6.317  16.308  0.00  0.00    +0.000 C 
ENDBRANCH  15  22
ENDBRANCH  14  18
ENDBRANCH   1  14
TORSDOF 5
ENDMDL
MODEL 5
REMARK VINA RESULT:    -6.089      3.878      5.897
REMARK INTER + INTRA:          -8.147
REMARK INTER:                  -7.785
REMARK INTRA:                  -0.362
REMARK UNBOUND:                -0.456
REMARK  Name = 
REMARK  8 active torsions:
REMARK  status: ('A' for Active; 'I' for Inactive)
REMARK    1  A    between atoms: C_1  and  C_2
REMARK    2  A    between atoms: C_2  and  C_3
REMARK    3  A    between atoms: C_2  and  C_4
REMARK    4  A    between atoms: C_2  and  C_5
REMARK    5  A    between atoms: C_8  and  C_9
REMARK    6  A    between atoms: C_9  and  N_10
REMARK    7  A    between atoms: C_15  and  C_16
REMARK    8  A    between atoms: C_16  and  O_18
REMARK                            x       y       z     vdW  Elec       q    Type
REMARK                         _______ _______ _______ _____ _____    ______ ____
ROOT
ATOM      1  N   UNL     1      47.342   4.605  14.665  0.00  0.00    +0.000 N 
ATOM      2  C   UNL     1      47.794   5.912  14.682  0.00  0.00    +0.000 A 
ATOM      3  C   UNL     1      47.700   6.396  13.398  0.00  0.00    +0.000 A 
ATOM      4  C   UNL     1      46.698   5.606  12.785  0.00  0.00    +0.000 A 
ATOM      5  C   UNL     1      45.796   5.812  11.726  0.00  0.00    +0.000 A 
ATOM      6  C   UNL     1      44.858   4.794  11.508  0.00  0.00    +0.000 A 
ATOM      7  C   UNL     1      44.960   3.601  12.208  0.00  0.00    +0.000 A 
ATOM      8  N   UNL     1      45.805   3.367  13.247  0.00  0.00    +0.000 NA
ATOM      9  C   UNL     1      46.591   4.428  13.521  0.00  0.00    +0.000 A 
ENDROOT
BRANCH   6  10
ATOM     10  C   UNL     1      43.723   4.996  10.599  0.00  0.00    +0.000 C 
ATOM     11  O   UNL     1      42.680   5.532  10.964  0.00  0.00    +0.000 OA
BRANCH  10  12
ATOM     12  O   UNL     1      43.969   4.616   9.348  0.00  0.00    +0.000 OA
ATOM     13  H   UNL     1      43.198   4.593   8.745  0.00  0.00    +0.000 HD
ENDBRANCH  10  12
ENDBRANCH   6  10
BRANCH   1  14
ATOM     14  C   UNL     1      47.315   3.724  15.824  0.00  0.00    +0.000 C 
BRANCH  14  18
ATOM     15  C   UNL     1      49.614   5.515  18.992  0.00  0.00    +0.000 A 
ATOM     16  C   UNL     1      48.208   5.584  19.034  0.00  0.00    +0.000 A 
ATOM     17  C   UNL     1      47.421   4.949  18.055  0.00  0.00    +0.000 A 
ATOM     18  C   UNL     1      48.053   4.227  17.039  0.00  0.00    +0.000 A 
ATOM     19  N   UNL     1      49.396   4.085  17.012  0.00  0.00    +0.000 NA
ATOM     20  C   UNL     1      50.129   4.717  17.976  0.00  0.00    +0.000 A 
BRANCH  15  22
ATOM     21  C   UNL     1      50.875   5.244  21.137  0.00  0.00    +0.000 C 
ATOM     22  C   UNL     1      50.529   6.222  20.000  0.00  0.00    +0.000 C 
ATOM     23  C   UNL     1      49.889   7.486  20.627  0.00  0.00    +0.000 C 
ATOM     24  C   UNL     1      51.860   6.702  19.358  0.00  0.00    +0.000 C 
ENDBRANCH  15  22
ENDBRANCH  14  18
ENDBRANCH   1  14
TORSDOF 5
ENDMDL
MODEL 6
REMARK VINA RESULT:    -6.073      1.490      2.467
REMARK INTER + INTRA:          -8.127
REMARK INTER:                  -7.473
REMARK INTRA:                  -0.654
REMARK UNBOUND:                -0.456
REMARK  Name = 
REMARK  8 active torsions:
REMARK  status: ('A' for Active; 'I' for Inactive)
REMARK    1  A    between atoms: C_1  and  C_2
REMARK    2  A    between atoms: C_2  and  C_3
REMARK    3  A    between atoms: C_2  and  C_4
REMARK    4  A    between atoms: C_2  and  C_5
REMARK    5  A    between atoms: C_8  and  C_9
REMARK    6  A    between atoms: C_9  and  N_10
REMARK    7  A    between atoms: C_15  and  C_16
REMARK    8  A    between atoms: C_16  and  O_18
REMARK                            x       y       z     vdW  Elec       q    Type
REMARK                         _______ _______ _______ _____ _____    ______ ____
ROOT
ATOM      1  N   UNL     1      44.981   6.137  11.881  0.00  0.00    +0.000 N 
ATOM      2  C   UNL     1      44.783   5.401  13.034  0.00  0.00    +0.000 A 
ATOM      3  C   UNL     1      44.244   4.192  12.663  0.00  0.00    +0.000 A 
ATOM      4  C   UNL     1      44.652   4.010  11.320  0.00  0.00    +0.000 A 
ATOM      5  C   UNL     1      44.872   2.886  10.503  0.00  0.00    +0.000 A 
ATOM      6  C   UNL     1      45.407   3.141   9.235  0.00  0.00    +0.000 A 
ATOM      7  C   UNL     1      45.537   4.448   8.790  0.00  0.00    +0.000 A 
ATOM      8  N   UNL     1      45.351   5.559   9.550  0.00  0.00    +0.000 NA
ATOM      9  C   UNL     1      44.979   5.265  10.812  0.00  0.00    +0.000 A 
ENDROOT
BRANCH   6  10
ATOM     10  C   UNL     1      45.901   2.045   8.390  0.00  0.00    +0.000 C 
ATOM     11  O   UNL     1      46.725   2.228   7.497  0.00  0.00    +0.000 OA
BRANCH  10  12
ATOM     12  O   UNL     1      45.430   0.851   8.739  0.00  0.00    +0.000 OA
ATOM     13  H   UNL     1      45.570   0.128   8.094  0.00  0.00    +0.000 HD
ENDBRANCH  10  12
ENDBRANCH   6  10
BRANCH   1  14
ATOM     14  C   UNL     1      45.503   7.496  11.847  0.00  0.00    +0.000 C 
BRANCH  14  18
ATOM     15  C   UNL     1      49.056   7.856  14.251  0.00  0.00    +0.000 A 
ATOM     16  C   UNL     1      49.072   7.024  13.116  0.00  0.00    +0.000 A 
ATOM     17  C   UNL     1      47.954   6.937  12.265  0.00  0.00    +0.000 A 
ATOM     18  C   UNL     1      46.821   7.703  12.551  0.00  0.00    +0.000 A 
ATOM     19  N   UNL     1      46.801   8.562  13.593  0.00  0.00    +0.000 NA
ATOM     20  C   UNL     1      47.903   8.619  14.399  0.00  0.00    +0.000 A 
BRANCH  15  22
ATOM     21  C   UNL     1      50.257   6.689  16.112  0.00  0.00    +0.000 C 
ATOM     22  C   UNL     1      50.221   7.960  15.243  0.00  0.00    +0.000 C 
ATOM     23  C   UNL     1      50.116   9.186  16.185  0.00  0.00    +0.000 C 
ATOM     24  C   UNL     1      51.596   8.095  14.532  0.00  0.00    +0.000 C 
ENDBRANCH  15  22
ENDBRANCH  14  18
ENDBRANCH   1  14
TORSDOF 5
ENDMDL
MODEL 7
REMARK VINA RESULT:    -5.881      2.463      3.783
REMARK INTER + INTRA:          -7.883
REMARK INTER:                  -7.542
REMARK INTRA:                  -0.341
REMARK UNBOUND:                -0.456
REMARK  Name = 
REMARK  8 active torsions:
REMARK  status: ('A' for Active; 'I' for Inactive)
REMARK    1  A    between atoms: C_1  and  C_2
REMARK    2  A    between atoms: C_2  and  C_3
REMARK    3  A    between atoms: C_2  and  C_4
REMARK    4  A    between atoms: C_2  and  C_5
REMARK    5  A    between atoms: C_8  and  C_9
REMARK    6  A    between atoms: C_9  and  N_10
REMARK    7  A    between atoms: C_15  and  C_16
REMARK    8  A    between atoms: C_16  and  O_18
REMARK                            x       y       z     vdW  Elec       q    Type
REMARK                         _______ _______ _______ _____ _____    ______ ____
ROOT
ATOM      1  N   UNL     1      45.705   6.217  12.994  0.00  0.00    +0.000 N 
ATOM      2  C   UNL     1      46.539   5.423  13.759  0.00  0.00    +0.000 A 
ATOM      3  C   UNL     1      46.131   4.121  13.596  0.00  0.00    +0.000 A 
ATOM      4  C   UNL     1      45.468   4.102  12.345  0.00  0.00    +0.000 A 
ATOM      5  C   UNL     1      45.232   3.113  11.373  0.00  0.00    +0.000 A 
ATOM      6  C   UNL     1      44.627   3.548  10.187  0.00  0.00    +0.000 A 
ATOM      7  C   UNL     1      44.154   4.848  10.089  0.00  0.00    +0.000 A 
ATOM      8  N   UNL     1      44.375   5.836  10.996  0.00  0.00    +0.000 NA
ATOM      9  C   UNL     1      45.091   5.412  12.057  0.00  0.00    +0.000 A 
ENDROOT
BRANCH   6  10
ATOM     10  C   UNL     1      44.548   2.667   9.014  0.00  0.00    +0.000 C 
ATOM     11  O   UNL     1      44.678   1.449   9.102  0.00  0.00    +0.000 OA
BRANCH  10  12
ATOM     12  O   UNL     1      44.250   3.308   7.887  0.00  0.00    +0.000 OA
ATOM     13  H   UNL     1      43.812   4.178   7.989  0.00  0.00    +0.000 HD
ENDBRANCH  10  12
ENDBRANCH   6  10
BRANCH   1  14
ATOM     14  C   UNL     1      45.780   7.669  12.923  0.00  0.00    +0.000 C 
BRANCH  14  18
ATOM     15  C   UNL     1      49.566   9.316  11.702  0.00  0.00    +0.000 A 
ATOM     16  C   UNL     1      49.277   7.966  11.423  0.00  0.00    +0.000 A 
ATOM     17  C   UNL     1      48.023   7.412  11.742  0.00  0.00    +0.000 A 
ATOM     18  C   UNL     1      47.051   8.225  12.329  0.00  0.00    +0.000 A 
ATOM     19  N   UNL     1      47.274   9.540  12.545  0.00  0.00    +0.000 NA
ATOM     20  C   UNL     1      48.503  10.044  12.225  0.00  0.00    +0.000 A 
BRANCH  15  22
ATOM     21  C   UNL     1      51.913   8.886  10.947  0.00  0.00    +0.000 C 
ATOM     22  C   UNL     1      50.926   9.968  11.422  0.00  0.00    +0.000 C 
ATOM     23  C   UNL     1      51.536  10.667  12.663  0.00  0.00    +0.000 C 
ATOM     24  C   UNL     1      50.845  11.061  10.322  0.00  0.00    +0.000 C 
ENDBRANCH  15  22
ENDBRANCH  14  18
ENDBRANCH   1  14
TORSDOF 5
ENDMDL
MODEL 8
REMARK VINA RESULT:    -5.853      2.912      4.910
REMARK INTER + INTRA:          -7.849
REMARK INTER:                  -7.177
REMARK INTRA:                  -0.672
REMARK UNBOUND:                -0.456
REMARK  Name = 
REMARK  8 active torsions:
REMARK  status: ('A' for Active; 'I' for Inactive)
REMARK    1  A    between atoms: C_1  and  C_2
REMARK    2  A    between atoms: C_2  and  C_3
REMARK    3  A    between atoms: C_2  and  C_4
REMARK    4  A    between atoms: C_2  and  C_5
REMARK    5  A    between atoms: C_8  and  C_9
REMARK    6  A    between atoms: C_9  and  N_10
REMARK    7  A    between atoms: C_15  and  C_16
REMARK    8  A    between atoms: C_16  and  O_18
REMARK                            x       y       z     vdW  Elec       q    Type
REMARK                         _______ _______ _______ _____ _____    ______ ____
ROOT
ATOM      1  N   UNL     1      46.944   6.749  13.650  0.00  0.00    +0.000 N 
ATOM      2  C   UNL     1      47.672   5.729  14.232  0.00  0.00    +0.000 A 
ATOM      3  C   UNL     1      46.903   4.591  14.178  0.00  0.00    +0.000 A 
ATOM      4  C   UNL     1      46.015   4.805  13.095  0.00  0.00    +0.000 A 
ATOM      5  C   UNL     1      45.324   3.959  12.209  0.00  0.00    +0.000 A 
ATOM      6  C   UNL     1      44.628   4.591  11.171  0.00  0.00    +0.000 A 
ATOM      7  C   UNL     1      44.515   5.974  11.157  0.00  0.00    +0.000 A 
ATOM      8  N   UNL     1      45.177   6.826  11.982  0.00  0.00    +0.000 NA
ATOM      9  C   UNL     1      45.955   6.179  12.875  0.00  0.00    +0.000 A 
ENDROOT
BRANCH   6  10
ATOM     10  C   UNL     1      44.071   3.816  10.054  0.00  0.00    +0.000 C 
ATOM     11  O   UNL     1      43.858   2.609  10.139  0.00  0.00    +0.000 OA
BRANCH  10  12
ATOM     12  O   UNL     1      43.759   4.558   8.995  0.00  0.00    +0.000 OA
ATOM     13  H   UNL     1      44.181   5.440   8.948  0.00  0.00    +0.000 HD
ENDBRANCH  10  12
ENDBRANCH   6  10
BRANCH   1  14
ATOM     14  C   UNL     1      47.394   8.130  13.543  0.00  0.00    +0.000 C 
BRANCH  14  18
ATOM     15  C   UNL     1      51.339   8.352  11.837  0.00  0.00    +0.000 A 
ATOM     16  C   UNL     1      50.278   7.851  11.059  0.00  0.00    +0.000 A 
ATOM     17  C   UNL     1      48.961   7.831  11.557  0.00  0.00    +0.000 A 
ATOM     18  C   UNL     1      48.711   8.331  12.837  0.00  0.00    +0.000 A 
ATOM     19  N   UNL     1      49.697   8.882  13.579  0.00  0.00    +0.000 NA
ATOM     20  C   UNL     1      50.963   8.883  13.065  0.00  0.00    +0.000 A 
BRANCH  15  22
ATOM     21  C   UNL     1      53.715   8.091  12.583  0.00  0.00    +0.000 C 
ATOM     22  C   UNL     1      52.801   8.360  11.372  0.00  0.00    +0.000 C 
ATOM     23  C   UNL     1      53.233   9.703  10.730  0.00  0.00    +0.000 C 
ATOM     24  C   UNL     1      53.090   7.273  10.302  0.00  0.00    +0.000 C 
ENDBRANCH  15  22
ENDBRANCH  14  18
ENDBRANCH   1  14
TORSDOF 5
ENDMDL
MODEL 9
REMARK VINA RESULT:    -5.714      4.727      8.695
REMARK INTER + INTRA:          -7.673
REMARK INTER:                  -7.200
REMARK INTRA:                  -0.473
REMARK UNBOUND:                -0.456
REMARK  Name = 
REMARK  8 active torsions:
REMARK  status: ('A' for Active; 'I' for Inactive)
REMARK    1  A    between atoms: C_1  and  C_2
REMARK    2  A    between atoms: C_2  and  C_3
REMARK    3  A    between atoms: C_2  and  C_4
REMARK    4  A    between atoms: C_2  and  C_5
REMARK    5  A    between atoms: C_8  and  C_9
REMARK    6  A    between atoms: C_9  and  N_10
REMARK    7  A    between atoms: C_15  and  C_16
REMARK    8  A    between atoms: C_16  and  O_18
REMARK                            x       y       z     vdW  Elec       q    Type
REMARK                         _______ _______ _______ _____ _____    ______ ____
ROOT
ATOM      1  N   UNL     1      48.599   7.126  15.204  0.00  0.00    +0.000 N 
ATOM      2  C   UNL     1      48.742   8.458  15.545  0.00  0.00    +0.000 A 
ATOM      3  C   UNL     1      48.683   8.541  16.915  0.00  0.00    +0.000 A 
ATOM      4  C   UNL     1      49.074   7.260  17.374  0.00  0.00    +0.000 A 
ATOM      5  C   UNL     1      49.668   6.777  18.554  0.00  0.00    +0.000 A 
ATOM      6  C   UNL     1      50.015   5.420  18.559  0.00  0.00    +0.000 A 
ATOM      7  C   UNL     1      49.623   4.604  17.508  0.00  0.00    +0.000 A 
ATOM      8  N   UNL     1      49.063   5.031  16.346  0.00  0.00    +0.000 NA
ATOM      9  C   UNL     1      48.882   6.368  16.322  0.00  0.00    +0.000 A 
ENDROOT
BRANCH   6  10
ATOM     10  C   UNL     1      50.850   4.859  19.629  0.00  0.00    +0.000 C 
ATOM     11  O   UNL     1      52.076   4.853  19.566  0.00  0.00    +0.000 OA
BRANCH  10  12
ATOM     12  O   UNL     1      50.153   4.440  20.682  0.00  0.00    +0.000 OA
ATOM     13  H   UNL     1      49.195   4.637  20.671  0.00  0.00    +0.000 HD
ENDBRANCH  10  12
ENDBRANCH   6  10
BRANCH   1  14
ATOM     14  C   UNL     1      48.569   6.620  13.839  0.00  0.00    +0.000 C 
BRANCH  14  18
ATOM     15  C   UNL     1      44.999   4.976  12.082  0.00  0.00    +0.000 A 
ATOM     16  C   UNL     1      45.618   4.300  13.151  0.00  0.00    +0.000 A 
ATOM     17  C   UNL     1      46.744   4.842  13.799  0.00  0.00    +0.000 A 
ATOM     18  C   UNL     1      47.239   6.079  13.377  0.00  0.00    +0.000 A 
ATOM     19  N   UNL     1      46.625   6.784  12.401  0.00  0.00    +0.000 NA
ATOM     20  C   UNL     1      45.537   6.225  11.793  0.00  0.00    +0.000 A 
BRANCH  15  22
ATOM     21  C   UNL     1      42.590   5.348  11.515  0.00  0.00    +0.000 C 
ATOM     22  C   UNL     1      43.800   4.418  11.305  0.00  0.00    +0.000 C 
ATOM     23  C   UNL     1      43.394   2.990  11.748  0.00  0.00    +0.000 C 
ATOM     24  C   UNL     1      44.073   4.322   9.780  0.00  0.00    +0.000 C 
ENDBRANCH  15  22
ENDBRANCH  14  18
ENDBRANCH   1  14
TORSDOF 5
ENDMDL
