MODEL 1
REMARK VINA RESULT:    -8.865      0.000      0.000
REMARK INTER + INTRA:         -11.972
REMARK INTER:                 -11.457
REMARK INTRA:                  -0.516
REMARK UNBOUND:                -0.516
REMARK  Name = 
REMARK  6 active torsions:
REMARK  status: ('A' for Active; 'I' for Inactive)
REMARK    1  A    between atoms: C_1  and  C_2
REMARK    2  A    between atoms: C_2  and  N_3
REMARK    3  A    between atoms: C_2  and  C_16
REMARK    4  A    between atoms: C_4  and  C_6
REMARK    5  A    between atoms: C_19  and  O_20
REMARK    6  A    between atoms: O_20  and  C_21
REMARK                            x       y       z     vdW  Elec       q    Type
REMARK                         _______ _______ _______ _____ _____    ______ ____
ROOT
ATOM      1  C   UNL     1      42.923   5.172  13.360  0.00  0.00    +0.000 C 
ATOM      2  C   UNL     1      44.236   4.440  13.069  0.00  0.00    +0.000 C 
ENDROOT
BRANCH   2   3
ATOM      3  C   UNL     1      44.587   4.332  11.593  0.00  0.00    +0.000 A 
ATOM      4  C   UNL     1      44.134   3.210  10.880  0.00  0.00    +0.000 A 
ATOM      5  C   UNL     1      44.378   3.084   9.512  0.00  0.00    +0.000 A 
ATOM      6  C   UNL     1      45.031   4.105   8.821  0.00  0.00    +0.000 A 
ATOM      7  C   UNL     1      45.577   5.171   9.531  0.00  0.00    +0.000 A 
ATOM      8  C   UNL     1      45.368   5.278  10.911  0.00  0.00    +0.000 A 
BRANCH   6   9
ATOM      9  O   UNL     1      45.205   4.117   7.454  0.00  0.00    +0.000 OA
BRANCH   9  10
ATOM     10  C   UNL     1      46.162   3.295   6.895  0.00  0.00    +0.000 A 
ATOM     11  C   UNL     1      46.755   3.510   5.645  0.00  0.00    +0.000 A 
ATOM     12  C   UNL     1      47.655   2.578   5.126  0.00  0.00    +0.000 A 
ATOM     13  C   UNL     1      48.017   1.465   5.880  0.00  0.00    +0.000 A 
ATOM     14  C   UNL     1      47.491   1.291   7.161  0.00  0.00    +0.000 A 
ATOM     15  C   UNL     1      46.565   2.205   7.668  0.00  0.00    +0.000 A 
ENDBRANCH   9  10
ENDBRANCH   6   9
ENDBRANCH   2   3
BRANCH   2  16
ATOM     16  N   UNL     1      45.336   5.063  13.773  0.00  0.00    +0.000 N 
ATOM     17  C   UNL     1      46.450   4.373  14.173  0.00  0.00    +0.000 C 
ATOM     18  O   UNL     1      46.651   3.201  13.863  0.00  0.00    +0.000 OA
ATOM     19  H   UNL     1      45.142   5.971  14.180  0.00  0.00    +0.000 HD
BRANCH  17  20
ATOM     20  C   UNL     1      47.426   5.139  14.951  0.00  0.00    +0.000 A 
ATOM     21  C   UNL     1      48.152   6.160  14.354  0.00  0.00    +0.000 A 
ATOM     22  S   UNL     1      49.210   6.961  15.428  0.00  0.00    +0.000 S 
ATOM     23  C   UNL     1      48.777   5.929  16.712  0.00  0.00    +0.000 A 
ATOM     24  N   UNL     1      49.357   6.051  17.937  0.00  0.00    +0.000 NA
ATOM     25  C   UNL     1      48.966   5.173  18.799  0.00  0.00    +0.000 A 
ATOM     26  N   UNL     1      48.041   4.192  18.554  0.00  0.00    +0.000 N 
ATOM     27  C   UNL     1      47.391   4.065  17.350  0.00  0.00    +0.000 A 
ATOM     28  O   UNL     1      46.504   3.233  17.195  0.00  0.00    +0.000 OA
ATOM     29  C   UNL     1      47.819   5.007  16.334  0.00  0.00    +0.000 A 
ATOM     30  H   UNL     1      47.763   3.548  19.279  0.00  0.00    +0.000 HD
ENDBRANCH  17  20
ENDBRANCH   2  16
TORSDOF 5
ENDMDL
MODEL 2
REMARK VINA RESULT:    -8.348      1.865      2.528
REMARK INTER + INTRA:         -11.304
REMARK INTER:                 -11.061
REMARK INTRA:                  -0.244
REMARK UNBOUND:                -0.516
REMARK  Name = 
REMARK  6 active torsions:
REMARK  status: ('A' for Active; 'I' for Inactive)
REMARK    1  A    between atoms: C_1  and  C_2
REMARK    2  A    between atoms: C_2  and  N_3
REMARK    3  A    between atoms: C_2  and  C_16
REMARK    4  A    between atoms: C_4  and  C_6
REMARK    5  A    between atoms: C_19  and  O_20
REMARK    6  A    between atoms: O_20  and  C_21
REMARK                            x       y       z     vdW  Elec       q    Type
REMARK                         _______ _______ _______ _____ _____    ______ ____
ROOT
ATOM      1  C   UNL     1      46.835   9.075  12.153  0.00  0.00    +0.000 C 
ATOM      2  C   UNL     1      46.053   7.959  12.850  0.00  0.00    +0.000 C 
ENDROOT
BRANCH   2   3
ATOM      3  C   UNL     1      45.669   6.796  11.948  0.00  0.00    +0.000 A 
ATOM      4  C   UNL     1      44.652   5.928  12.376  0.00  0.00    +0.000 A 
ATOM      5  C   UNL     1      44.219   4.876  11.567  0.00  0.00    +0.000 A 
ATOM      6  C   UNL     1      44.757   4.710  10.290  0.00  0.00    +0.000 A 
ATOM      7  C   UNL     1      45.836   5.496   9.894  0.00  0.00    +0.000 A 
ATOM      8  C   UNL     1      46.298   6.525  10.723  0.00  0.00    +0.000 A 
BRANCH   6   9
ATOM      9  O   UNL     1      44.303   3.777   9.383  0.00  0.00    +0.000 OA
BRANCH   9  10
ATOM     10  C   UNL     1      45.213   3.156   8.552  0.00  0.00    +0.000 A 
ATOM     11  C   UNL     1      45.859   3.781   7.479  0.00  0.00    +0.000 A 
ATOM     12  C   UNL     1      46.702   3.047   6.643  0.00  0.00    +0.000 A 
ATOM     13  C   UNL     1      46.956   1.705   6.916  0.00  0.00    +0.000 A 
ATOM     14  C   UNL     1      46.379   1.100   8.034  0.00  0.00    +0.000 A 
ATOM     15  C   UNL     1      45.510   1.825   8.851  0.00  0.00    +0.000 A 
ENDBRANCH   9  10
ENDBRANCH   6   9
ENDBRANCH   2   3
BRANCH   2  16
ATOM     16  N   UNL     1      46.790   7.452  13.987  0.00  0.00    +0.000 N 
ATOM     17  C   UNL     1      48.075   6.986  13.894  0.00  0.00    +0.000 C 
ATOM     18  O   UNL     1      48.738   7.071  12.862  0.00  0.00    +0.000 OA
ATOM     19  H   UNL     1      46.236   7.221  14.804  0.00  0.00    +0.000 HD
BRANCH  17  20
ATOM     20  C   UNL     1      48.639   6.427  15.125  0.00  0.00    +0.000 A 
ATOM     21  C   UNL     1      49.747   7.016  15.718  0.00  0.00    +0.000 A 
ATOM     22  S   UNL     1      50.235   6.246  17.162  0.00  0.00    +0.000 S 
ATOM     23  C   UNL     1      49.018   5.065  17.009  0.00  0.00    +0.000 A 
ATOM     24  N   UNL     1      48.899   4.058  17.917  0.00  0.00    +0.000 NA
ATOM     25  C   UNL     1      47.962   3.210  17.649  0.00  0.00    +0.000 A 
ATOM     26  N   UNL     1      47.127   3.282  16.565  0.00  0.00    +0.000 N 
ATOM     27  C   UNL     1      47.175   4.308  15.653  0.00  0.00    +0.000 A 
ATOM     28  O   UNL     1      46.354   4.389  14.747  0.00  0.00    +0.000 OA
ATOM     29  C   UNL     1      48.234   5.272  15.889  0.00  0.00    +0.000 A 
ATOM     30  H   UNL     1      46.400   2.597  16.425  0.00  0.00    +0.000 HD
ENDBRANCH  17  20
ENDBRANCH   2  16
TORSDOF 5
ENDMDL
MODEL 3
REMARK VINA RESULT:    -8.207      1.556      2.477
REMARK INTER + INTRA:         -11.122
REMARK INTER:                 -10.436
REMARK INTRA:                  -0.686
REMARK UNBOUND:                -0.516
REMARK  Name = 
REMARK  6 active torsions:
REMARK  status: ('A' for Active; 'I' for Inactive)
REMARK    1  A    between atoms: C_1  and  C_2
REMARK    2  A    between atoms: C_2  and  N_3
REMARK    3  A    between atoms: C_2  and  C_16
REMARK    4  A    between atoms: C_4  and  C_6
REMARK    5  A    between atoms: C_19  and  O_20
REMARK    6  A    between atoms: O_20  and  C_21
REMARK                            x       y       z     vdW  Elec       q    Type
REMARK                         _______ _______ _______ _____ _____    ______ ____
ROOT
ATOM      1  C   UNL     1      42.897   5.408  13.275  0.00  0.00    +0.000 C 
ATOM      2  C   UNL     1      44.161   4.588  13.003  0.00  0.00    +0.000 C 
ENDROOT
BRANCH   2   3
ATOM      3  C   UNL     1      44.491   4.403  11.530  0.00  0.00    +0.000 A 
ATOM      4  C   UNL     1      44.064   3.227  10.893  0.00  0.00    +0.000 A 
ATOM      5  C   UNL     1      44.290   3.027   9.530  0.00  0.00    +0.000 A 
ATOM      6  C   UNL     1      44.897   4.026   8.769  0.00  0.00    +0.000 A 
ATOM      7  C   UNL     1      45.420   5.149   9.404  0.00  0.00    +0.000 A 
ATOM      8  C   UNL     1      45.230   5.332  10.779  0.00  0.00    +0.000 A 
BRANCH   6   9
ATOM      9  O   UNL     1      45.049   3.961   7.401  0.00  0.00    +0.000 OA
BRANCH   9  10
ATOM     10  C   UNL     1      46.083   3.213   6.876  0.00  0.00    +0.000 A 
ATOM     11  C   UNL     1      46.698   3.469   5.645  0.00  0.00    +0.000 A 
ATOM     12  C   UNL     1      47.683   2.607   5.160  0.00  0.00    +0.000 A 
ATOM     13  C   UNL     1      48.104   1.528   5.932  0.00  0.00    +0.000 A 
ATOM     14  C   UNL     1      47.552   1.317   7.196  0.00  0.00    +0.000 A 
ATOM     15  C   UNL     1      46.543   2.160   7.668  0.00  0.00    +0.000 A 
ENDBRANCH   9  10
ENDBRANCH   6   9
ENDBRANCH   2   3
BRANCH   2  16
ATOM     16  N   UNL     1      45.302   5.169  13.675  0.00  0.00    +0.000 N 
ATOM     17  C   UNL     1      46.409   4.442  14.026  0.00  0.00    +0.000 C 
ATOM     18  O   UNL     1      46.565   3.269  13.694  0.00  0.00    +0.000 OA
ATOM     19  H   UNL     1      45.149   6.076  14.100  0.00  0.00    +0.000 HD
BRANCH  17  20
ATOM     20  C   UNL     1      47.434   5.169  14.780  0.00  0.00    +0.000 A 
ATOM     21  C   UNL     1      47.720   4.818  16.091  0.00  0.00    +0.000 A 
ATOM     22  S   UNL     1      48.966   5.753  16.790  0.00  0.00    +0.000 S 
ATOM     23  C   UNL     1      49.121   6.699  15.382  0.00  0.00    +0.000 A 
ATOM     24  N   UNL     1      50.008   7.729  15.323  0.00  0.00    +0.000 NA
ATOM     25  C   UNL     1      49.984   8.387  14.212  0.00  0.00    +0.000 A 
ATOM     26  N   UNL     1      49.165   8.103  13.151  0.00  0.00    +0.000 N 
ATOM     27  C   UNL     1      48.293   7.040  13.145  0.00  0.00    +0.000 A 
ATOM     28  O   UNL     1      47.642   6.762  12.146  0.00  0.00    +0.000 OA
ATOM     29  C   UNL     1      48.256   6.288  14.385  0.00  0.00    +0.000 A 
ATOM     30  H   UNL     1      49.210   8.643  12.301  0.00  0.00    +0.000 HD
ENDBRANCH  17  20
ENDBRANCH   2  16
TORSDOF 5
ENDMDL
MODEL 4
REMARK VINA RESULT:    -8.072      1.891      2.564
REMARK INTER + INTRA:         -10.947
REMARK INTER:                 -10.711
REMARK INTRA:                  -0.236
REMARK UNBOUND:                -0.516
REMARK  Name = 
REMARK  6 active torsions:
REMARK  status: ('A' for Active; 'I' for Inactive)
REMARK    1  A    between atoms: C_1  and  C_2
REMARK    2  A    between atoms: C_2  and  N_3
REMARK    3  A    between atoms: C_2  and  C_16
REMARK    4  A    between atoms: C_4  and  C_6
REMARK    5  A    between atoms: C_19  and  O_20
REMARK    6  A    between atoms: O_20  and  C_21
REMARK                            x       y       z     vdW  Elec       q    Type
REMARK                         _______ _______ _______ _____ _____    ______ ____
ROOT
ATOM      1  C   UNL     1      47.276   8.083  12.214  0.00  0.00    +0.000 C 
ATOM      2  C   UNL     1      46.133   7.211  12.739  0.00  0.00    +0.000 C 
ENDROOT
BRANCH   2   3
ATOM      3  C   UNL     1      45.637   6.159  11.759  0.00  0.00    +0.000 A 
ATOM      4  C   UNL     1      46.058   6.244  10.422  0.00  0.00    +0.000 A 
ATOM      5  C   UNL     1      45.681   5.276   9.489  0.00  0.00    +0.000 A 
ATOM      6  C   UNL     1      44.923   4.176   9.891  0.00  0.00    +0.000 A 
ATOM      7  C   UNL     1      44.411   4.134  11.185  0.00  0.00    +0.000 A 
ATOM      8  C   UNL     1      44.755   5.126  12.111  0.00  0.00    +0.000 A 
BRANCH   6   9
ATOM      9  O   UNL     1      44.610   3.118   9.066  0.00  0.00    +0.000 OA
BRANCH   9  10
ATOM     10  C   UNL     1      45.542   2.692   8.141  0.00  0.00    +0.000 A 
ATOM     11  C   UNL     1      45.985   3.459   7.057  0.00  0.00    +0.000 A 
ATOM     12  C   UNL     1      46.871   2.912   6.127  0.00  0.00    +0.000 A 
ATOM     13  C   UNL     1      47.368   1.625   6.313  0.00  0.00    +0.000 A 
ATOM     14  C   UNL     1      46.993   0.888   7.438  0.00  0.00    +0.000 A 
ATOM     15  C   UNL     1      46.081   1.422   8.351  0.00  0.00    +0.000 A 
ENDBRANCH   9  10
ENDBRANCH   6   9
ENDBRANCH   2   3
BRANCH   2  16
ATOM     16  N   UNL     1      46.509   6.565  13.977  0.00  0.00    +0.000 N 
ATOM     17  C   UNL     1      47.554   5.682  14.068  0.00  0.00    +0.000 C 
ATOM     18  O   UNL     1      48.321   5.463  13.133  0.00  0.00    +0.000 OA
ATOM     19  H   UNL     1      45.819   6.594  14.719  0.00  0.00    +0.000 HD
BRANCH  17  20
ATOM     20  C   UNL     1      47.740   5.052  15.378  0.00  0.00    +0.000 A 
ATOM     21  C   UNL     1      47.309   3.751  15.597  0.00  0.00    +0.000 A 
ATOM     22  S   UNL     1      47.646   3.178  17.169  0.00  0.00    +0.000 S 
ATOM     23  C   UNL     1      48.325   4.671  17.628  0.00  0.00    +0.000 A 
ATOM     24  N   UNL     1      48.788   4.874  18.891  0.00  0.00    +0.000 NA
ATOM     25  C   UNL     1      49.232   6.066  19.109  0.00  0.00    +0.000 A 
ATOM     26  N   UNL     1      49.267   7.072  18.178  0.00  0.00    +0.000 N 
ATOM     27  C   UNL     1      48.861   6.898  16.877  0.00  0.00    +0.000 A 
ATOM     28  O   UNL     1      48.991   7.791  16.049  0.00  0.00    +0.000 OA
ATOM     29  C   UNL     1      48.320   5.583  16.588  0.00  0.00    +0.000 A 
ATOM     30  H   UNL     1      49.647   7.977  18.407  0.00  0.00    +0.000 HD
ENDBRANCH  17  20
ENDBRANCH   2  16
TORSDOF 5
ENDMDL
MODEL 5
REMARK VINA RESULT:    -7.747      2.537      3.958
REMARK INTER + INTRA:         -10.527
REMARK INTER:                  -9.409
REMARK INTRA:                  -1.118
REMARK UNBOUND:                -0.516
REMARK  Name = 
REMARK  6 active torsions:
REMARK  status: ('A' for Active; 'I' for Inactive)
REMARK    1  A    between atoms: C_1  and  C_2
REMARK    2  A    between atoms: C_2  and  N_3
REMARK    3  A    between atoms: C_2  and  C_16
REMARK    4  A    between atoms: C_4  and  C_6
REMARK    5  A    between atoms: C_19  and  O_20
REMARK    6  A    between atoms: O_20  and  C_21
REMARK                            x       y       z     vdW  Elec       q    Type
REMARK                         _______ _______ _______ _____ _____    ______ ____
ROOT
ATOM      1  C   UNL     1      49.608   7.427  13.250  0.00  0.00    +0.000 C 
ATOM      2  C   UNL     1      48.175   7.743  13.686  0.00  0.00    +0.000 C 
ENDROOT
BRANCH   2   3
ATOM      3  C   UNL     1      47.102   6.951  12.954  0.00  0.00    +0.000 A 
ATOM      4  C   UNL     1      46.272   7.632  12.049  0.00  0.00    +0.000 A 
ATOM      5  C   UNL     1      45.307   6.949  11.308  0.00  0.00    +0.000 A 
ATOM      6  C   UNL     1      45.192   5.563  11.418  0.00  0.00    +0.000 A 
ATOM      7  C   UNL     1      45.933   4.890  12.387  0.00  0.00    +0.000 A 
ATOM      8  C   UNL     1      46.873   5.582  13.160  0.00  0.00    +0.000 A 
BRANCH   6   9
ATOM      9  O   UNL     1      44.352   4.798  10.638  0.00  0.00    +0.000 OA
BRANCH   9  10
ATOM     10  C   UNL     1      44.901   3.946   9.702  0.00  0.00    +0.000 A 
ATOM     11  C   UNL     1      44.759   2.554   9.722  0.00  0.00    +0.000 A 
ATOM     12  C   UNL     1      45.420   1.767   8.777  0.00  0.00    +0.000 A 
ATOM     13  C   UNL     1      46.168   2.371   7.769  0.00  0.00    +0.000 A 
ATOM     14  C   UNL     1      46.243   3.763   7.697  0.00  0.00    +0.000 A 
ATOM     15  C   UNL     1      45.610   4.549   8.661  0.00  0.00    +0.000 A 
ENDBRANCH   9  10
ENDBRANCH   6   9
ENDBRANCH   2   3
BRANCH   2  16
ATOM     16  N   UNL     1      48.019   7.546  15.110  0.00  0.00    +0.000 N 
ATOM     17  C   UNL     1      48.566   8.390  16.042  0.00  0.00    +0.000 C 
ATOM     18  O   UNL     1      49.130   9.438  15.738  0.00  0.00    +0.000 OA
ATOM     19  H   UNL     1      47.704   6.627  15.398  0.00  0.00    +0.000 HD
BRANCH  17  20
ATOM     20  C   UNL     1      48.385   7.993  17.441  0.00  0.00    +0.000 A 
ATOM     21  C   UNL     1      47.964   8.921  18.383  0.00  0.00    +0.000 A 
ATOM     22  S   UNL     1      47.776   8.264  19.948  0.00  0.00    +0.000 S 
ATOM     23  C   UNL     1      48.310   6.732  19.430  0.00  0.00    +0.000 A 
ATOM     24  N   UNL     1      48.424   5.696  20.303  0.00  0.00    +0.000 NA
ATOM     25  C   UNL     1      48.884   4.608  19.781  0.00  0.00    +0.000 A 
ATOM     26  N   UNL     1      49.231   4.458  18.463  0.00  0.00    +0.000 N 
ATOM     27  C   UNL     1      49.082   5.460  17.535  0.00  0.00    +0.000 A 
ATOM     28  O   UNL     1      49.316   5.262  16.348  0.00  0.00    +0.000 OA
ATOM     29  C   UNL     1      48.600   6.715  18.078  0.00  0.00    +0.000 A 
ATOM     30  H   UNL     1      49.565   3.574  18.112  0.00  0.00    +0.000 HD
ENDBRANCH  17  20
ENDBRANCH   2  16
TORSDOF 5
ENDMDL
MODEL 6
REMARK VINA RESULT:    -7.429      4.178      8.593
REMARK INTER + INTRA:         -10.116
REMARK INTER:                  -8.914
REMARK INTRA:                  -1.202
REMARK UNBOUND:                -0.516
REMARK  Name = 
REMARK  6 active torsions:
REMARK  status: ('A' for Active; 'I' for Inactive)
REMARK    1  A    between atoms: C_1  and  C_2
REMARK    2  A    between atoms: C_2  and  N_3
REMARK    3  A    between atoms: C_2  and  C_16
REMARK    4  A    between atoms: C_4  and  C_6
REMARK    5  A    between atoms: C_19  and  O_20
REMARK    6  A    between atoms: O_20  and  C_21
REMARK                            x       y       z     vdW  Elec       q    Type
REMARK                         _______ _______ _______ _____ _____    ______ ____
ROOT
ATOM      1  C   UNL     1      48.181   9.209  14.961  0.00  0.00    +0.000 C 
ATOM      2  C   UNL     1      48.433   7.803  14.411  0.00  0.00    +0.000 C 
ENDROOT
BRANCH   2   3
ATOM      3  C   UNL     1      49.019   6.825  15.417  0.00  0.00    +0.000 A 
ATOM      4  C   UNL     1      50.379   6.942  15.746  0.00  0.00    +0.000 A 
ATOM      5  C   UNL     1      50.960   6.109  16.704  0.00  0.00    +0.000 A 
ATOM      6  C   UNL     1      50.175   5.180  17.390  0.00  0.00    +0.000 A 
ATOM      7  C   UNL     1      48.854   4.981  17.001  0.00  0.00    +0.000 A 
ATOM      8  C   UNL     1      48.282   5.789  16.011  0.00  0.00    +0.000 A 
BRANCH   6   9
ATOM      9  O   UNL     1      50.639   4.406  18.431  0.00  0.00    +0.000 OA
BRANCH   9  10
ATOM     10  C   UNL     1      51.447   3.323  18.150  0.00  0.00    +0.000 A 
ATOM     11  C   UNL     1      51.019   2.171  17.480  0.00  0.00    +0.000 A 
ATOM     12  C   UNL     1      51.888   1.091  17.314  0.00  0.00    +0.000 A 
ATOM     13  C   UNL     1      53.205   1.185  17.756  0.00  0.00    +0.000 A 
ATOM     14  C   UNL     1      53.659   2.363  18.351  0.00  0.00    +0.000 A 
ATOM     15  C   UNL     1      52.781   3.431  18.546  0.00  0.00    +0.000 A 
ENDBRANCH   9  10
ENDBRANCH   6   9
ENDBRANCH   2   3
BRANCH   2  16
ATOM     16  N   UNL     1      47.218   7.244  13.860  0.00  0.00    +0.000 N 
ATOM     17  C   UNL     1      47.098   6.876  12.545  0.00  0.00    +0.000 C 
ATOM     18  O   UNL     1      48.047   6.884  11.764  0.00  0.00    +0.000 OA
ATOM     19  H   UNL     1      46.382   7.368  14.419  0.00  0.00    +0.000 HD
BRANCH  17  20
ATOM     20  C   UNL     1      45.770   6.411  12.136  0.00  0.00    +0.000 A 
ATOM     21  C   UNL     1      44.859   7.298  11.579  0.00  0.00    +0.000 A 
ATOM     22  S   UNL     1      43.383   6.566  11.132  0.00  0.00    +0.000 S 
ATOM     23  C   UNL     1      43.890   5.052  11.724  0.00  0.00    +0.000 A 
ATOM     24  N   UNL     1      43.067   3.969  11.681  0.00  0.00    +0.000 NA
ATOM     25  C   UNL     1      43.567   2.901  12.207  0.00  0.00    +0.000 A 
ATOM     26  N   UNL     1      44.818   2.812  12.760  0.00  0.00    +0.000 N 
ATOM     27  C   UNL     1      45.703   3.862  12.776  0.00  0.00    +0.000 A 
ATOM     28  O   UNL     1      46.844   3.721  13.197  0.00  0.00    +0.000 OA
ATOM     29  C   UNL     1      45.177   5.098  12.228  0.00  0.00    +0.000 A 
ATOM     30  H   UNL     1      45.158   1.940  13.136  0.00  0.00    +0.000 HD
ENDBRANCH  17  20
ENDBRANCH   2  16
TORSDOF 5
ENDMDL
MODEL 7
REMARK VINA RESULT:    -7.374      3.550      4.423
REMARK INTER + INTRA:         -10.045
REMARK INTER:                  -9.411
REMARK INTRA:                  -0.634
REMARK UNBOUND:                -0.516
REMARK  Name = 
REMARK  6 active torsions:
REMARK  status: ('A' for Active; 'I' for Inactive)
REMARK    1  A    between atoms: C_1  and  C_2
REMARK    2  A    between atoms: C_2  and  N_3
REMARK    3  A    between atoms: C_2  and  C_16
REMARK    4  A    between atoms: C_4  and  C_6
REMARK    5  A    between atoms: C_19  and  O_20
REMARK    6  A    between atoms: O_20  and  C_21
REMARK                            x       y       z     vdW  Elec       q    Type
REMARK                         _______ _______ _______ _____ _____    ______ ____
ROOT
ATOM      1  C   UNL     1      45.288   8.358  12.877  0.00  0.00    +0.000 C 
ATOM      2  C   UNL     1      46.228   7.150  12.863  0.00  0.00    +0.000 C 
ENDROOT
BRANCH   2   3
ATOM      3  C   UNL     1      45.742   5.979  12.022  0.00  0.00    +0.000 A 
ATOM      4  C   UNL     1      45.318   6.233  10.708  0.00  0.00    +0.000 A 
ATOM      5  C   UNL     1      44.914   5.192   9.871  0.00  0.00    +0.000 A 
ATOM      6  C   UNL     1      44.980   3.871  10.316  0.00  0.00    +0.000 A 
ATOM      7  C   UNL     1      45.297   3.613  11.647  0.00  0.00    +0.000 A 
ATOM      8  C   UNL     1      45.663   4.661  12.500  0.00  0.00    +0.000 A 
BRANCH   6   9
ATOM      9  O   UNL     1      44.717   2.779   9.519  0.00  0.00    +0.000 OA
BRANCH   9  10
ATOM     10  C   UNL     1      45.571   2.492   8.474  0.00  0.00    +0.000 A 
ATOM     11  C   UNL     1      46.191   1.252   8.277  0.00  0.00    +0.000 A 
ATOM     12  C   UNL     1      47.104   1.082   7.236  0.00  0.00    +0.000 A 
ATOM     13  C   UNL     1      47.350   2.126   6.348  0.00  0.00    +0.000 A 
ATOM     14  C   UNL     1      46.671   3.337   6.491  0.00  0.00    +0.000 A 
ATOM     15  C   UNL     1      45.782   3.519   7.552  0.00  0.00    +0.000 A 
ENDBRANCH   9  10
ENDBRANCH   6   9
ENDBRANCH   2   3
BRANCH   2  16
ATOM     16  N   UNL     1      47.550   7.535  12.418  0.00  0.00    +0.000 N 
ATOM     17  C   UNL     1      48.697   7.100  13.029  0.00  0.00    +0.000 C 
ATOM     18  O   UNL     1      48.693   6.260  13.926  0.00  0.00    +0.000 OA
ATOM     19  H   UNL     1      47.591   8.335  11.797  0.00  0.00    +0.000 HD
BRANCH  17  20
ATOM     20  C   UNL     1      49.946   7.659  12.505  0.00  0.00    +0.000 A 
ATOM     21  C   UNL     1      50.355   7.368  11.211  0.00  0.00    +0.000 A 
ATOM     22  S   UNL     1      51.813   8.138  10.769  0.00  0.00    +0.000 S 
ATOM     23  C   UNL     1      51.977   8.838  12.313  0.00  0.00    +0.000 A 
ATOM     24  N   UNL     1      53.054   9.609  12.624  0.00  0.00    +0.000 NA
ATOM     25  C   UNL     1      53.068  10.034  13.843  0.00  0.00    +0.000 A 
ATOM     26  N   UNL     1      52.100   9.770  14.776  0.00  0.00    +0.000 N 
ATOM     27  C   UNL     1      50.969   9.043  14.492  0.00  0.00    +0.000 A 
ATOM     28  O   UNL     1      50.082   8.903  15.325  0.00  0.00    +0.000 OA
ATOM     29  C   UNL     1      50.920   8.512  13.143  0.00  0.00    +0.000 A 
ATOM     30  H   UNL     1      52.160  10.150  15.708  0.00  0.00    +0.000 HD
ENDBRANCH  17  20
ENDBRANCH   2  16
TORSDOF 5
ENDMDL
MODEL 8
REMARK VINA RESULT:    -7.268      3.887      5.005
REMARK INTER + INTRA:          -9.907
REMARK INTER:                  -8.596
REMARK INTRA:                  -1.311
REMARK UNBOUND:                -0.516
REMARK  Name = 
REMARK  6 active torsions:
REMARK  status: ('A' for Active; 'I' for Inactive)
REMARK    1  A    between atoms: C_1  and  C_2
REMARK    2  A    between atoms: C_2  and  N_3
REMARK    3  A    between atoms: C_2  and  C_16
REMARK    4  A    between atoms: C_4  and  C_6
REMARK    5  A    between atoms: C_19  and  O_20
REMARK    6  A    between atoms: O_20  and  C_21
REMARK                            x       y       z     vdW  Elec       q    Type
REMARK                         _______ _______ _______ _____ _____    ______ ____
ROOT
ATOM      1  C   UNL     1      45.304   9.227  12.512  0.00  0.00    +0.000 C 
ATOM      2  C   UNL     1      45.895   7.921  13.050  0.00  0.00    +0.000 C 
ENDROOT
BRANCH   2   3
ATOM      3  C   UNL     1      45.433   6.669  12.321  0.00  0.00    +0.000 A 
ATOM      4  C   UNL     1      44.331   6.769  11.457  0.00  0.00    +0.000 A 
ATOM      5  C   UNL     1      43.895   5.667  10.719  0.00  0.00    +0.000 A 
ATOM      6  C   UNL     1      44.591   4.460  10.790  0.00  0.00    +0.000 A 
ATOM      7  C   UNL     1      45.618   4.315  11.719  0.00  0.00    +0.000 A 
ATOM      8  C   UNL     1      46.029   5.409  12.490  0.00  0.00    +0.000 A 
BRANCH   6   9
ATOM      9  O   UNL     1      44.304   3.363  10.007  0.00  0.00    +0.000 OA
BRANCH   9  10
ATOM     10  C   UNL     1      45.158   3.037   8.973  0.00  0.00    +0.000 A 
ATOM     11  C   UNL     1      45.667   3.958   8.050  0.00  0.00    +0.000 A 
ATOM     12  C   UNL     1      46.460   3.521   6.987  0.00  0.00    +0.000 A 
ATOM     13  C   UNL     1      46.802   2.176   6.882  0.00  0.00    +0.000 A 
ATOM     14  C   UNL     1      46.365   1.268   7.847  0.00  0.00    +0.000 A 
ATOM     15  C   UNL     1      45.544   1.699   8.892  0.00  0.00    +0.000 A 
ENDBRANCH   9  10
ENDBRANCH   6   9
ENDBRANCH   2   3
BRANCH   2  16
ATOM     16  N   UNL     1      47.341   7.970  13.037  0.00  0.00    +0.000 N 
ATOM     17  C   UNL     1      48.075   8.533  14.048  0.00  0.00    +0.000 C 
ATOM     18  O   UNL     1      47.568   8.933  15.093  0.00  0.00    +0.000 OA
ATOM     19  H   UNL     1      47.780   7.799  12.140  0.00  0.00    +0.000 HD
BRANCH  17  20
ATOM     20  C   UNL     1      49.524   8.577  13.831  0.00  0.00    +0.000 A 
ATOM     21  C   UNL     1      50.391   8.062  14.784  0.00  0.00    +0.000 A 
ATOM     22  S   UNL     1      52.035   8.170  14.338  0.00  0.00    +0.000 S 
ATOM     23  C   UNL     1      51.646   8.964  12.883  0.00  0.00    +0.000 A 
ATOM     24  N   UNL     1      52.618   9.379  12.027  0.00  0.00    +0.000 NA
ATOM     25  C   UNL     1      52.179  10.007  10.988  0.00  0.00    +0.000 A 
ATOM     26  N   UNL     1      50.857  10.249  10.719  0.00  0.00    +0.000 N 
ATOM     27  C   UNL     1      49.839   9.801  11.526  0.00  0.00    +0.000 A 
ATOM     28  O   UNL     1      48.666   9.956  11.208  0.00  0.00    +0.000 OA
ATOM     29  C   UNL     1      50.280   9.118  12.727  0.00  0.00    +0.000 A 
ATOM     30  H   UNL     1      50.578  10.727   9.877  0.00  0.00    +0.000 HD
ENDBRANCH  17  20
ENDBRANCH   2  16
TORSDOF 5
ENDMDL
MODEL 9
REMARK VINA RESULT:    -7.088      3.014      4.695
REMARK INTER + INTRA:          -9.675
REMARK INTER:                  -8.334
REMARK INTRA:                  -1.341
REMARK UNBOUND:                -0.516
REMARK  Name = 
REMARK  6 active torsions:
REMARK  status: ('A' for Active; 'I' for Inactive)
REMARK    1  A    between atoms: C_1  and  C_2
REMARK    2  A    between atoms: C_2  and  N_3
REMARK    3  A    between atoms: C_2  and  C_16
REMARK    4  A    between atoms: C_4  and  C_6
REMARK    5  A    between atoms: C_19  and  O_20
REMARK    6  A    between atoms: O_20  and  C_21
REMARK                            x       y       z     vdW  Elec       q    Type
REMARK                         _______ _______ _______ _____ _____    ______ ____
ROOT
ATOM      1  C   UNL     1      50.333   8.292  11.658  0.00  0.00    +0.000 C 
ATOM      2  C   UNL     1      49.455   8.096  12.897  0.00  0.00    +0.000 C 
ENDROOT
BRANCH   2   3
ATOM      3  C   UNL     1      48.127   7.404  12.629  0.00  0.00    +0.000 A 
ATOM      4  C   UNL     1      47.085   8.157  12.065  0.00  0.00    +0.000 A 
ATOM      5  C   UNL     1      45.863   7.563  11.745  0.00  0.00    +0.000 A 
ATOM      6  C   UNL     1      45.682   6.192  11.933  0.00  0.00    +0.000 A 
ATOM      7  C   UNL     1      46.665   5.455  12.587  0.00  0.00    +0.000 A 
ATOM      8  C   UNL     1      47.876   6.059  12.945  0.00  0.00    +0.000 A 
BRANCH   6   9
ATOM      9  O   UNL     1      44.555   5.505  11.534  0.00  0.00    +0.000 OA
BRANCH   9  10
ATOM     10  C   UNL     1      44.673   4.536  10.560  0.00  0.00    +0.000 A 
ATOM     11  C   UNL     1      44.227   3.216  10.700  0.00  0.00    +0.000 A 
ATOM     12  C   UNL     1      44.464   2.284   9.689  0.00  0.00    +0.000 A 
ATOM     13  C   UNL     1      45.086   2.681   8.508  0.00  0.00    +0.000 A 
ATOM     14  C   UNL     1      45.457   4.015   8.331  0.00  0.00    +0.000 A 
ATOM     15  C   UNL     1      45.250   4.941   9.355  0.00  0.00    +0.000 A 
ENDBRANCH   9  10
ENDBRANCH   6   9
ENDBRANCH   2   3
BRANCH   2  16
ATOM     16  N   UNL     1      50.170   7.367  13.921  0.00  0.00    +0.000 N 
ATOM     17  C   UNL     1      50.756   7.979  14.998  0.00  0.00    +0.000 C 
ATOM     18  O   UNL     1      50.618   9.177  15.237  0.00  0.00    +0.000 OA
ATOM     19  H   UNL     1      50.438   6.419  13.683  0.00  0.00    +0.000 HD
BRANCH  17  20
ATOM     20  C   UNL     1      51.516   7.101  15.891  0.00  0.00    +0.000 A 
ATOM     21  C   UNL     1      52.897   7.212  15.975  0.00  0.00    +0.000 A 
ATOM     22  S   UNL     1      53.600   6.132  17.093  0.00  0.00    +0.000 S 
ATOM     23  C   UNL     1      52.089   5.437  17.458  0.00  0.00    +0.000 A 
ATOM     24  N   UNL     1      51.984   4.405  18.338  0.00  0.00    +0.000 NA
ATOM     25  C   UNL     1      50.785   3.949  18.482  0.00  0.00    +0.000 A 
ATOM     26  N   UNL     1      49.679   4.437  17.836  0.00  0.00    +0.000 N 
ATOM     27  C   UNL     1      49.728   5.512  16.982  0.00  0.00    +0.000 A 
ATOM     28  O   UNL     1      48.706   5.978  16.493  0.00  0.00    +0.000 OA
ATOM     29  C   UNL     1      51.060   6.041  16.758  0.00  0.00    +0.000 A 
ATOM     30  H   UNL     1      48.764   4.049  18.009  0.00  0.00    +0.000 HD
ENDBRANCH  17  20
ENDBRANCH   2  16
TORSDOF 5
ENDMDL
