MODEL 1
REMARK VINA RESULT:    -8.085      0.000      0.000
REMARK INTER + INTRA:         -12.423
REMARK INTER:                 -11.157
REMARK INTRA:                  -1.266
REMARK UNBOUND:                -1.266
REMARK  Name = 
REMARK  7 active torsions:
REMARK  status: ('A' for Active; 'I' for Inactive)
REMARK    1  A    between atoms: C_2  and  C_20
REMARK    2  A    between atoms: N_3  and  C_4
REMARK    3  A    between atoms: C_4  and  C_5
REMARK    4  A    between atoms: C_8  and  C_9
REMARK    5  A    between atoms: C_9  and  O_10
REMARK    6  A    between atoms: C_9  and  C_11
REMARK    7  A    between atoms: C_11  and  N_12
REMARK                            x       y       z     vdW  Elec       q    Type
REMARK                         _______ _______ _______ _____ _____    ______ ____
ROOT
ATOM      1  C   UNL     1      46.246   6.189  12.538  0.00  0.00    +0.000 A 
ATOM      2  C   UNL     1      45.597   5.201  13.280  0.00  0.00    +0.000 A 
ATOM      3  C   UNL     1      44.755   4.291  12.644  0.00  0.00    +0.000 A 
ATOM      4  C   UNL     1      44.573   4.391  11.268  0.00  0.00    +0.000 A 
ATOM      5  N   UNL     1      45.213   5.327  10.515  0.00  0.00    +0.000 NA
ATOM      6  C   UNL     1      46.012   6.207  11.167  0.00  0.00    +0.000 A 
ENDROOT
BRANCH   1   7
ATOM      7  C   UNL     1      47.140   7.193  13.202  0.00  0.00    +0.000 C 
BRANCH   7  10
ATOM      8  O   UNL     1      49.797   7.024  14.151  0.00  0.00    +0.000 OA
ATOM      9  C   UNL     1      48.873   6.771  14.918  0.00  0.00    +0.000 C 
ATOM     10  N   UNL     1      47.564   6.767  14.512  0.00  0.00    +0.000 N 
ATOM     11  H   UNL     1      46.835   6.665  15.210  0.00  0.00    +0.000 HD
BRANCH   9  12
ATOM     12  C   UNL     1      49.114   6.428  16.324  0.00  0.00    +0.000 A 
ATOM     13  C   UNL     1      49.709   7.350  17.174  0.00  0.00    +0.000 A 
ATOM     14  S   UNL     1      49.910   6.773  18.769  0.00  0.00    +0.000 S 
ATOM     15  C   UNL     1      49.167   5.290  18.388  0.00  0.00    +0.000 A 
ATOM     16  N   UNL     1      48.984   4.332  19.336  0.00  0.00    +0.000 NA
ATOM     17  C   UNL     1      48.365   3.279  18.919  0.00  0.00    +0.000 A 
ATOM     18  N   UNL     1      47.920   3.091  17.637  0.00  0.00    +0.000 N 
ATOM     19  C   UNL     1      48.137   4.002  16.632  0.00  0.00    +0.000 A 
ATOM     20  O   UNL     1      47.824   3.756  15.471  0.00  0.00    +0.000 OA
ATOM     21  C   UNL     1      48.794   5.225  17.057  0.00  0.00    +0.000 A 
ATOM     22  H   UNL     1      47.465   2.231  17.369  0.00  0.00    +0.000 HD
ENDBRANCH   9  12
ENDBRANCH   7  10
ENDBRANCH   1   7
BRANCH   4  23
ATOM     23  C   UNL     1      43.647   3.430  10.544  0.00  0.00    +0.000 C 
BRANCH  23  24
ATOM     24  O   UNL     1      42.929   2.635  11.512  0.00  0.00    +0.000 OA
ATOM     25  H   UNL     1      43.255   2.948  12.378  0.00  0.00    +0.000 HD
ENDBRANCH  23  24
BRANCH  23  26
ATOM     26  C   UNL     1      44.456   2.477   9.644  0.00  0.00    +0.000 C 
BRANCH  26  27
ATOM     27  N   UNL     1      44.986   3.184   8.469  0.00  0.00    +0.000 N 
ATOM     28  C   UNL     1      46.006   2.608   7.805  0.00  0.00    +0.000 A 
ATOM     29  N   UNL     1      46.572   1.443   8.008  0.00  0.00    +0.000 NA
ATOM     30  C   UNL     1      47.525   1.320   7.030  0.00  0.00    +0.000 A 
ATOM     31  C   UNL     1      47.537   2.429   6.218  0.00  0.00    +0.000 A 
ATOM     32  N   UNL     1      46.572   3.248   6.735  0.00  0.00    +0.000 N 
ATOM     33  H   UNL     1      45.021   4.190   8.629  0.00  0.00    +0.000 HD
ATOM     34  H   UNL     1      46.274   4.141   6.373  0.00  0.00    +0.000 HD
ENDBRANCH  26  27
ENDBRANCH  23  26
ENDBRANCH   4  23
TORSDOF 7
ENDMDL
MODEL 2
REMARK VINA RESULT:    -7.931      1.460      1.934
REMARK INTER + INTRA:         -12.210
REMARK INTER:                 -11.304
REMARK INTRA:                  -0.907
REMARK UNBOUND:                -1.266
REMARK  Name = 
REMARK  7 active torsions:
REMARK  status: ('A' for Active; 'I' for Inactive)
REMARK    1  A    between atoms: C_2  and  C_20
REMARK    2  A    between atoms: N_3  and  C_4
REMARK    3  A    between atoms: C_4  and  C_5
REMARK    4  A    between atoms: C_8  and  C_9
REMARK    5  A    between atoms: C_9  and  O_10
REMARK    6  A    between atoms: C_9  and  C_11
REMARK    7  A    between atoms: C_11  and  N_12
REMARK                            x       y       z     vdW  Elec       q    Type
REMARK                         _______ _______ _______ _____ _____    ______ ____
ROOT
ATOM      1  C   UNL     1      47.093   5.825  13.401  0.00  0.00    +0.000 A 
ATOM      2  C   UNL     1      46.525   6.163  12.171  0.00  0.00    +0.000 A 
ATOM      3  C   UNL     1      45.450   5.429  11.676  0.00  0.00    +0.000 A 
ATOM      4  C   UNL     1      44.962   4.360  12.422  0.00  0.00    +0.000 A 
ATOM      5  N   UNL     1      45.478   4.025  13.636  0.00  0.00    +0.000 NA
ATOM      6  C   UNL     1      46.534   4.749  14.082  0.00  0.00    +0.000 A 
ENDROOT
BRANCH   1   7
ATOM      7  C   UNL     1      48.264   6.586  13.947  0.00  0.00    +0.000 C 
BRANCH   7  10
ATOM      8  O   UNL     1      50.518   6.492  15.650  0.00  0.00    +0.000 OA
ATOM      9  C   UNL     1      49.405   6.648  16.142  0.00  0.00    +0.000 C 
ATOM     10  N   UNL     1      48.261   6.636  15.388  0.00  0.00    +0.000 N 
ATOM     11  H   UNL     1      47.381   6.884  15.828  0.00  0.00    +0.000 HD
BRANCH   9  12
ATOM     12  C   UNL     1      49.224   6.831  17.587  0.00  0.00    +0.000 A 
ATOM     13  C   UNL     1      49.187   8.108  18.127  0.00  0.00    +0.000 A 
ATOM     14  S   UNL     1      48.972   8.123  19.822  0.00  0.00    +0.000 S 
ATOM     15  C   UNL     1      48.874   6.425  19.882  0.00  0.00    +0.000 A 
ATOM     16  N   UNL     1      48.655   5.775  21.058  0.00  0.00    +0.000 NA
ATOM     17  C   UNL     1      48.556   4.493  20.949  0.00  0.00    +0.000 A 
ATOM     18  N   UNL     1      48.666   3.799  19.772  0.00  0.00    +0.000 N 
ATOM     19  C   UNL     1      48.949   4.405  18.573  0.00  0.00    +0.000 A 
ATOM     20  O   UNL     1      49.150   3.744  17.557  0.00  0.00    +0.000 OA
ATOM     21  C   UNL     1      49.030   5.853  18.632  0.00  0.00    +0.000 A 
ATOM     22  H   UNL     1      48.605   2.791  19.760  0.00  0.00    +0.000 HD
ENDBRANCH   9  12
ENDBRANCH   7  10
ENDBRANCH   1   7
BRANCH   4  23
ATOM     23  C   UNL     1      43.805   3.526  11.904  0.00  0.00    +0.000 C 
BRANCH  23  24
ATOM     24  O   UNL     1      43.915   2.181  12.418  0.00  0.00    +0.000 OA
ATOM     25  H   UNL     1      44.343   2.286  13.290  0.00  0.00    +0.000 HD
ENDBRANCH  23  24
BRANCH  23  26
ATOM     26  C   UNL     1      43.837   3.456  10.365  0.00  0.00    +0.000 C 
BRANCH  26  27
ATOM     27  N   UNL     1      44.613   2.294   9.906  0.00  0.00    +0.000 N 
ATOM     28  C   UNL     1      45.423   2.468   8.845  0.00  0.00    +0.000 A 
ATOM     29  N   UNL     1      45.691   3.566   8.181  0.00  0.00    +0.000 NA
ATOM     30  C   UNL     1      46.609   3.206   7.227  0.00  0.00    +0.000 A 
ATOM     31  C   UNL     1      46.905   1.867   7.316  0.00  0.00    +0.000 A 
ATOM     32  N   UNL     1      46.129   1.407   8.343  0.00  0.00    +0.000 N 
ATOM     33  H   UNL     1      44.060   1.439   9.955  0.00  0.00    +0.000 HD
ATOM     34  H   UNL     1      46.107   0.472   8.719  0.00  0.00    +0.000 HD
ENDBRANCH  26  27
ENDBRANCH  23  26
ENDBRANCH   4  23
TORSDOF 7
ENDMDL
MODEL 3
REMARK VINA RESULT:    -7.530      1.446      1.830
REMARK INTER + INTRA:         -11.657
REMARK INTER:                 -10.263
REMARK INTRA:                  -1.394
REMARK UNBOUND:                -1.266
REMARK  Name = 
REMARK  7 active torsions:
REMARK  status: ('A' for Active; 'I' for Inactive)
REMARK    1  A    between atoms: C_2  and  C_20
REMARK    2  A    between atoms: N_3  and  C_4
REMARK    3  A    between atoms: C_4  and  C_5
REMARK    4  A    between atoms: C_8  and  C_9
REMARK    5  A    between atoms: C_9  and  O_10
REMARK    6  A    between atoms: C_9  and  C_11
REMARK    7  A    between atoms: C_11  and  N_12
REMARK                            x       y       z     vdW  Elec       q    Type
REMARK                         _______ _______ _______ _____ _____    ______ ____
ROOT
ATOM      1  C   UNL     1      47.221   7.190  12.427  0.00  0.00    +0.000 A 
ATOM      2  C   UNL     1      46.218   8.137  12.210  0.00  0.00    +0.000 A 
ATOM      3  C   UNL     1      44.940   7.726  11.841  0.00  0.00    +0.000 A 
ATOM      4  C   UNL     1      44.687   6.366  11.688  0.00  0.00    +0.000 A 
ATOM      5  N   UNL     1      45.638   5.418  11.918  0.00  0.00    +0.000 NA
ATOM      6  C   UNL     1      46.876   5.853  12.260  0.00  0.00    +0.000 A 
ENDROOT
BRANCH   1   7
ATOM      7  C   UNL     1      48.611   7.607  12.805  0.00  0.00    +0.000 C 
BRANCH   7  10
ATOM      8  O   UNL     1      48.211   8.541  15.443  0.00  0.00    +0.000 OA
ATOM      9  C   UNL     1      48.772   7.464  15.270  0.00  0.00    +0.000 C 
ATOM     10  N   UNL     1      49.060   6.978  14.021  0.00  0.00    +0.000 N 
ATOM     11  H   UNL     1      49.419   6.033  13.933  0.00  0.00    +0.000 HD
BRANCH   9  12
ATOM     12  C   UNL     1      49.198   6.630  16.400  0.00  0.00    +0.000 A 
ATOM     13  C   UNL     1      50.193   7.077  17.259  0.00  0.00    +0.000 A 
ATOM     14  S   UNL     1      50.558   5.973  18.510  0.00  0.00    +0.000 S 
ATOM     15  C   UNL     1      49.366   4.882  17.973  0.00  0.00    +0.000 A 
ATOM     16  N   UNL     1      49.127   3.719  18.638  0.00  0.00    +0.000 NA
ATOM     17  C   UNL     1      48.165   3.012  18.148  0.00  0.00    +0.000 A 
ATOM     18  N   UNL     1      47.424   3.357  17.048  0.00  0.00    +0.000 N 
ATOM     19  C   UNL     1      47.670   4.488  16.308  0.00  0.00    +0.000 A 
ATOM     20  O   UNL     1      47.062   4.711  15.265  0.00  0.00    +0.000 OA
ATOM     21  C   UNL     1      48.717   5.341  16.840  0.00  0.00    +0.000 A 
ATOM     22  H   UNL     1      46.701   2.745  16.699  0.00  0.00    +0.000 HD
ENDBRANCH   9  12
ENDBRANCH   7  10
ENDBRANCH   1   7
BRANCH   4  23
ATOM     23  C   UNL     1      43.312   5.882  11.266  0.00  0.00    +0.000 C 
BRANCH  23  24
ATOM     24  O   UNL     1      42.500   5.664  12.439  0.00  0.00    +0.000 OA
ATOM     25  H   UNL     1      43.107   5.811  13.190  0.00  0.00    +0.000 HD
ENDBRANCH  23  24
BRANCH  23  26
ATOM     26  C   UNL     1      43.420   4.549  10.501  0.00  0.00    +0.000 C 
BRANCH  26  27
ATOM     27  N   UNL     1      44.232   4.703   9.284  0.00  0.00    +0.000 N 
ATOM     28  C   UNL     1      44.949   3.639   8.878  0.00  0.00    +0.000 A 
ATOM     29  N   UNL     1      44.983   2.426   9.373  0.00  0.00    +0.000 NA
ATOM     30  C   UNL     1      45.835   1.720   8.564  0.00  0.00    +0.000 A 
ATOM     31  C   UNL     1      46.326   2.518   7.558  0.00  0.00    +0.000 A 
ATOM     32  N   UNL     1      45.762   3.743   7.781  0.00  0.00    +0.000 N 
ATOM     33  H   UNL     1      44.669   5.623   9.248  0.00  0.00    +0.000 HD
ATOM     34  H   UNL     1      45.868   4.573   7.218  0.00  0.00    +0.000 HD
ENDBRANCH  26  27
ENDBRANCH  23  26
ENDBRANCH   4  23
TORSDOF 7
ENDMDL
MODEL 4
REMARK VINA RESULT:    -7.111      1.760      2.522
REMARK INTER + INTRA:         -11.079
REMARK INTER:                 -10.029
REMARK INTRA:                  -1.050
REMARK UNBOUND:                -1.266
REMARK  Name = 
REMARK  7 active torsions:
REMARK  status: ('A' for Active; 'I' for Inactive)
REMARK    1  A    between atoms: C_2  and  C_20
REMARK    2  A    between atoms: N_3  and  C_4
REMARK    3  A    between atoms: C_4  and  C_5
REMARK    4  A    between atoms: C_8  and  C_9
REMARK    5  A    between atoms: C_9  and  O_10
REMARK    6  A    between atoms: C_9  and  C_11
REMARK    7  A    between atoms: C_11  and  N_12
REMARK                            x       y       z     vdW  Elec       q    Type
REMARK                         _______ _______ _______ _____ _____    ______ ____
ROOT
ATOM      1  C   UNL     1      46.452   6.504  12.698  0.00  0.00    +0.000 A 
ATOM      2  C   UNL     1      45.614   5.690  13.463  0.00  0.00    +0.000 A 
ATOM      3  C   UNL     1      44.758   4.788  12.836  0.00  0.00    +0.000 A 
ATOM      4  C   UNL     1      44.751   4.720  11.446  0.00  0.00    +0.000 A 
ATOM      5  N   UNL     1      45.576   5.482  10.676  0.00  0.00    +0.000 NA
ATOM      6  C   UNL     1      46.385   6.361  11.317  0.00  0.00    +0.000 A 
ENDROOT
BRANCH   1   7
ATOM      7  C   UNL     1      47.367   7.498  13.348  0.00  0.00    +0.000 C 
BRANCH   7  10
ATOM      8  O   UNL     1      49.871   6.805  14.463  0.00  0.00    +0.000 OA
ATOM      9  C   UNL     1      48.896   6.907  15.202  0.00  0.00    +0.000 C 
ATOM     10  N   UNL     1      47.639   7.174  14.726  0.00  0.00    +0.000 N 
ATOM     11  H   UNL     1      46.894   7.361  15.388  0.00  0.00    +0.000 HD
BRANCH   9  12
ATOM     12  C   UNL     1      49.010   6.722  16.653  0.00  0.00    +0.000 A 
ATOM     13  C   UNL     1      49.524   5.539  17.166  0.00  0.00    +0.000 A 
ATOM     14  S   UNL     1      49.577   5.505  18.873  0.00  0.00    +0.000 S 
ATOM     15  C   UNL     1      48.959   7.087  18.981  0.00  0.00    +0.000 A 
ATOM     16  N   UNL     1      48.785   7.692  20.188  0.00  0.00    +0.000 NA
ATOM     17  C   UNL     1      48.354   8.907  20.118  0.00  0.00    +0.000 A 
ATOM     18  N   UNL     1      48.071   9.570  18.953  0.00  0.00    +0.000 N 
ATOM     19  C   UNL     1      48.170   8.979  17.717  0.00  0.00    +0.000 A 
ATOM     20  O   UNL     1      47.803   9.563  16.701  0.00  0.00    +0.000 OA
ATOM     21  C   UNL     1      48.690   7.624  17.735  0.00  0.00    +0.000 A 
ATOM     22  H   UNL     1      47.711  10.513  18.969  0.00  0.00    +0.000 HD
ENDBRANCH   9  12
ENDBRANCH   7  10
ENDBRANCH   1   7
BRANCH   4  23
ATOM     23  C   UNL     1      43.817   3.763  10.728  0.00  0.00    +0.000 C 
BRANCH  23  24
ATOM     24  O   UNL     1      43.883   2.465  11.356  0.00  0.00    +0.000 OA
ATOM     25  H   UNL     1      43.623   2.627  12.284  0.00  0.00    +0.000 HD
ENDBRANCH  23  24
BRANCH  23  26
ATOM     26  C   UNL     1      44.235   3.606   9.253  0.00  0.00    +0.000 C 
BRANCH  26  27
ATOM     27  N   UNL     1      44.885   2.307   9.025  0.00  0.00    +0.000 N 
ATOM     28  C   UNL     1      45.927   2.276   8.173  0.00  0.00    +0.000 A 
ATOM     29  N   UNL     1      46.516   3.267   7.550  0.00  0.00    +0.000 NA
ATOM     30  C   UNL     1      47.548   2.701   6.847  0.00  0.00    +0.000 A 
ATOM     31  C   UNL     1      47.587   1.341   7.047  0.00  0.00    +0.000 A 
ATOM     32  N   UNL     1      46.537   1.084   7.885  0.00  0.00    +0.000 N 
ATOM     33  H   UNL     1      44.199   1.555   8.976  0.00  0.00    +0.000 HD
ATOM     34  H   UNL     1      46.276   0.193   8.278  0.00  0.00    +0.000 HD
ENDBRANCH  26  27
ENDBRANCH  23  26
ENDBRANCH   4  23
TORSDOF 7
ENDMDL
MODEL 5
REMARK VINA RESULT:    -7.007      3.798      8.738
REMARK INTER + INTRA:         -10.935
REMARK INTER:                  -9.849
REMARK INTRA:                  -1.086
REMARK UNBOUND:                -1.266
REMARK  Name = 
REMARK  7 active torsions:
REMARK  status: ('A' for Active; 'I' for Inactive)
REMARK    1  A    between atoms: C_2  and  C_20
REMARK    2  A    between atoms: N_3  and  C_4
REMARK    3  A    between atoms: C_4  and  C_5
REMARK    4  A    between atoms: C_8  and  C_9
REMARK    5  A    between atoms: C_9  and  O_10
REMARK    6  A    between atoms: C_9  and  C_11
REMARK    7  A    between atoms: C_11  and  N_12
REMARK                            x       y       z     vdW  Elec       q    Type
REMARK                         _______ _______ _______ _____ _____    ______ ____
ROOT
ATOM      1  C   UNL     1      48.621   3.359  17.168  0.00  0.00    +0.000 A 
ATOM      2  C   UNL     1      49.357   2.201  16.907  0.00  0.00    +0.000 A 
ATOM      3  C   UNL     1      50.720   2.164  17.191  0.00  0.00    +0.000 A 
ATOM      4  C   UNL     1      51.327   3.295  17.729  0.00  0.00    +0.000 A 
ATOM      5  N   UNL     1      50.630   4.427  18.019  0.00  0.00    +0.000 NA
ATOM      6  C   UNL     1      49.308   4.436  17.715  0.00  0.00    +0.000 A 
ENDROOT
BRANCH   1   7
ATOM      7  C   UNL     1      47.157   3.431  16.852  0.00  0.00    +0.000 C 
BRANCH   7  10
ATOM      8  O   UNL     1      47.212   3.059  14.050  0.00  0.00    +0.000 OA
ATOM      9  C   UNL     1      46.852   4.142  14.501  0.00  0.00    +0.000 C 
ATOM     10  N   UNL     1      46.862   4.418  15.843  0.00  0.00    +0.000 N 
ATOM     11  H   UNL     1      46.447   5.285  16.168  0.00  0.00    +0.000 HD
BRANCH   9  12
ATOM     12  C   UNL     1      46.407   5.229  13.622  0.00  0.00    +0.000 A 
ATOM     13  C   UNL     1      47.265   6.279  13.323  0.00  0.00    +0.000 A 
ATOM     14  S   UNL     1      46.573   7.450  12.290  0.00  0.00    +0.000 S 
ATOM     15  C   UNL     1      45.120   6.570  12.171  0.00  0.00    +0.000 A 
ATOM     16  N   UNL     1      44.094   7.010  11.393  0.00  0.00    +0.000 NA
ATOM     17  C   UNL     1      43.074   6.220  11.358  0.00  0.00    +0.000 A 
ATOM     18  N   UNL     1      42.981   5.035  12.039  0.00  0.00    +0.000 N 
ATOM     19  C   UNL     1      43.963   4.582  12.885  0.00  0.00    +0.000 A 
ATOM     20  O   UNL     1      43.802   3.572  13.565  0.00  0.00    +0.000 OA
ATOM     21  C   UNL     1      45.152   5.413  12.929  0.00  0.00    +0.000 A 
ATOM     22  H   UNL     1      42.141   4.476  11.990  0.00  0.00    +0.000 HD
ENDBRANCH   9  12
ENDBRANCH   7  10
ENDBRANCH   1   7
BRANCH   4  23
ATOM     23  C   UNL     1      52.814   3.297  18.032  0.00  0.00    +0.000 C 
BRANCH  23  24
ATOM     24  O   UNL     1      53.054   2.586  19.265  0.00  0.00    +0.000 OA
ATOM     25  H   UNL     1      53.972   2.816  19.507  0.00  0.00    +0.000 HD
ENDBRANCH  23  24
BRANCH  23  26
ATOM     26  C   UNL     1      53.328   4.740  18.201  0.00  0.00    +0.000 C 
BRANCH  26  27
ATOM     27  N   UNL     1      53.945   5.229  16.959  0.00  0.00    +0.000 N 
ATOM     28  C   UNL     1      53.345   6.257  16.331  0.00  0.00    +0.000 A 
ATOM     29  N   UNL     1      52.303   6.960  16.703  0.00  0.00    +0.000 NA
ATOM     30  C   UNL     1      52.134   7.914  15.733  0.00  0.00    +0.000 A 
ATOM     31  C   UNL     1      53.092   7.790  14.755  0.00  0.00    +0.000 A 
ATOM     32  N   UNL     1      53.849   6.719  15.144  0.00  0.00    +0.000 N 
ATOM     33  H   UNL     1      54.297   4.458  16.394  0.00  0.00    +0.000 HD
ATOM     34  H   UNL     1      54.669   6.354  14.685  0.00  0.00    +0.000 HD
ENDBRANCH  26  27
ENDBRANCH  23  26
ENDBRANCH   4  23
TORSDOF 7
ENDMDL
MODEL 6
REMARK VINA RESULT:    -6.957      3.545      6.082
REMARK INTER + INTRA:         -10.867
REMARK INTER:                  -9.773
REMARK INTRA:                  -1.094
REMARK UNBOUND:                -1.266
REMARK  Name = 
REMARK  7 active torsions:
REMARK  status: ('A' for Active; 'I' for Inactive)
REMARK    1  A    between atoms: C_2  and  C_20
REMARK    2  A    between atoms: N_3  and  C_4
REMARK    3  A    between atoms: C_4  and  C_5
REMARK    4  A    between atoms: C_8  and  C_9
REMARK    5  A    between atoms: C_9  and  O_10
REMARK    6  A    between atoms: C_9  and  C_11
REMARK    7  A    between atoms: C_11  and  N_12
REMARK                            x       y       z     vdW  Elec       q    Type
REMARK                         _______ _______ _______ _____ _____    ______ ____
ROOT
ATOM      1  C   UNL     1      48.202   4.158  16.891  0.00  0.00    +0.000 A 
ATOM      2  C   UNL     1      48.788   5.418  17.033  0.00  0.00    +0.000 A 
ATOM      3  C   UNL     1      48.670   6.360  16.014  0.00  0.00    +0.000 A 
ATOM      4  C   UNL     1      47.968   6.021  14.861  0.00  0.00    +0.000 A 
ATOM      5  N   UNL     1      47.363   4.812  14.706  0.00  0.00    +0.000 NA
ATOM      6  C   UNL     1      47.511   3.912  15.709  0.00  0.00    +0.000 A 
ENDROOT
BRANCH   1   7
ATOM      7  C   UNL     1      48.331   3.119  17.964  0.00  0.00    +0.000 C 
BRANCH   7  10
ATOM      8  O   UNL     1      49.999   1.692  16.182  0.00  0.00    +0.000 OA
ATOM      9  C   UNL     1      50.464   2.090  17.245  0.00  0.00    +0.000 C 
ATOM     10  N   UNL     1      49.701   2.730  18.186  0.00  0.00    +0.000 N 
ATOM     11  H   UNL     1      50.160   3.139  18.994  0.00  0.00    +0.000 HD
BRANCH   9  12
ATOM     12  C   UNL     1      51.875   1.883  17.590  0.00  0.00    +0.000 A 
ATOM     13  C   UNL     1      52.389   0.596  17.675  0.00  0.00    +0.000 A 
ATOM     14  S   UNL     1      54.046   0.552  18.091  0.00  0.00    +0.000 S 
ATOM     15  C   UNL     1      54.141   2.251  18.126  0.00  0.00    +0.000 A 
ATOM     16  N   UNL     1      55.317   2.883  18.391  0.00  0.00    +0.000 NA
ATOM     17  C   UNL     1      55.254   4.172  18.337  0.00  0.00    +0.000 A 
ATOM     18  N   UNL     1      54.121   4.887  18.053  0.00  0.00    +0.000 N 
ATOM     19  C   UNL     1      52.899   4.295  17.842  0.00  0.00    +0.000 A 
ATOM     20  O   UNL     1      51.882   4.968  17.700  0.00  0.00    +0.000 OA
ATOM     21  C   UNL     1      52.922   2.844  17.851  0.00  0.00    +0.000 A 
ATOM     22  H   UNL     1      54.133   5.896  18.053  0.00  0.00    +0.000 HD
ENDBRANCH   9  12
ENDBRANCH   7  10
ENDBRANCH   1   7
BRANCH   4  23
ATOM     23  C   UNL     1      47.837   7.015  13.722  0.00  0.00    +0.000 C 
BRANCH  23  24
ATOM     24  O   UNL     1      47.346   8.272  14.235  0.00  0.00    +0.000 OA
ATOM     25  H   UNL     1      47.770   8.950  13.674  0.00  0.00    +0.000 HD
ENDBRANCH  23  24
BRANCH  23  26
ATOM     26  C   UNL     1      46.835   6.501  12.670  0.00  0.00    +0.000 C 
BRANCH  26  27
ATOM     27  N   UNL     1      45.471   6.457  13.218  0.00  0.00    +0.000 N 
ATOM     28  C   UNL     1      44.501   5.959  12.429  0.00  0.00    +0.000 A 
ATOM     29  N   UNL     1      44.598   5.424  11.236  0.00  0.00    +0.000 NA
ATOM     30  C   UNL     1      43.327   5.037  10.900  0.00  0.00    +0.000 A 
ATOM     31  C   UNL     1      42.442   5.340  11.907  0.00  0.00    +0.000 A 
ATOM     32  N   UNL     1      43.205   5.941  12.869  0.00  0.00    +0.000 N 
ATOM     33  H   UNL     1      45.267   7.292  13.765  0.00  0.00    +0.000 HD
ATOM     34  H   UNL     1      42.898   6.268  13.773  0.00  0.00    +0.000 HD
ENDBRANCH  26  27
ENDBRANCH  23  26
ENDBRANCH   4  23
TORSDOF 7
ENDMDL
MODEL 7
REMARK VINA RESULT:    -6.918      2.963      8.504
REMARK INTER + INTRA:         -10.813
REMARK INTER:                  -9.407
REMARK INTRA:                  -1.407
REMARK UNBOUND:                -1.266
REMARK  Name = 
REMARK  7 active torsions:
REMARK  status: ('A' for Active; 'I' for Inactive)
REMARK    1  A    between atoms: C_2  and  C_20
REMARK    2  A    between atoms: N_3  and  C_4
REMARK    3  A    between atoms: C_4  and  C_5
REMARK    4  A    between atoms: C_8  and  C_9
REMARK    5  A    between atoms: C_9  and  O_10
REMARK    6  A    between atoms: C_9  and  C_11
REMARK    7  A    between atoms: C_11  and  N_12
REMARK                            x       y       z     vdW  Elec       q    Type
REMARK                         _______ _______ _______ _____ _____    ______ ____
ROOT
ATOM      1  C   UNL     1      48.104   7.953  13.187  0.00  0.00    +0.000 A 
ATOM      2  C   UNL     1      47.928   9.018  14.072  0.00  0.00    +0.000 A 
ATOM      3  C   UNL     1      48.657   9.067  15.258  0.00  0.00    +0.000 A 
ATOM      4  C   UNL     1      49.550   8.038  15.542  0.00  0.00    +0.000 A 
ATOM      5  N   UNL     1      49.763   7.001  14.686  0.00  0.00    +0.000 NA
ATOM      6  C   UNL     1      49.025   6.976  13.548  0.00  0.00    +0.000 A 
ENDROOT
BRANCH   1   7
ATOM      7  C   UNL     1      47.317   7.867  11.915  0.00  0.00    +0.000 C 
BRANCH   7  10
ATOM      8  O   UNL     1      44.521   7.462  11.796  0.00  0.00    +0.000 OA
ATOM      9  C   UNL     1      45.269   6.499  11.666  0.00  0.00    +0.000 C 
ATOM     10  N   UNL     1      46.631   6.606  11.778  0.00  0.00    +0.000 N 
ATOM     11  H   UNL     1      47.207   5.803  11.549  0.00  0.00    +0.000 HD
BRANCH   9  12
ATOM     12  C   UNL     1      44.748   5.152  11.407  0.00  0.00    +0.000 A 
ATOM     13  C   UNL     1      43.976   4.507  12.363  0.00  0.00    +0.000 A 
ATOM     14  S   UNL     1      43.463   2.949  11.886  0.00  0.00    +0.000 S 
ATOM     15  C   UNL     1      44.216   3.104  10.367  0.00  0.00    +0.000 A 
ATOM     16  N   UNL     1      44.130   2.114   9.437  0.00  0.00    +0.000 NA
ATOM     17  C   UNL     1      44.707   2.385   8.314  0.00  0.00    +0.000 A 
ATOM     18  N   UNL     1      45.371   3.553   8.040  0.00  0.00    +0.000 N 
ATOM     19  C   UNL     1      45.537   4.552   8.967  0.00  0.00    +0.000 A 
ATOM     20  O   UNL     1      46.231   5.535   8.726  0.00  0.00    +0.000 OA
ATOM     21  C   UNL     1      44.872   4.315  10.235  0.00  0.00    +0.000 A 
ATOM     22  H   UNL     1      45.825   3.691   7.149  0.00  0.00    +0.000 HD
ENDBRANCH   9  12
ENDBRANCH   7  10
ENDBRANCH   1   7
BRANCH   4  23
ATOM     23  C   UNL     1      50.346   8.047  16.834  0.00  0.00    +0.000 C 
BRANCH  23  24
ATOM     24  O   UNL     1      51.739   8.285  16.539  0.00  0.00    +0.000 OA
ATOM     25  H   UNL     1      51.817   8.127  15.578  0.00  0.00    +0.000 HD
ENDBRANCH  23  24
BRANCH  23  26
ATOM     26  C   UNL     1      50.232   6.686  17.547  0.00  0.00    +0.000 C 
BRANCH  26  27
ATOM     27  N   UNL     1      48.824   6.316  17.756  0.00  0.00    +0.000 N 
ATOM     28  C   UNL     1      48.457   5.063  17.432  0.00  0.00    +0.000 A 
ATOM     29  N   UNL     1      49.197   4.066  17.012  0.00  0.00    +0.000 NA
ATOM     30  C   UNL     1      48.342   3.003  16.874  0.00  0.00    +0.000 A 
ATOM     31  C   UNL     1      47.060   3.360  17.218  0.00  0.00    +0.000 A 
ATOM     32  N   UNL     1      47.148   4.681  17.558  0.00  0.00    +0.000 N 
ATOM     33  H   UNL     1      48.201   7.083  17.505  0.00  0.00    +0.000 HD
ATOM     34  H   UNL     1      46.405   5.272  17.898  0.00  0.00    +0.000 HD
ENDBRANCH  26  27
ENDBRANCH  23  26
ENDBRANCH   4  23
TORSDOF 7
ENDMDL
MODEL 8
REMARK VINA RESULT:    -6.893      2.253      3.112
REMARK INTER + INTRA:         -10.778
REMARK INTER:                  -9.665
REMARK INTRA:                  -1.113
REMARK UNBOUND:                -1.266
REMARK  Name = 
REMARK  7 active torsions:
REMARK  status: ('A' for Active; 'I' for Inactive)
REMARK    1  A    between atoms: C_2  and  C_20
REMARK    2  A    between atoms: N_3  and  C_4
REMARK    3  A    between atoms: C_4  and  C_5
REMARK    4  A    between atoms: C_8  and  C_9
REMARK    5  A    between atoms: C_9  and  O_10
REMARK    6  A    between atoms: C_9  and  C_11
REMARK    7  A    between atoms: C_11  and  N_12
REMARK                            x       y       z     vdW  Elec       q    Type
REMARK                         _______ _______ _______ _____ _____    ______ ____
ROOT
ATOM      1  C   UNL     1      47.130   7.217  12.719  0.00  0.00    +0.000 A 
ATOM      2  C   UNL     1      46.175   8.064  12.153  0.00  0.00    +0.000 A 
ATOM      3  C   UNL     1      44.874   7.609  11.950  0.00  0.00    +0.000 A 
ATOM      4  C   UNL     1      44.552   6.304  12.313  0.00  0.00    +0.000 A 
ATOM      5  N   UNL     1      45.455   5.466  12.891  0.00  0.00    +0.000 NA
ATOM      6  C   UNL     1      46.716   5.934  13.060  0.00  0.00    +0.000 A 
ENDROOT
BRANCH   1   7
ATOM      7  C   UNL     1      48.542   7.676  12.929  0.00  0.00    +0.000 C 
BRANCH   7  10
ATOM      8  O   UNL     1      48.481   8.403  15.660  0.00  0.00    +0.000 OA
ATOM      9  C   UNL     1      49.056   7.370  15.331  0.00  0.00    +0.000 C 
ATOM     10  N   UNL     1      49.185   6.988  14.021  0.00  0.00    +0.000 N 
ATOM     11  H   UNL     1      49.567   6.071  13.813  0.00  0.00    +0.000 HD
BRANCH   9  12
ATOM     12  C   UNL     1      49.673   6.484  16.324  0.00  0.00    +0.000 A 
ATOM     13  C   UNL     1      48.876   5.707  17.154  0.00  0.00    +0.000 A 
ATOM     14  S   UNL     1      49.768   4.743  18.246  0.00  0.00    +0.000 S 
ATOM     15  C   UNL     1      51.249   5.298  17.615  0.00  0.00    +0.000 A 
ATOM     16  N   UNL     1      52.435   4.831  18.092  0.00  0.00    +0.000 NA
ATOM     17  C   UNL     1      53.475   5.301  17.490  0.00  0.00    +0.000 A 
ATOM     18  N   UNL     1      53.439   6.204  16.460  0.00  0.00    +0.000 N 
ATOM     19  C   UNL     1      52.271   6.751  15.988  0.00  0.00    +0.000 A 
ATOM     20  O   UNL     1      52.280   7.639  15.140  0.00  0.00    +0.000 OA
ATOM     21  C   UNL     1      51.066   6.224  16.604  0.00  0.00    +0.000 A 
ATOM     22  H   UNL     1      54.293   6.554  16.049  0.00  0.00    +0.000 HD
ENDBRANCH   9  12
ENDBRANCH   7  10
ENDBRANCH   1   7
BRANCH   4  23
ATOM     23  C   UNL     1      43.151   5.768  12.086  0.00  0.00    +0.000 C 
BRANCH  23  24
ATOM     24  O   UNL     1      42.575   5.381  13.352  0.00  0.00    +0.000 OA
ATOM     25  H   UNL     1      42.873   4.461  13.488  0.00  0.00    +0.000 HD
ENDBRANCH  23  24
BRANCH  23  26
ATOM     26  C   UNL     1      43.189   4.525  11.176  0.00  0.00    +0.000 C 
BRANCH  26  27
ATOM     27  N   UNL     1      43.905   4.811   9.924  0.00  0.00    +0.000 N 
ATOM     28  C   UNL     1      44.604   3.805   9.365  0.00  0.00    +0.000 A 
ATOM     29  N   UNL     1      44.691   2.551   9.737  0.00  0.00    +0.000 NA
ATOM     30  C   UNL     1      45.488   1.942   8.803  0.00  0.00    +0.000 A 
ATOM     31  C   UNL     1      45.891   2.842   7.845  0.00  0.00    +0.000 A 
ATOM     32  N   UNL     1      45.330   4.029   8.226  0.00  0.00    +0.000 N 
ATOM     33  H   UNL     1      44.326   5.739   9.944  0.00  0.00    +0.000 HD
ATOM     34  H   UNL     1      45.382   4.911   7.739  0.00  0.00    +0.000 HD
ENDBRANCH  26  27
ENDBRANCH  23  26
ENDBRANCH   4  23
TORSDOF 7
ENDMDL
MODEL 9
REMARK VINA RESULT:    -6.854      2.400      3.579
REMARK INTER + INTRA:         -10.724
REMARK INTER:                  -9.494
REMARK INTRA:                  -1.230
REMARK UNBOUND:                -1.266
REMARK  Name = 
REMARK  7 active torsions:
REMARK  status: ('A' for Active; 'I' for Inactive)
REMARK    1  A    between atoms: C_2  and  C_20
REMARK    2  A    between atoms: N_3  and  C_4
REMARK    3  A    between atoms: C_4  and  C_5
REMARK    4  A    between atoms: C_8  and  C_9
REMARK    5  A    between atoms: C_9  and  O_10
REMARK    6  A    between atoms: C_9  and  C_11
REMARK    7  A    between atoms: C_11  and  N_12
REMARK                            x       y       z     vdW  Elec       q    Type
REMARK                         _______ _______ _______ _____ _____    ______ ____
ROOT
ATOM      1  C   UNL     1      47.345   6.395  13.099  0.00  0.00    +0.000 A 
ATOM      2  C   UNL     1      46.523   7.473  12.765  0.00  0.00    +0.000 A 
ATOM      3  C   UNL     1      45.172   7.263  12.501  0.00  0.00    +0.000 A 
ATOM      4  C   UNL     1      44.665   5.970  12.570  0.00  0.00    +0.000 A 
ATOM      5  N   UNL     1      45.436   4.903  12.919  0.00  0.00    +0.000 NA
ATOM      6  C   UNL     1      46.750   5.139  13.154  0.00  0.00    +0.000 A 
ENDROOT
BRANCH   1   7
ATOM      7  C   UNL     1      48.807   6.591  13.367  0.00  0.00    +0.000 C 
BRANCH   7  10
ATOM      8  O   UNL     1      48.935   5.379  15.918  0.00  0.00    +0.000 OA
ATOM      9  C   UNL     1      49.158   6.581  15.817  0.00  0.00    +0.000 C 
ATOM     10  N   UNL     1      49.049   7.250  14.626  0.00  0.00    +0.000 N 
ATOM     11  H   UNL     1      49.356   8.217  14.577  0.00  0.00    +0.000 HD
BRANCH   9  12
ATOM     12  C   UNL     1      49.533   7.393  16.981  0.00  0.00    +0.000 A 
ATOM     13  C   UNL     1      50.463   6.915  17.893  0.00  0.00    +0.000 A 
ATOM     14  S   UNL     1      50.769   7.994  19.181  0.00  0.00    +0.000 S 
ATOM     15  C   UNL     1      49.705   9.156  18.536  0.00  0.00    +0.000 A 
ATOM     16  N   UNL     1      49.525  10.359  19.147  0.00  0.00    +0.000 NA
ATOM     17  C   UNL     1      48.727  11.160  18.523  0.00  0.00    +0.000 A 
ATOM     18  N   UNL     1      48.084  10.864  17.350  0.00  0.00    +0.000 N 
ATOM     19  C   UNL     1      48.185   9.641  16.732  0.00  0.00    +0.000 A 
ATOM     20  O   UNL     1      47.510   9.370  15.743  0.00  0.00    +0.000 OA
ATOM     21  C   UNL     1      49.104   8.717  17.371  0.00  0.00    +0.000 A 
ATOM     22  H   UNL     1      47.451  11.526  16.927  0.00  0.00    +0.000 HD
ENDBRANCH   9  12
ENDBRANCH   7  10
ENDBRANCH   1   7
BRANCH   4  23
ATOM     23  C   UNL     1      43.202   5.701  12.269  0.00  0.00    +0.000 C 
BRANCH  23  24
ATOM     24  O   UNL     1      42.525   5.314  13.483  0.00  0.00    +0.000 OA
ATOM     25  H   UNL     1      41.607   5.628  13.364  0.00  0.00    +0.000 HD
ENDBRANCH  23  24
BRANCH  23  26
ATOM     26  C   UNL     1      43.063   4.550  11.254  0.00  0.00    +0.000 C 
BRANCH  26  27
ATOM     27  N   UNL     1      43.794   4.849  10.013  0.00  0.00    +0.000 N 
ATOM     28  C   UNL     1      44.491   3.847   9.446  0.00  0.00    +0.000 A 
ATOM     29  N   UNL     1      44.565   2.587   9.800  0.00  0.00    +0.000 NA
ATOM     30  C   UNL     1      45.367   1.986   8.864  0.00  0.00    +0.000 A 
ATOM     31  C   UNL     1      45.787   2.898   7.925  0.00  0.00    +0.000 A 
ATOM     32  N   UNL     1      45.231   4.083   8.319  0.00  0.00    +0.000 N 
ATOM     33  H   UNL     1      44.222   5.773  10.052  0.00  0.00    +0.000 HD
ATOM     34  H   UNL     1      45.295   4.972   7.846  0.00  0.00    +0.000 HD
ENDBRANCH  26  27
ENDBRANCH  23  26
ENDBRANCH   4  23
TORSDOF 7
ENDMDL
