MODEL 1
REMARK VINA RESULT:    -8.032      0.000      0.000
REMARK INTER + INTRA:         -13.109
REMARK INTER:                 -11.788
REMARK INTRA:                  -1.321
REMARK UNBOUND:                -1.321
REMARK  Name = 
REMARK  10 active torsions:
REMARK  status: ('A' for Active; 'I' for Inactive)
REMARK    1  A    between atoms: C_1  and  O_2
REMARK    2  A    between atoms: O_2  and  C_3
REMARK    3  A    between atoms: C_10  and  C_11
REMARK    4  A    between atoms: N_13  and  C_14
REMARK    5  A    between atoms: C_14  and  C_15
REMARK    6  A    between atoms: C_18  and  C_19
REMARK    7  A    between atoms: C_19  and  O_20
REMARK    8  A    between atoms: O_20  and  C_21
REMARK    9  A    between atoms: C_21  and  C_22
REMARK   10  A    between atoms: C_25  and  C_26
REMARK                            x       y       z     vdW  Elec       q    Type
REMARK                         _______ _______ _______ _____ _____    ______ ____
ROOT
ATOM      1  C   UNL     1      48.226   6.775  13.587  0.00  0.00    +0.000 C 
ENDROOT
BRANCH   1   2
ATOM      2  C   UNL     1      47.038   6.098  12.944  0.00  0.00    +0.000 A 
ATOM      3  C   UNL     1      46.409   5.013  13.570  0.00  0.00    +0.000 A 
ATOM      4  C   UNL     1      45.235   4.463  13.041  0.00  0.00    +0.000 A 
ATOM      5  C   UNL     1      44.668   4.969  11.864  0.00  0.00    +0.000 A 
ATOM      6  C   UNL     1      45.339   6.004  11.197  0.00  0.00    +0.000 A 
ATOM      7  C   UNL     1      46.513   6.560  11.730  0.00  0.00    +0.000 A 
BRANCH   5   8
ATOM      8  C   UNL     1      43.368   4.409  11.336  0.00  0.00    +0.000 C 
BRANCH   8   9
ATOM      9  O   UNL     1      43.574   3.897  10.018  0.00  0.00    +0.000 OA
BRANCH   9  10
ATOM     10  C   UNL     1      44.322   2.679  10.016  0.00  0.00    +0.000 C 
BRANCH  10  11
ATOM     11  C   UNL     1      45.247   2.633   8.832  0.00  0.00    +0.000 A 
ATOM     12  C   UNL     1      45.563   3.771   8.085  0.00  0.00    +0.000 A 
ATOM     13  C   UNL     1      46.453   3.684   7.016  0.00  0.00    +0.000 A 
ATOM     14  C   UNL     1      47.029   2.453   6.719  0.00  0.00    +0.000 A 
ATOM     15  C   UNL     1      47.985   2.309   5.572  0.00  0.00    +0.000 C 
ATOM     16  N   UNL     1      46.762   1.338   7.438  0.00  0.00    +0.000 NA
ATOM     17  C   UNL     1      45.889   1.453   8.468  0.00  0.00    +0.000 A 
ENDBRANCH  10  11
ENDBRANCH   9  10
ENDBRANCH   8   9
ENDBRANCH   5   8
ENDBRANCH   1   2
BRANCH   1  20
ATOM     18  C   UNL     1      49.025   6.793  15.911  0.00  0.00    +0.000 C 
ATOM     19  O   UNL     1      50.123   6.362  15.567  0.00  0.00    +0.000 OA
ATOM     20  N   UNL     1      48.033   7.020  14.993  0.00  0.00    +0.000 N 
ATOM     21  H   UNL     1      47.170   7.462  15.277  0.00  0.00    +0.000 HD
BRANCH  18  29
ATOM     22  C   UNL     1      48.729   4.768  18.669  0.00  0.00    +0.000 A 
ATOM     23  N   UNL     1      48.674   4.231  19.905  0.00  0.00    +0.000 NA
ATOM     24  C   UNL     1      48.496   5.052  20.942  0.00  0.00    +0.000 A 
ATOM     25  N   UNL     1      48.349   6.373  20.901  0.00  0.00    +0.000 NA
ATOM     26  C   UNL     1      48.424   6.872  19.655  0.00  0.00    +0.000 A 
ATOM     27  S   UNL     1      48.233   8.540  19.403  0.00  0.00    +0.000 S 
ATOM     28  C   UNL     1      48.478   8.364  17.729  0.00  0.00    +0.000 A 
ATOM     29  C   UNL     1      48.719   7.056  17.331  0.00  0.00    +0.000 A 
ATOM     30  C   UNL     1      48.637   6.159  18.479  0.00  0.00    +0.000 A 
BRANCH  22  32
ATOM     31  C   UNL     1      47.591   3.471  17.063  0.00  0.00    +0.000 C 
ATOM     32  O   UNL     1      48.836   3.927  17.584  0.00  0.00    +0.000 OA
ENDBRANCH  22  32
ENDBRANCH  18  29
ENDBRANCH   1  20
TORSDOF 8
ENDMDL
MODEL 2
REMARK VINA RESULT:    -7.859      1.575      2.616
REMARK INTER + INTRA:         -12.856
REMARK INTER:                 -11.380
REMARK INTRA:                  -1.476
REMARK UNBOUND:                -1.321
REMARK  Name = 
REMARK  10 active torsions:
REMARK  status: ('A' for Active; 'I' for Inactive)
REMARK    1  A    between atoms: C_1  and  O_2
REMARK    2  A    between atoms: O_2  and  C_3
REMARK    3  A    between atoms: C_10  and  C_11
REMARK    4  A    between atoms: N_13  and  C_14
REMARK    5  A    between atoms: C_14  and  C_15
REMARK    6  A    between atoms: C_18  and  C_19
REMARK    7  A    between atoms: C_19  and  O_20
REMARK    8  A    between atoms: O_20  and  C_21
REMARK    9  A    between atoms: C_21  and  C_22
REMARK   10  A    between atoms: C_25  and  C_26
REMARK                            x       y       z     vdW  Elec       q    Type
REMARK                         _______ _______ _______ _____ _____    ______ ____
ROOT
ATOM      1  C   UNL     1      48.410   6.617  13.976  0.00  0.00    +0.000 C 
ENDROOT
BRANCH   1   2
ATOM      2  C   UNL     1      47.178   6.132  13.248  0.00  0.00    +0.000 A 
ATOM      3  C   UNL     1      46.358   5.146  13.814  0.00  0.00    +0.000 A 
ATOM      4  C   UNL     1      45.151   4.782  13.203  0.00  0.00    +0.000 A 
ATOM      5  C   UNL     1      44.741   5.379  12.003  0.00  0.00    +0.000 A 
ATOM      6  C   UNL     1      45.599   6.308  11.398  0.00  0.00    +0.000 A 
ATOM      7  C   UNL     1      46.805   6.678  12.013  0.00  0.00    +0.000 A 
BRANCH   5   8
ATOM      8  C   UNL     1      43.408   5.023  11.385  0.00  0.00    +0.000 C 
BRANCH   8   9
ATOM      9  O   UNL     1      43.620   4.493  10.076  0.00  0.00    +0.000 OA
BRANCH   9  10
ATOM     10  C   UNL     1      44.115   3.152  10.104  0.00  0.00    +0.000 C 
BRANCH  10  11
ATOM     11  C   UNL     1      45.105   2.935   8.993  0.00  0.00    +0.000 A 
ATOM     12  C   UNL     1      45.610   3.987   8.226  0.00  0.00    +0.000 A 
ATOM     13  C   UNL     1      46.553   3.740   7.230  0.00  0.00    +0.000 A 
ATOM     14  C   UNL     1      46.990   2.435   7.027  0.00  0.00    +0.000 A 
ATOM     15  C   UNL     1      47.997   2.119   5.960  0.00  0.00    +0.000 C 
ATOM     16  N   UNL     1      46.538   1.398   7.769  0.00  0.00    +0.000 NA
ATOM     17  C   UNL     1      45.618   1.669   8.727  0.00  0.00    +0.000 A 
ENDBRANCH  10  11
ENDBRANCH   9  10
ENDBRANCH   8   9
ENDBRANCH   5   8
ENDBRANCH   1   2
BRANCH   1  20
ATOM     18  C   UNL     1      48.807   6.401  16.391  0.00  0.00    +0.000 C 
ATOM     19  O   UNL     1      49.662   5.537  16.203  0.00  0.00    +0.000 OA
ATOM     20  N   UNL     1      48.141   6.981  15.343  0.00  0.00    +0.000 N 
ATOM     21  H   UNL     1      47.512   7.753  15.508  0.00  0.00    +0.000 HD
BRANCH  18  29
ATOM     22  C   UNL     1      47.976   9.437  17.764  0.00  0.00    +0.000 A 
ATOM     23  N   UNL     1      47.513  10.456  18.515  0.00  0.00    +0.000 NA
ATOM     24  C   UNL     1      47.170  10.203  19.780  0.00  0.00    +0.000 A 
ATOM     25  N   UNL     1      47.244   9.034  20.410  0.00  0.00    +0.000 NA
ATOM     26  C   UNL     1      47.696   8.041  19.625  0.00  0.00    +0.000 A 
ATOM     27  S   UNL     1      47.883   6.481  20.266  0.00  0.00    +0.000 S 
ATOM     28  C   UNL     1      48.409   5.876  18.766  0.00  0.00    +0.000 A 
ATOM     29  C   UNL     1      48.443   6.828  17.756  0.00  0.00    +0.000 A 
ATOM     30  C   UNL     1      48.062   8.134  18.286  0.00  0.00    +0.000 A 
BRANCH  22  32
ATOM     31  C   UNL     1      49.737  10.194  16.393  0.00  0.00    +0.000 C 
ATOM     32  O   UNL     1      48.405   9.699  16.482  0.00  0.00    +0.000 OA
ENDBRANCH  22  32
ENDBRANCH  18  29
ENDBRANCH   1  20
TORSDOF 8
ENDMDL
MODEL 3
REMARK VINA RESULT:    -7.616      2.167      2.420
REMARK INTER + INTRA:         -12.499
REMARK INTER:                 -11.165
REMARK INTRA:                  -1.334
REMARK UNBOUND:                -1.321
REMARK  Name = 
REMARK  10 active torsions:
REMARK  status: ('A' for Active; 'I' for Inactive)
REMARK    1  A    between atoms: C_1  and  O_2
REMARK    2  A    between atoms: O_2  and  C_3
REMARK    3  A    between atoms: C_10  and  C_11
REMARK    4  A    between atoms: N_13  and  C_14
REMARK    5  A    between atoms: C_14  and  C_15
REMARK    6  A    between atoms: C_18  and  C_19
REMARK    7  A    between atoms: C_19  and  O_20
REMARK    8  A    between atoms: O_20  and  C_21
REMARK    9  A    between atoms: C_21  and  C_22
REMARK   10  A    between atoms: C_25  and  C_26
REMARK                            x       y       z     vdW  Elec       q    Type
REMARK                         _______ _______ _______ _____ _____    ______ ____
ROOT
ATOM      1  C   UNL     1      47.885   7.414  13.948  0.00  0.00    +0.000 C 
ENDROOT
BRANCH   1   2
ATOM      2  C   UNL     1      46.795   6.507  13.429  0.00  0.00    +0.000 A 
ATOM      3  C   UNL     1      46.939   5.113  13.484  0.00  0.00    +0.000 A 
ATOM      4  C   UNL     1      45.883   4.269  13.119  0.00  0.00    +0.000 A 
ATOM      5  C   UNL     1      44.662   4.793  12.673  0.00  0.00    +0.000 A 
ATOM      6  C   UNL     1      44.545   6.184  12.544  0.00  0.00    +0.000 A 
ATOM      7  C   UNL     1      45.601   7.031  12.915  0.00  0.00    +0.000 A 
BRANCH   5   8
ATOM      8  C   UNL     1      43.508   3.874  12.341  0.00  0.00    +0.000 C 
BRANCH   8   9
ATOM      9  O   UNL     1      43.825   3.123  11.167  0.00  0.00    +0.000 OA
BRANCH   9  10
ATOM     10  C   UNL     1      43.890   3.942   9.997  0.00  0.00    +0.000 C 
BRANCH  10  11
ATOM     11  C   UNL     1      44.956   3.439   9.063  0.00  0.00    +0.000 A 
ATOM     12  C   UNL     1      45.295   2.087   8.975  0.00  0.00    +0.000 A 
ATOM     13  C   UNL     1      46.267   1.665   8.070  0.00  0.00    +0.000 A 
ATOM     14  C   UNL     1      46.877   2.609   7.250  0.00  0.00    +0.000 A 
ATOM     15  C   UNL     1      47.935   2.203   6.267  0.00  0.00    +0.000 C 
ATOM     16  N   UNL     1      46.553   3.922   7.295  0.00  0.00    +0.000 NA
ATOM     17  C   UNL     1      45.608   4.302   8.188  0.00  0.00    +0.000 A 
ENDBRANCH  10  11
ENDBRANCH   9  10
ENDBRANCH   8   9
ENDBRANCH   5   8
ENDBRANCH   1   2
BRANCH   1  20
ATOM     18  C   UNL     1      49.180   7.153  16.020  0.00  0.00    +0.000 C 
ATOM     19  O   UNL     1      48.673   8.164  16.500  0.00  0.00    +0.000 OA
ATOM     20  N   UNL     1      48.846   6.718  14.764  0.00  0.00    +0.000 N 
ATOM     21  H   UNL     1      49.200   5.836  14.422  0.00  0.00    +0.000 HD
BRANCH  18  29
ATOM     22  C   UNL     1      49.510   3.819  16.777  0.00  0.00    +0.000 A 
ATOM     23  N   UNL     1      49.935   2.582  17.102  0.00  0.00    +0.000 NA
ATOM     24  C   UNL     1      51.118   2.460  17.707  0.00  0.00    +0.000 A 
ATOM     25  N   UNL     1      51.947   3.443  18.048  0.00  0.00    +0.000 NA
ATOM     26  C   UNL     1      51.495   4.658  17.694  0.00  0.00    +0.000 A 
ATOM     27  S   UNL     1      52.409   6.038  18.072  0.00  0.00    +0.000 S 
ATOM     28  C   UNL     1      51.270   7.056  17.323  0.00  0.00    +0.000 A 
ATOM     29  C   UNL     1      50.192   6.380  16.767  0.00  0.00    +0.000 A 
ATOM     30  C   UNL     1      50.306   4.949  17.034  0.00  0.00    +0.000 A 
BRANCH  22  32
ATOM     31  C   UNL     1      47.197   4.055  17.168  0.00  0.00    +0.000 C 
ATOM     32  O   UNL     1      48.257   3.966  16.222  0.00  0.00    +0.000 OA
ENDBRANCH  22  32
ENDBRANCH  18  29
ENDBRANCH   1  20
TORSDOF 8
ENDMDL
MODEL 4
REMARK VINA RESULT:    -6.962      5.108      9.523
REMARK INTER + INTRA:         -11.538
REMARK INTER:                 -10.535
REMARK INTRA:                  -1.003
REMARK UNBOUND:                -1.321
REMARK  Name = 
REMARK  10 active torsions:
REMARK  status: ('A' for Active; 'I' for Inactive)
REMARK    1  A    between atoms: C_1  and  O_2
REMARK    2  A    between atoms: O_2  and  C_3
REMARK    3  A    between atoms: C_10  and  C_11
REMARK    4  A    between atoms: N_13  and  C_14
REMARK    5  A    between atoms: C_14  and  C_15
REMARK    6  A    between atoms: C_18  and  C_19
REMARK    7  A    between atoms: C_19  and  O_20
REMARK    8  A    between atoms: O_20  and  C_21
REMARK    9  A    between atoms: C_21  and  C_22
REMARK   10  A    between atoms: C_25  and  C_26
REMARK                            x       y       z     vdW  Elec       q    Type
REMARK                         _______ _______ _______ _____ _____    ______ ____
ROOT
ATOM      1  C   UNL     1      47.270   3.456  16.842  0.00  0.00    +0.000 C 
ENDROOT
BRANCH   1   2
ATOM      2  C   UNL     1      48.762   3.431  17.078  0.00  0.00    +0.000 A 
ATOM      3  C   UNL     1      49.449   4.602  17.430  0.00  0.00    +0.000 A 
ATOM      4  C   UNL     1      50.807   4.560  17.770  0.00  0.00    +0.000 A 
ATOM      5  C   UNL     1      51.519   3.353  17.751  0.00  0.00    +0.000 A 
ATOM      6  C   UNL     1      50.851   2.196  17.325  0.00  0.00    +0.000 A 
ATOM      7  C   UNL     1      49.488   2.236  16.990  0.00  0.00    +0.000 A 
BRANCH   5   8
ATOM      8  C   UNL     1      52.968   3.310  18.180  0.00  0.00    +0.000 C 
BRANCH   8   9
ATOM      9  O   UNL     1      53.198   2.127  18.948  0.00  0.00    +0.000 OA
BRANCH   9  10
ATOM     10  C   UNL     1      54.566   1.713  18.915  0.00  0.00    +0.000 C 
BRANCH  10  11
ATOM     11  C   UNL     1      54.735   0.536  17.995  0.00  0.00    +0.000 A 
ATOM     12  C   UNL     1      55.176   0.674  16.677  0.00  0.00    +0.000 A 
ATOM     13  C   UNL     1      55.350  -0.452  15.874  0.00  0.00    +0.000 A 
ATOM     14  C   UNL     1      55.092  -1.708  16.412  0.00  0.00    +0.000 A 
ATOM     15  C   UNL     1      55.256  -2.948  15.582  0.00  0.00    +0.000 C 
ATOM     16  N   UNL     1      54.687  -1.877  17.692  0.00  0.00    +0.000 NA
ATOM     17  C   UNL     1      54.523  -0.764  18.447  0.00  0.00    +0.000 A 
ENDBRANCH  10  11
ENDBRANCH   9  10
ENDBRANCH   8   9
ENDBRANCH   5   8
ENDBRANCH   1   2
BRANCH   1  20
ATOM     18  C   UNL     1      46.880   4.219  14.539  0.00  0.00    +0.000 C 
ATOM     19  O   UNL     1      47.230   3.131  14.088  0.00  0.00    +0.000 OA
ATOM     20  N   UNL     1      46.875   4.460  15.888  0.00  0.00    +0.000 N 
ATOM     21  H   UNL     1      46.496   5.324  16.247  0.00  0.00    +0.000 HD
BRANCH  18  29
ATOM     22  C   UNL     1      44.132   4.751  12.549  0.00  0.00    +0.000 A 
ATOM     23  N   UNL     1      43.132   5.254  11.798  0.00  0.00    +0.000 NA
ATOM     24  C   UNL     1      43.270   6.487  11.308  0.00  0.00    +0.000 A 
ATOM     25  N   UNL     1      44.311   7.299  11.466  0.00  0.00    +0.000 NA
ATOM     26  C   UNL     1      45.280   6.769  12.232  0.00  0.00    +0.000 A 
ATOM     27  S   UNL     1      46.700   7.651  12.523  0.00  0.00    +0.000 S 
ATOM     28  C   UNL     1      47.325   6.412  13.507  0.00  0.00    +0.000 A 
ATOM     29  C   UNL     1      46.477   5.322  13.644  0.00  0.00    +0.000 A 
ATOM     30  C   UNL     1      45.275   5.517  12.840  0.00  0.00    +0.000 A 
BRANCH  22  32
ATOM     31  C   UNL     1      43.474   2.541  12.058  0.00  0.00    +0.000 C 
ATOM     32  O   UNL     1      44.037   3.452  12.997  0.00  0.00    +0.000 OA
ENDBRANCH  22  32
ENDBRANCH  18  29
ENDBRANCH   1  20
TORSDOF 8
ENDMDL
MODEL 5
REMARK VINA RESULT:    -6.630      3.821      8.908
REMARK INTER + INTRA:         -11.052
REMARK INTER:                  -9.691
REMARK INTRA:                  -1.361
REMARK UNBOUND:                -1.321
REMARK  Name = 
REMARK  10 active torsions:
REMARK  status: ('A' for Active; 'I' for Inactive)
REMARK    1  A    between atoms: C_1  and  O_2
REMARK    2  A    between atoms: O_2  and  C_3
REMARK    3  A    between atoms: C_10  and  C_11
REMARK    4  A    between atoms: N_13  and  C_14
REMARK    5  A    between atoms: C_14  and  C_15
REMARK    6  A    between atoms: C_18  and  C_19
REMARK    7  A    between atoms: C_19  and  O_20
REMARK    8  A    between atoms: O_20  and  C_21
REMARK    9  A    between atoms: C_21  and  C_22
REMARK   10  A    between atoms: C_25  and  C_26
REMARK                            x       y       z     vdW  Elec       q    Type
REMARK                         _______ _______ _______ _____ _____    ______ ____
ROOT
ATOM      1  C   UNL     1      47.372   3.256  17.048  0.00  0.00    +0.000 C 
ENDROOT
BRANCH   1   2
ATOM      2  C   UNL     1      48.832   3.266  17.435  0.00  0.00    +0.000 A 
ATOM      3  C   UNL     1      49.670   2.198  17.088  0.00  0.00    +0.000 A 
ATOM      4  C   UNL     1      51.048   2.260  17.336  0.00  0.00    +0.000 A 
ATOM      5  C   UNL     1      51.620   3.380  17.952  0.00  0.00    +0.000 A 
ATOM      6  C   UNL     1      50.771   4.415  18.369  0.00  0.00    +0.000 A 
ATOM      7  C   UNL     1      49.391   4.357  18.115  0.00  0.00    +0.000 A 
BRANCH   5   8
ATOM      8  C   UNL     1      53.116   3.462  18.158  0.00  0.00    +0.000 C 
BRANCH   8   9
ATOM      9  O   UNL     1      53.527   4.829  18.098  0.00  0.00    +0.000 OA
BRANCH   9  10
ATOM     10  C   UNL     1      54.564   5.045  17.138  0.00  0.00    +0.000 C 
BRANCH  10  11
ATOM     11  C   UNL     1      54.136   6.072  16.126  0.00  0.00    +0.000 A 
ATOM     12  C   UNL     1      52.973   6.830  16.277  0.00  0.00    +0.000 A 
ATOM     13  C   UNL     1      52.636   7.795  15.329  0.00  0.00    +0.000 A 
ATOM     14  C   UNL     1      53.485   7.997  14.245  0.00  0.00    +0.000 A 
ATOM     15  C   UNL     1      53.159   9.017  13.194  0.00  0.00    +0.000 C 
ATOM     16  N   UNL     1      54.631   7.295  14.083  0.00  0.00    +0.000 NA
ATOM     17  C   UNL     1      54.928   6.362  15.019  0.00  0.00    +0.000 A 
ENDBRANCH  10  11
ENDBRANCH   9  10
ENDBRANCH   8   9
ENDBRANCH   5   8
ENDBRANCH   1   2
BRANCH   1  20
ATOM     18  C   UNL     1      47.093   4.113  14.762  0.00  0.00    +0.000 C 
ATOM     19  O   UNL     1      47.443   3.036  14.284  0.00  0.00    +0.000 OA
ATOM     20  N   UNL     1      47.035   4.303  16.118  0.00  0.00    +0.000 N 
ATOM     21  H   UNL     1      46.657   5.160  16.495  0.00  0.00    +0.000 HD
BRANCH  18  29
ATOM     22  C   UNL     1      44.540   4.697  12.541  0.00  0.00    +0.000 A 
ATOM     23  N   UNL     1      43.604   5.220  11.723  0.00  0.00    +0.000 NA
ATOM     24  C   UNL     1      43.754   6.483  11.319  0.00  0.00    +0.000 A 
ATOM     25  N   UNL     1      44.750   7.308  11.626  0.00  0.00    +0.000 NA
ATOM     26  C   UNL     1      45.654   6.756  12.454  0.00  0.00    +0.000 A 
ATOM     27  S   UNL     1      47.013   7.653  12.934  0.00  0.00    +0.000 S 
ATOM     28  C   UNL     1      47.574   6.373  13.904  0.00  0.00    +0.000 A 
ATOM     29  C   UNL     1      46.749   5.257  13.894  0.00  0.00    +0.000 A 
ATOM     30  C   UNL     1      45.626   5.471  12.987  0.00  0.00    +0.000 A 
BRANCH  22  32
ATOM     31  C   UNL     1      43.482   2.626  12.159  0.00  0.00    +0.000 C 
ATOM     32  O   UNL     1      44.439   3.372  12.904  0.00  0.00    +0.000 OA
ENDBRANCH  22  32
ENDBRANCH  18  29
ENDBRANCH   1  20
TORSDOF 8
ENDMDL
MODEL 6
REMARK VINA RESULT:    -6.185      4.266      9.156
REMARK INTER + INTRA:         -10.399
REMARK INTER:                  -8.425
REMARK INTRA:                  -1.974
REMARK UNBOUND:                -1.321
REMARK  Name = 
REMARK  10 active torsions:
REMARK  status: ('A' for Active; 'I' for Inactive)
REMARK    1  A    between atoms: C_1  and  O_2
REMARK    2  A    between atoms: O_2  and  C_3
REMARK    3  A    between atoms: C_10  and  C_11
REMARK    4  A    between atoms: N_13  and  C_14
REMARK    5  A    between atoms: C_14  and  C_15
REMARK    6  A    between atoms: C_18  and  C_19
REMARK    7  A    between atoms: C_19  and  O_20
REMARK    8  A    between atoms: O_20  and  C_21
REMARK    9  A    between atoms: C_21  and  C_22
REMARK   10  A    between atoms: C_25  and  C_26
REMARK                            x       y       z     vdW  Elec       q    Type
REMARK                         _______ _______ _______ _____ _____    ______ ____
ROOT
ATOM      1  C   UNL     1      47.462   3.375  17.126  0.00  0.00    +0.000 C 
ENDROOT
BRANCH   1   2
ATOM      2  C   UNL     1      48.953   3.272  17.342  0.00  0.00    +0.000 A 
ATOM      3  C   UNL     1      49.652   4.291  18.004  0.00  0.00    +0.000 A 
ATOM      4  C   UNL     1      51.009   4.143  18.315  0.00  0.00    +0.000 A 
ATOM      5  C   UNL     1      51.709   2.983  17.958  0.00  0.00    +0.000 A 
ATOM      6  C   UNL     1      51.030   1.997  17.228  0.00  0.00    +0.000 A 
ATOM      7  C   UNL     1      49.668   2.142  16.921  0.00  0.00    +0.000 A 
BRANCH   5   8
ATOM      8  C   UNL     1      53.158   2.808  18.354  0.00  0.00    +0.000 C 
BRANCH   8   9
ATOM      9  O   UNL     1      53.984   3.564  17.467  0.00  0.00    +0.000 OA
BRANCH   9  10
ATOM     10  C   UNL     1      54.614   4.670  18.119  0.00  0.00    +0.000 C 
BRANCH  10  11
ATOM     11  C   UNL     1      54.055   5.968  17.608  0.00  0.00    +0.000 A 
ATOM     12  C   UNL     1      53.595   6.120  16.297  0.00  0.00    +0.000 A 
ATOM     13  C   UNL     1      53.054   7.334  15.880  0.00  0.00    +0.000 A 
ATOM     14  C   UNL     1      52.966   8.381  16.792  0.00  0.00    +0.000 A 
ATOM     15  C   UNL     1      52.399   9.709  16.385  0.00  0.00    +0.000 C 
ATOM     16  N   UNL     1      53.381   8.258  18.074  0.00  0.00    +0.000 NA
ATOM     17  C   UNL     1      53.907   7.067  18.449  0.00  0.00    +0.000 A 
ENDBRANCH  10  11
ENDBRANCH   9  10
ENDBRANCH   8   9
ENDBRANCH   5   8
ENDBRANCH   1   2
BRANCH   1  20
ATOM     18  C   UNL     1      47.086   4.146  14.823  0.00  0.00    +0.000 C 
ATOM     19  O   UNL     1      47.376   3.039  14.374  0.00  0.00    +0.000 OA
ATOM     20  N   UNL     1      47.108   4.393  16.171  0.00  0.00    +0.000 N 
ATOM     21  H   UNL     1      46.776   5.277  16.529  0.00  0.00    +0.000 HD
BRANCH  18  29
ATOM     22  C   UNL     1      48.655   7.083  13.985  0.00  0.00    +0.000 A 
ATOM     23  N   UNL     1      49.097   8.218  13.405  0.00  0.00    +0.000 NA
ATOM     24  C   UNL     1      48.344   8.775  12.455  0.00  0.00    +0.000 A 
ATOM     25  N   UNL     1      47.170   8.340  12.006  0.00  0.00    +0.000 NA
ATOM     26  C   UNL     1      46.771   7.200  12.597  0.00  0.00    +0.000 A 
ATOM     27  S   UNL     1      45.281   6.508  12.170  0.00  0.00    +0.000 S 
ATOM     28  C   UNL     1      45.525   5.208  13.239  0.00  0.00    +0.000 A 
ATOM     29  C   UNL     1      46.730   5.263  13.926  0.00  0.00    +0.000 A 
ATOM     30  C   UNL     1      47.451   6.482  13.575  0.00  0.00    +0.000 A 
BRANCH  22  32
ATOM     31  C   UNL     1      49.363   7.301  16.223  0.00  0.00    +0.000 C 
ATOM     32  O   UNL     1      49.384   6.539  15.019  0.00  0.00    +0.000 OA
ENDBRANCH  22  32
ENDBRANCH  18  29
ENDBRANCH   1  20
TORSDOF 8
ENDMDL
MODEL 7
REMARK VINA RESULT:    -6.149      2.744      9.123
REMARK INTER + INTRA:         -10.345
REMARK INTER:                  -8.760
REMARK INTRA:                  -1.585
REMARK UNBOUND:                -1.321
REMARK  Name = 
REMARK  10 active torsions:
REMARK  status: ('A' for Active; 'I' for Inactive)
REMARK    1  A    between atoms: C_1  and  O_2
REMARK    2  A    between atoms: O_2  and  C_3
REMARK    3  A    between atoms: C_10  and  C_11
REMARK    4  A    between atoms: N_13  and  C_14
REMARK    5  A    between atoms: C_14  and  C_15
REMARK    6  A    between atoms: C_18  and  C_19
REMARK    7  A    between atoms: C_19  and  O_20
REMARK    8  A    between atoms: O_20  and  C_21
REMARK    9  A    between atoms: C_21  and  C_22
REMARK   10  A    between atoms: C_25  and  C_26
REMARK                            x       y       z     vdW  Elec       q    Type
REMARK                         _______ _______ _______ _____ _____    ______ ____
ROOT
ATOM      1  C   UNL     1      48.184   7.767  11.742  0.00  0.00    +0.000 C 
ENDROOT
BRANCH   1   2
ATOM      2  C   UNL     1      48.719   8.151  13.102  0.00  0.00    +0.000 A 
ATOM      3  C   UNL     1      50.072   7.964  13.416  0.00  0.00    +0.000 A 
ATOM      4  C   UNL     1      50.597   8.431  14.628  0.00  0.00    +0.000 A 
ATOM      5  C   UNL     1      49.781   9.080  15.565  0.00  0.00    +0.000 A 
ATOM      6  C   UNL     1      48.413   9.198  15.284  0.00  0.00    +0.000 A 
ATOM      7  C   UNL     1      47.887   8.736  14.067  0.00  0.00    +0.000 A 
BRANCH   5   8
ATOM      8  C   UNL     1      50.371   9.635  16.842  0.00  0.00    +0.000 C 
BRANCH   8   9
ATOM      9  O   UNL     1      50.684   8.556  17.725  0.00  0.00    +0.000 OA
BRANCH   9  10
ATOM     10  C   UNL     1      49.596   8.231  18.595  0.00  0.00    +0.000 C 
BRANCH  10  11
ATOM     11  C   UNL     1      49.020   6.890  18.234  0.00  0.00    +0.000 A 
ATOM     12  C   UNL     1      49.698   5.980  17.420  0.00  0.00    +0.000 A 
ATOM     13  C   UNL     1      49.137   4.734  17.142  0.00  0.00    +0.000 A 
ATOM     14  C   UNL     1      47.904   4.412  17.701  0.00  0.00    +0.000 A 
ATOM     15  C   UNL     1      47.258   3.087  17.422  0.00  0.00    +0.000 C 
ATOM     16  N   UNL     1      47.235   5.263  18.513  0.00  0.00    +0.000 NA
ATOM     17  C   UNL     1      47.803   6.467  18.761  0.00  0.00    +0.000 A 
ENDBRANCH  10  11
ENDBRANCH   9  10
ENDBRANCH   8   9
ENDBRANCH   5   8
ENDBRANCH   1   2
BRANCH   1  20
ATOM     18  C   UNL     1      45.909   6.845  11.635  0.00  0.00    +0.000 C 
ATOM     19  O   UNL     1      45.434   7.961  11.437  0.00  0.00    +0.000 OA
ATOM     20  N   UNL     1      47.258   6.666  11.799  0.00  0.00    +0.000 N 
ATOM     21  H   UNL     1      47.642   5.734  11.866  0.00  0.00    +0.000 HD
BRANCH  18  29
ATOM     22  C   UNL     1      45.249   4.234   9.504  0.00  0.00    +0.000 A 
ATOM     23  N   UNL     1      44.911   3.064   8.925  0.00  0.00    +0.000 NA
ATOM     24  C   UNL     1      44.130   2.225   9.607  0.00  0.00    +0.000 A 
ATOM     25  N   UNL     1      43.620   2.414  10.821  0.00  0.00    +0.000 NA
ATOM     26  C   UNL     1      43.991   3.584  11.370  0.00  0.00    +0.000 A 
ATOM     27  S   UNL     1      43.414   4.011  12.908  0.00  0.00    +0.000 S 
ATOM     28  C   UNL     1      44.293   5.467  12.886  0.00  0.00    +0.000 A 
ATOM     29  C   UNL     1      45.042   5.653  11.732  0.00  0.00    +0.000 A 
ATOM     30  C   UNL     1      44.821   4.547  10.806  0.00  0.00    +0.000 A 
BRANCH  22  32
ATOM     31  C   UNL     1      46.658   4.594   7.649  0.00  0.00    +0.000 C 
ATOM     32  O   UNL     1      45.991   5.142   8.781  0.00  0.00    +0.000 OA
ENDBRANCH  22  32
ENDBRANCH  18  29
ENDBRANCH   1  20
TORSDOF 8
ENDMDL
MODEL 8
REMARK VINA RESULT:    -6.083      2.580      3.017
REMARK INTER + INTRA:         -10.248
REMARK INTER:                  -9.673
REMARK INTRA:                  -0.575
REMARK UNBOUND:                -1.321
REMARK  Name = 
REMARK  10 active torsions:
REMARK  status: ('A' for Active; 'I' for Inactive)
REMARK    1  A    between atoms: C_1  and  O_2
REMARK    2  A    between atoms: O_2  and  C_3
REMARK    3  A    between atoms: C_10  and  C_11
REMARK    4  A    between atoms: N_13  and  C_14
REMARK    5  A    between atoms: C_14  and  C_15
REMARK    6  A    between atoms: C_18  and  C_19
REMARK    7  A    between atoms: C_19  and  O_20
REMARK    8  A    between atoms: O_20  and  C_21
REMARK    9  A    between atoms: C_21  and  C_22
REMARK   10  A    between atoms: C_25  and  C_26
REMARK                            x       y       z     vdW  Elec       q    Type
REMARK                         _______ _______ _______ _____ _____    ______ ____
ROOT
ATOM      1  C   UNL     1      48.417   8.482  14.474  0.00  0.00    +0.000 C 
ENDROOT
BRANCH   1   2
ATOM      2  C   UNL     1      47.752   7.357  13.716  0.00  0.00    +0.000 A 
ATOM      3  C   UNL     1      47.530   6.116  14.329  0.00  0.00    +0.000 A 
ATOM      4  C   UNL     1      46.805   5.113  13.674  0.00  0.00    +0.000 A 
ATOM      5  C   UNL     1      46.298   5.316  12.383  0.00  0.00    +0.000 A 
ATOM      6  C   UNL     1      46.586   6.528  11.741  0.00  0.00    +0.000 A 
ATOM      7  C   UNL     1      47.308   7.536  12.399  0.00  0.00    +0.000 A 
BRANCH   5   8
ATOM      8  C   UNL     1      45.465   4.249  11.710  0.00  0.00    +0.000 C 
BRANCH   8   9
ATOM      9  O   UNL     1      44.119   4.713  11.580  0.00  0.00    +0.000 OA
BRANCH   9  10
ATOM     10  C   UNL     1      43.672   4.717  10.222  0.00  0.00    +0.000 C 
BRANCH  10  11
ATOM     11  C   UNL     1      44.569   3.860   9.373  0.00  0.00    +0.000 A 
ATOM     12  C   UNL     1      45.479   4.403   8.463  0.00  0.00    +0.000 A 
ATOM     13  C   UNL     1      46.314   3.568   7.722  0.00  0.00    +0.000 A 
ATOM     14  C   UNL     1      46.234   2.193   7.916  0.00  0.00    +0.000 A 
ATOM     15  C   UNL     1      47.105   1.255   7.135  0.00  0.00    +0.000 C 
ATOM     16  N   UNL     1      45.379   1.638   8.807  0.00  0.00    +0.000 NA
ATOM     17  C   UNL     1      44.578   2.475   9.509  0.00  0.00    +0.000 A 
ENDBRANCH  10  11
ENDBRANCH   9  10
ENDBRANCH   8   9
ENDBRANCH   5   8
ENDBRANCH   1   2
BRANCH   1  20
ATOM     18  C   UNL     1      50.782   7.872  14.746  0.00  0.00    +0.000 C 
ATOM     19  O   UNL     1      51.007   8.100  13.559  0.00  0.00    +0.000 OA
ATOM     20  N   UNL     1      49.527   8.033  15.274  0.00  0.00    +0.000 N 
ATOM     21  H   UNL     1      49.379   7.934  16.268  0.00  0.00    +0.000 HD
BRANCH  18  29
ATOM     22  C   UNL     1      50.945   5.325  17.044  0.00  0.00    +0.000 A 
ATOM     23  N   UNL     1      51.310   4.346  17.896  0.00  0.00    +0.000 NA
ATOM     24  C   UNL     1      52.574   4.320  18.322  0.00  0.00    +0.000 A 
ATOM     25  N   UNL     1      53.543   5.174  18.006  0.00  0.00    +0.000 NA
ATOM     26  C   UNL     1      53.145   6.125  17.144  0.00  0.00    +0.000 A 
ATOM     27  S   UNL     1      54.240   7.323  16.646  0.00  0.00    +0.000 S 
ATOM     28  C   UNL     1      53.074   8.038  15.636  0.00  0.00    +0.000 A 
ATOM     29  C   UNL     1      51.848   7.387  15.645  0.00  0.00    +0.000 A 
ATOM     30  C   UNL     1      51.879   6.272  16.586  0.00  0.00    +0.000 A 
BRANCH  22  32
ATOM     31  C   UNL     1      48.689   5.348  17.728  0.00  0.00    +0.000 C 
ATOM     32  O   UNL     1      49.626   5.411  16.657  0.00  0.00    +0.000 OA
ENDBRANCH  22  32
ENDBRANCH  18  29
ENDBRANCH   1  20
TORSDOF 8
ENDMDL
MODEL 9
REMARK VINA RESULT:    -6.064      3.467      8.664
REMARK INTER + INTRA:         -10.221
REMARK INTER:                  -8.759
REMARK INTRA:                  -1.463
REMARK UNBOUND:                -1.321
REMARK  Name = 
REMARK  10 active torsions:
REMARK  status: ('A' for Active; 'I' for Inactive)
REMARK    1  A    between atoms: C_1  and  O_2
REMARK    2  A    between atoms: O_2  and  C_3
REMARK    3  A    between atoms: C_10  and  C_11
REMARK    4  A    between atoms: N_13  and  C_14
REMARK    5  A    between atoms: C_14  and  C_15
REMARK    6  A    between atoms: C_18  and  C_19
REMARK    7  A    between atoms: C_19  and  O_20
REMARK    8  A    between atoms: O_20  and  C_21
REMARK    9  A    between atoms: C_21  and  C_22
REMARK   10  A    between atoms: C_25  and  C_26
REMARK                            x       y       z     vdW  Elec       q    Type
REMARK                         _______ _______ _______ _____ _____    ______ ____
ROOT
ATOM      1  C   UNL     1      47.116   8.681  12.942  0.00  0.00    +0.000 C 
ENDROOT
BRANCH   1   2
ATOM      2  C   UNL     1      48.374   8.232  13.647  0.00  0.00    +0.000 A 
ATOM      3  C   UNL     1      49.612   8.813  13.337  0.00  0.00    +0.000 A 
ATOM      4  C   UNL     1      50.759   8.489  14.072  0.00  0.00    +0.000 A 
ATOM      5  C   UNL     1      50.705   7.565  15.124  0.00  0.00    +0.000 A 
ATOM      6  C   UNL     1      49.483   6.927  15.383  0.00  0.00    +0.000 A 
ATOM      7  C   UNL     1      48.332   7.256  14.651  0.00  0.00    +0.000 A 
BRANCH   5   8
ATOM      8  C   UNL     1      51.936   7.269  15.951  0.00  0.00    +0.000 C 
BRANCH   8   9
ATOM      9  O   UNL     1      51.621   7.419  17.336  0.00  0.00    +0.000 OA
BRANCH   9  10
ATOM     10  C   UNL     1      51.877   6.228  18.085  0.00  0.00    +0.000 C 
BRANCH  10  11
ATOM     11  C   UNL     1      50.682   5.316  18.044  0.00  0.00    +0.000 A 
ATOM     12  C   UNL     1      49.465   5.651  18.643  0.00  0.00    +0.000 A 
ATOM     13  C   UNL     1      48.376   4.787  18.548  0.00  0.00    +0.000 A 
ATOM     14  C   UNL     1      48.518   3.600  17.837  0.00  0.00    +0.000 A 
ATOM     15  C   UNL     1      47.376   2.635  17.717  0.00  0.00    +0.000 C 
ATOM     16  N   UNL     1      49.677   3.258  17.227  0.00  0.00    +0.000 NA
ATOM     17  C   UNL     1      50.719   4.116  17.340  0.00  0.00    +0.000 A 
ENDBRANCH  10  11
ENDBRANCH   9  10
ENDBRANCH   8   9
ENDBRANCH   5   8
ENDBRANCH   1   2
BRANCH   1  20
ATOM     18  C   UNL     1      46.859   6.825  11.352  0.00  0.00    +0.000 C 
ATOM     19  O   UNL     1      47.959   7.059  10.856  0.00  0.00    +0.000 OA
ATOM     20  N   UNL     1      46.370   7.583  12.384  0.00  0.00    +0.000 N 
ATOM     21  H   UNL     1      45.509   7.321  12.842  0.00  0.00    +0.000 HD
BRANCH  18  29
ATOM     22  C   UNL     1      44.969   4.395  12.876  0.00  0.00    +0.000 A 
ATOM     23  N   UNL     1      44.076   3.442  13.208  0.00  0.00    +0.000 NA
ATOM     24  C   UNL     1      43.431   2.811  12.224  0.00  0.00    +0.000 A 
ATOM     25  N   UNL     1      43.578   3.007  10.917  0.00  0.00    +0.000 NA
ATOM     26  C   UNL     1      44.465   3.974  10.627  0.00  0.00    +0.000 A 
ATOM     27  S   UNL     1      44.803   4.347   9.006  0.00  0.00    +0.000 S 
ATOM     28  C   UNL     1      45.887   5.575   9.464  0.00  0.00    +0.000 A 
ATOM     29  C   UNL     1      46.006   5.735  10.838  0.00  0.00    +0.000 A 
ATOM     30  C   UNL     1      45.191   4.743  11.531  0.00  0.00    +0.000 A 
BRANCH  22  32
ATOM     31  C   UNL     1      46.789   4.229  14.364  0.00  0.00    +0.000 C 
ATOM     32  O   UNL     1      45.696   5.001  13.876  0.00  0.00    +0.000 OA
ENDBRANCH  22  32
ENDBRANCH  18  29
ENDBRANCH   1  20
TORSDOF 8
ENDMDL
