MODEL 1
REMARK VINA RESULT:    -7.735      0.000      0.000
REMARK INTER + INTRA:         -12.998
REMARK INTER:                 -11.805
REMARK INTRA:                  -1.193
REMARK UNBOUND:                -1.193
REMARK  Name = 
REMARK  11 active torsions:
REMARK  status: ('A' for Active; 'I' for Inactive)
REMARK    1  A    between atoms: C_1  and  C_2
REMARK    2  A    between atoms: C_2  and  C_3
REMARK    3  A    between atoms: C_3  and  C_4
REMARK    4  A    between atoms: C_3  and  N_6
REMARK    5  A    between atoms: C_4  and  C_5
REMARK    6  A    between atoms: N_6  and  C_7
REMARK    7  A    between atoms: C_7  and  C_8
REMARK    8  A    between atoms: C_11  and  C_12
REMARK    9  A    between atoms: C_12  and  O_13
REMARK   10  A    between atoms: O_13  and  C_14
REMARK   11  A    between atoms: C_17  and  C_18
REMARK                            x       y       z     vdW  Elec       q    Type
REMARK                         _______ _______ _______ _____ _____    ______ ____
ROOT
ATOM      1  C   UNL     1      47.009   5.613  13.605  0.00  0.00    +0.000 A 
ATOM      2  C   UNL     1      46.151   6.479  12.912  0.00  0.00    +0.000 A 
ATOM      3  C   UNL     1      45.030   5.988  12.236  0.00  0.00    +0.000 A 
ATOM      4  C   UNL     1      44.743   4.617  12.237  0.00  0.00    +0.000 A 
ATOM      5  C   UNL     1      45.612   3.746  12.904  0.00  0.00    +0.000 A 
ATOM      6  C   UNL     1      46.727   4.239  13.589  0.00  0.00    +0.000 A 
ENDROOT
BRANCH   1   7
ATOM      7  C   UNL     1      48.226   6.140  14.337  0.00  0.00    +0.000 C 
BRANCH   7   8
ATOM      8  N   UNL     1      47.981   6.235  15.777  0.00  0.00    +0.000 NA
ATOM      9  H   UNL     1      48.412   7.092  16.122  0.00  0.00    +0.000 HD
BRANCH   8  10
ATOM     10  C   UNL     1      48.491   5.097  16.559  0.00  0.00    +0.000 C 
BRANCH  10  12
ATOM     11  C   UNL     1      50.710   4.492  17.741  0.00  0.00    +0.000 C 
ATOM     12  C   UNL     1      49.759   5.595  17.293  0.00  0.00    +0.000 C 
ENDBRANCH  10  12
BRANCH  10  13
ATOM     13  C   UNL     1      47.440   4.479  17.506  0.00  0.00    +0.000 C 
ATOM     14  C   UNL     1      47.340   2.961  17.447  0.00  0.00    +0.000 C 
ENDBRANCH  10  13
ENDBRANCH   8  10
ENDBRANCH   7   8
ENDBRANCH   1   7
BRANCH   4  15
ATOM     15  C   UNL     1      43.520   4.091  11.525  0.00  0.00    +0.000 C 
BRANCH  15  16
ATOM     16  O   UNL     1      43.605   4.422  10.139  0.00  0.00    +0.000 OA
BRANCH  16  17
ATOM     17  C   UNL     1      44.493   3.699   9.390  0.00  0.00    +0.000 A 
ATOM     18  C   UNL     1      44.659   2.313   9.427  0.00  0.00    +0.000 A 
ATOM     19  C   UNL     1      45.612   1.695   8.612  0.00  0.00    +0.000 A 
ATOM     20  C   UNL     1      46.403   2.455   7.741  0.00  0.00    +0.000 A 
ATOM     21  C   UNL     1      46.247   3.845   7.707  0.00  0.00    +0.000 A 
ATOM     22  C   UNL     1      45.294   4.458   8.530  0.00  0.00    +0.000 A 
BRANCH  20  23
ATOM     23  C   UNL     1      47.403   1.744   6.900  0.00  0.00    +0.000 C 
ATOM     24  N   UNL     1      48.502   2.442   6.494  0.00  0.00    +0.000 N 
ATOM     25  O   UNL     1      47.234   0.580   6.551  0.00  0.00    +0.000 OA
ATOM     26  H   UNL     1      48.566   3.448   6.557  0.00  0.00    +0.000 HD
ATOM     27  H   UNL     1      49.113   1.972   5.837  0.00  0.00    +0.000 HD
ENDBRANCH  20  23
ENDBRANCH  16  17
ENDBRANCH  15  16
ENDBRANCH   4  15
TORSDOF 9
ENDMDL
MODEL 2
REMARK VINA RESULT:    -7.642      1.976      3.342
REMARK INTER + INTRA:         -12.856
REMARK INTER:                 -11.392
REMARK INTRA:                  -1.464
REMARK UNBOUND:                -1.193
REMARK  Name = 
REMARK  11 active torsions:
REMARK  status: ('A' for Active; 'I' for Inactive)
REMARK    1  A    between atoms: C_1  and  C_2
REMARK    2  A    between atoms: C_2  and  C_3
REMARK    3  A    between atoms: C_3  and  C_4
REMARK    4  A    between atoms: C_3  and  N_6
REMARK    5  A    between atoms: C_4  and  C_5
REMARK    6  A    between atoms: N_6  and  C_7
REMARK    7  A    between atoms: C_7  and  C_8
REMARK    8  A    between atoms: C_11  and  C_12
REMARK    9  A    between atoms: C_12  and  O_13
REMARK   10  A    between atoms: O_13  and  C_14
REMARK   11  A    between atoms: C_17  and  C_18
REMARK                            x       y       z     vdW  Elec       q    Type
REMARK                         _______ _______ _______ _____ _____    ______ ____
ROOT
ATOM      1  C   UNL     1      47.019   5.930  13.300  0.00  0.00    +0.000 A 
ATOM      2  C   UNL     1      46.577   4.616  13.512  0.00  0.00    +0.000 A 
ATOM      3  C   UNL     1      45.439   4.130  12.863  0.00  0.00    +0.000 A 
ATOM      4  C   UNL     1      44.714   4.948  11.988  0.00  0.00    +0.000 A 
ATOM      5  C   UNL     1      45.135   6.269  11.795  0.00  0.00    +0.000 A 
ATOM      6  C   UNL     1      46.280   6.752  12.436  0.00  0.00    +0.000 A 
ENDROOT
BRANCH   1   7
ATOM      7  C   UNL     1      48.251   6.463  14.002  0.00  0.00    +0.000 C 
BRANCH   7   8
ATOM      8  N   UNL     1      49.351   6.674  13.061  0.00  0.00    +0.000 NA
ATOM      9  H   UNL     1      50.134   6.083  13.339  0.00  0.00    +0.000 HD
BRANCH   8  10
ATOM     10  C   UNL     1      49.817   8.067  12.969  0.00  0.00    +0.000 C 
BRANCH  10  12
ATOM     11  C   UNL     1      51.179   7.548  10.833  0.00  0.00    +0.000 C 
ATOM     12  C   UNL     1      50.055   8.358  11.467  0.00  0.00    +0.000 C 
ENDBRANCH  10  12
BRANCH  10  13
ATOM     13  C   UNL     1      48.866   9.080  13.642  0.00  0.00    +0.000 C 
ATOM     14  C   UNL     1      48.124   9.997  12.679  0.00  0.00    +0.000 C 
ENDBRANCH  10  13
ENDBRANCH   8  10
ENDBRANCH   7   8
ENDBRANCH   1   7
BRANCH   4  15
ATOM     15  C   UNL     1      43.498   4.415  11.272  0.00  0.00    +0.000 C 
BRANCH  15  16
ATOM     16  O   UNL     1      43.654   4.619   9.868  0.00  0.00    +0.000 OA
BRANCH  16  17
ATOM     17  C   UNL     1      44.517   3.778   9.219  0.00  0.00    +0.000 A 
ATOM     18  C   UNL     1      44.573   2.390   9.362  0.00  0.00    +0.000 A 
ATOM     19  C   UNL     1      45.513   1.645   8.644  0.00  0.00    +0.000 A 
ATOM     20  C   UNL     1      46.400   2.277   7.764  0.00  0.00    +0.000 A 
ATOM     21  C   UNL     1      46.354   3.668   7.624  0.00  0.00    +0.000 A 
ATOM     22  C   UNL     1      45.414   4.410   8.351  0.00  0.00    +0.000 A 
BRANCH  20  23
ATOM     23  C   UNL     1      47.380   1.433   7.029  0.00  0.00    +0.000 C 
ATOM     24  N   UNL     1      48.485   2.046   6.515  0.00  0.00    +0.000 N 
ATOM     25  O   UNL     1      47.190   0.234   6.857  0.00  0.00    +0.000 OA
ATOM     26  H   UNL     1      48.565   3.049   6.428  0.00  0.00    +0.000 HD
ATOM     27  H   UNL     1      49.082   1.474   5.930  0.00  0.00    +0.000 HD
ENDBRANCH  20  23
ENDBRANCH  16  17
ENDBRANCH  15  16
ENDBRANCH   4  15
TORSDOF 9
ENDMDL
MODEL 3
REMARK VINA RESULT:    -7.637      0.278      1.415
REMARK INTER + INTRA:         -12.848
REMARK INTER:                 -11.661
REMARK INTRA:                  -1.187
REMARK UNBOUND:                -1.193
REMARK  Name = 
REMARK  11 active torsions:
REMARK  status: ('A' for Active; 'I' for Inactive)
REMARK    1  A    between atoms: C_1  and  C_2
REMARK    2  A    between atoms: C_2  and  C_3
REMARK    3  A    between atoms: C_3  and  C_4
REMARK    4  A    between atoms: C_3  and  N_6
REMARK    5  A    between atoms: C_4  and  C_5
REMARK    6  A    between atoms: N_6  and  C_7
REMARK    7  A    between atoms: C_7  and  C_8
REMARK    8  A    between atoms: C_11  and  C_12
REMARK    9  A    between atoms: C_12  and  O_13
REMARK   10  A    between atoms: O_13  and  C_14
REMARK   11  A    between atoms: C_17  and  C_18
REMARK                            x       y       z     vdW  Elec       q    Type
REMARK                         _______ _______ _______ _____ _____    ______ ____
ROOT
ATOM      1  C   UNL     1      46.993   5.604  13.608  0.00  0.00    +0.000 A 
ATOM      2  C   UNL     1      46.689   4.237  13.545  0.00  0.00    +0.000 A 
ATOM      3  C   UNL     1      45.566   3.785  12.847  0.00  0.00    +0.000 A 
ATOM      4  C   UNL     1      44.718   4.692  12.198  0.00  0.00    +0.000 A 
ATOM      5  C   UNL     1      45.003   6.060  12.282  0.00  0.00    +0.000 A 
ATOM      6  C   UNL     1      46.133   6.511  12.972  0.00  0.00    +0.000 A 
ENDROOT
BRANCH   1   7
ATOM      7  C   UNL     1      48.209   6.099  14.365  0.00  0.00    +0.000 C 
BRANCH   7   8
ATOM      8  N   UNL     1      47.923   6.248  15.793  0.00  0.00    +0.000 NA
ATOM      9  H   UNL     1      48.288   7.147  16.104  0.00  0.00    +0.000 HD
BRANCH   8  10
ATOM     10  C   UNL     1      48.487   5.185  16.642  0.00  0.00    +0.000 C 
BRANCH  10  12
ATOM     11  C   UNL     1      50.990   5.190  17.290  0.00  0.00    +0.000 C 
ATOM     12  C   UNL     1      49.622   5.835  17.471  0.00  0.00    +0.000 C 
ENDBRANCH  10  12
BRANCH  10  13
ATOM     13  C   UNL     1      47.433   4.465  17.510  0.00  0.00    +0.000 C 
ATOM     14  C   UNL     1      47.440   2.946  17.394  0.00  0.00    +0.000 C 
ENDBRANCH  10  13
ENDBRANCH   8  10
ENDBRANCH   7   8
ENDBRANCH   1   7
BRANCH   4  15
ATOM     15  C   UNL     1      43.518   4.201  11.427  0.00  0.00    +0.000 C 
BRANCH  15  16
ATOM     16  O   UNL     1      43.644   4.597  10.061  0.00  0.00    +0.000 OA
BRANCH  16  17
ATOM     17  C   UNL     1      44.556   3.910   9.306  0.00  0.00    +0.000 A 
ATOM     18  C   UNL     1      45.476   4.472   8.420  0.00  0.00    +0.000 A 
ATOM     19  C   UNL     1      46.352   3.654   7.699  0.00  0.00    +0.000 A 
ATOM     20  C   UNL     1      46.326   2.264   7.866  0.00  0.00    +0.000 A 
ATOM     21  C   UNL     1      45.399   1.695   8.747  0.00  0.00    +0.000 A 
ATOM     22  C   UNL     1      44.521   2.519   9.461  0.00  0.00    +0.000 A 
BRANCH  20  23
ATOM     23  C   UNL     1      47.278   1.444   7.071  0.00  0.00    +0.000 C 
ATOM     24  N   UNL     1      48.369   2.071   6.543  0.00  0.00    +0.000 N 
ATOM     25  O   UNL     1      47.078   0.252   6.863  0.00  0.00    +0.000 OA
ATOM     26  H   UNL     1      48.450   3.077   6.489  0.00  0.00    +0.000 HD
ATOM     27  H   UNL     1      48.943   1.518   5.919  0.00  0.00    +0.000 HD
ENDBRANCH  20  23
ENDBRANCH  16  17
ENDBRANCH  15  16
ENDBRANCH   4  15
TORSDOF 9
ENDMDL
MODEL 4
REMARK VINA RESULT:    -7.516      2.050      3.745
REMARK INTER + INTRA:         -12.664
REMARK INTER:                 -11.316
REMARK INTRA:                  -1.348
REMARK UNBOUND:                -1.193
REMARK  Name = 
REMARK  11 active torsions:
REMARK  status: ('A' for Active; 'I' for Inactive)
REMARK    1  A    between atoms: C_1  and  C_2
REMARK    2  A    between atoms: C_2  and  C_3
REMARK    3  A    between atoms: C_3  and  C_4
REMARK    4  A    between atoms: C_3  and  N_6
REMARK    5  A    between atoms: C_4  and  C_5
REMARK    6  A    between atoms: N_6  and  C_7
REMARK    7  A    between atoms: C_7  and  C_8
REMARK    8  A    between atoms: C_11  and  C_12
REMARK    9  A    between atoms: C_12  and  O_13
REMARK   10  A    between atoms: O_13  and  C_14
REMARK   11  A    between atoms: C_17  and  C_18
REMARK                            x       y       z     vdW  Elec       q    Type
REMARK                         _______ _______ _______ _____ _____    ______ ____
ROOT
ATOM      1  C   UNL     1      47.030   6.031  13.274  0.00  0.00    +0.000 A 
ATOM      2  C   UNL     1      46.934   4.635  13.373  0.00  0.00    +0.000 A 
ATOM      3  C   UNL     1      45.836   3.954  12.839  0.00  0.00    +0.000 A 
ATOM      4  C   UNL     1      44.808   4.654  12.197  0.00  0.00    +0.000 A 
ATOM      5  C   UNL     1      44.886   6.049  12.120  0.00  0.00    +0.000 A 
ATOM      6  C   UNL     1      45.989   6.730  12.645  0.00  0.00    +0.000 A 
ENDROOT
BRANCH   1   7
ATOM      7  C   UNL     1      48.216   6.775  13.853  0.00  0.00    +0.000 C 
BRANCH   7   8
ATOM      8  N   UNL     1      49.390   6.661  12.986  0.00  0.00    +0.000 NA
ATOM      9  H   UNL     1      50.215   6.541  13.572  0.00  0.00    +0.000 HD
BRANCH   8  10
ATOM     10  C   UNL     1      49.603   7.813  12.094  0.00  0.00    +0.000 C 
BRANCH  10  12
ATOM     11  C   UNL     1      48.115   9.906  11.796  0.00  0.00    +0.000 C 
ATOM     12  C   UNL     1      48.901   9.023  12.756  0.00  0.00    +0.000 C 
ENDBRANCH  10  12
BRANCH  10  13
ATOM     13  C   UNL     1      51.090   8.074  11.768  0.00  0.00    +0.000 C 
ATOM     14  C   UNL     1      51.579   7.444  10.471  0.00  0.00    +0.000 C 
ENDBRANCH  10  13
ENDBRANCH   8  10
ENDBRANCH   7   8
ENDBRANCH   1   7
BRANCH   4  15
ATOM     15  C   UNL     1      43.634   3.914  11.602  0.00  0.00    +0.000 C 
BRANCH  15  16
ATOM     16  O   UNL     1      43.522   4.248  10.218  0.00  0.00    +0.000 OA
BRANCH  16  17
ATOM     17  C   UNL     1      44.475   3.729   9.384  0.00  0.00    +0.000 A 
ATOM     18  C   UNL     1      45.248   4.451   8.473  0.00  0.00    +0.000 A 
ATOM     19  C   UNL     1      46.186   3.796   7.670  0.00  0.00    +0.000 A 
ATOM     20  C   UNL     1      46.372   2.412   7.777  0.00  0.00    +0.000 A 
ATOM     21  C   UNL     1      45.593   1.683   8.682  0.00  0.00    +0.000 A 
ATOM     22  C   UNL     1      44.651   2.344   9.480  0.00  0.00    +0.000 A 
BRANCH  20  23
ATOM     23  C   UNL     1      47.381   1.769   6.895  0.00  0.00    +0.000 C 
ATOM     24  N   UNL     1      48.482   2.499   6.553  0.00  0.00    +0.000 N 
ATOM     25  O   UNL     1      47.220   0.635   6.457  0.00  0.00    +0.000 OA
ATOM     26  H   UNL     1      48.543   3.498   6.692  0.00  0.00    +0.000 HD
ATOM     27  H   UNL     1      49.101   2.081   5.868  0.00  0.00    +0.000 HD
ENDBRANCH  20  23
ENDBRANCH  16  17
ENDBRANCH  15  16
ENDBRANCH   4  15
TORSDOF 9
ENDMDL
MODEL 5
REMARK VINA RESULT:    -6.953      1.980      3.047
REMARK INTER + INTRA:         -11.805
REMARK INTER:                 -10.663
REMARK INTRA:                  -1.142
REMARK UNBOUND:                -1.193
REMARK  Name = 
REMARK  11 active torsions:
REMARK  status: ('A' for Active; 'I' for Inactive)
REMARK    1  A    between atoms: C_1  and  C_2
REMARK    2  A    between atoms: C_2  and  C_3
REMARK    3  A    between atoms: C_3  and  C_4
REMARK    4  A    between atoms: C_3  and  N_6
REMARK    5  A    between atoms: C_4  and  C_5
REMARK    6  A    between atoms: N_6  and  C_7
REMARK    7  A    between atoms: C_7  and  C_8
REMARK    8  A    between atoms: C_11  and  C_12
REMARK    9  A    between atoms: C_12  and  O_13
REMARK   10  A    between atoms: O_13  and  C_14
REMARK   11  A    between atoms: C_17  and  C_18
REMARK                            x       y       z     vdW  Elec       q    Type
REMARK                         _______ _______ _______ _____ _____    ______ ____
ROOT
ATOM      1  C   UNL     1      46.659   5.650  13.473  0.00  0.00    +0.000 A 
ATOM      2  C   UNL     1      45.535   6.276  12.916  0.00  0.00    +0.000 A 
ATOM      3  C   UNL     1      44.523   5.524  12.312  0.00  0.00    +0.000 A 
ATOM      4  C   UNL     1      44.614   4.128  12.249  0.00  0.00    +0.000 A 
ATOM      5  C   UNL     1      45.748   3.501  12.780  0.00  0.00    +0.000 A 
ATOM      6  C   UNL     1      46.755   4.253  13.393  0.00  0.00    +0.000 A 
ENDROOT
BRANCH   1   7
ATOM      7  C   UNL     1      47.760   6.460  14.127  0.00  0.00    +0.000 C 
BRANCH   7   8
ATOM      8  N   UNL     1      47.777   7.836  13.626  0.00  0.00    +0.000 NA
ATOM      9  H   UNL     1      47.513   7.825  12.642  0.00  0.00    +0.000 HD
BRANCH   8  10
ATOM     10  C   UNL     1      49.074   8.518  13.764  0.00  0.00    +0.000 C 
BRANCH  10  12
ATOM     11  C   UNL     1      49.941   7.685  11.474  0.00  0.00    +0.000 C 
ATOM     12  C   UNL     1      49.540   8.878  12.332  0.00  0.00    +0.000 C 
ENDBRANCH  10  12
BRANCH  10  13
ATOM     13  C   UNL     1      49.034   9.733  14.715  0.00  0.00    +0.000 C 
ATOM     14  C   UNL     1      48.561   9.421  16.129  0.00  0.00    +0.000 C 
ENDBRANCH  10  13
ENDBRANCH   8  10
ENDBRANCH   7   8
ENDBRANCH   1   7
BRANCH   4  15
ATOM     15  C   UNL     1      43.510   3.316  11.616  0.00  0.00    +0.000 C 
BRANCH  15  16
ATOM     16  O   UNL     1      43.369   3.702  10.249  0.00  0.00    +0.000 OA
BRANCH  16  17
ATOM     17  C   UNL     1      44.403   3.379   9.413  0.00  0.00    +0.000 A 
ATOM     18  C   UNL     1      45.141   4.276   8.638  0.00  0.00    +0.000 A 
ATOM     19  C   UNL     1      46.172   3.813   7.814  0.00  0.00    +0.000 A 
ATOM     20  C   UNL     1      46.486   2.449   7.765  0.00  0.00    +0.000 A 
ATOM     21  C   UNL     1      45.743   1.546   8.534  0.00  0.00    +0.000 A 
ATOM     22  C   UNL     1      44.708   2.015   9.352  0.00  0.00    +0.000 A 
BRANCH  20  23
ATOM     23  C   UNL     1      47.590   2.014   6.869  0.00  0.00    +0.000 C 
ATOM     24  N   UNL     1      48.318   2.983   6.243  0.00  0.00    +0.000 N 
ATOM     25  O   UNL     1      47.821   0.827   6.667  0.00  0.00    +0.000 OA
ATOM     26  H   UNL     1      48.019   3.947   6.193  0.00  0.00    +0.000 HD
ATOM     27  H   UNL     1      48.991   2.664   5.557  0.00  0.00    +0.000 HD
ENDBRANCH  20  23
ENDBRANCH  16  17
ENDBRANCH  15  16
ENDBRANCH   4  15
TORSDOF 9
ENDMDL
MODEL 6
REMARK VINA RESULT:    -6.481      3.238      8.988
REMARK INTER + INTRA:         -11.084
REMARK INTER:                 -10.347
REMARK INTRA:                  -0.737
REMARK UNBOUND:                -1.193
REMARK  Name = 
REMARK  11 active torsions:
REMARK  status: ('A' for Active; 'I' for Inactive)
REMARK    1  A    between atoms: C_1  and  C_2
REMARK    2  A    between atoms: C_2  and  C_3
REMARK    3  A    between atoms: C_3  and  C_4
REMARK    4  A    between atoms: C_3  and  N_6
REMARK    5  A    between atoms: C_4  and  C_5
REMARK    6  A    between atoms: N_6  and  C_7
REMARK    7  A    between atoms: C_7  and  C_8
REMARK    8  A    between atoms: C_11  and  C_12
REMARK    9  A    between atoms: C_12  and  O_13
REMARK   10  A    between atoms: O_13  and  C_14
REMARK   11  A    between atoms: C_17  and  C_18
REMARK                            x       y       z     vdW  Elec       q    Type
REMARK                         _______ _______ _______ _____ _____    ______ ____
ROOT
ATOM      1  C   UNL     1      45.053   4.252  10.034  0.00  0.00    +0.000 A 
ATOM      2  C   UNL     1      45.623   5.510  10.274  0.00  0.00    +0.000 A 
ATOM      3  C   UNL     1      46.093   5.852  11.546  0.00  0.00    +0.000 A 
ATOM      4  C   UNL     1      45.999   4.944  12.607  0.00  0.00    +0.000 A 
ATOM      5  C   UNL     1      45.405   3.697  12.378  0.00  0.00    +0.000 A 
ATOM      6  C   UNL     1      44.945   3.352  11.104  0.00  0.00    +0.000 A 
ENDROOT
BRANCH   1   7
ATOM      7  C   UNL     1      44.540   3.878   8.658  0.00  0.00    +0.000 C 
BRANCH   7   8
ATOM      8  N   UNL     1      45.603   3.957   7.655  0.00  0.00    +0.000 NA
ATOM      9  H   UNL     1      45.182   3.874   6.730  0.00  0.00    +0.000 HD
BRANCH   8  10
ATOM     10  C   UNL     1      46.652   2.934   7.794  0.00  0.00    +0.000 C 
BRANCH  10  12
ATOM     11  C   UNL     1      46.778   0.351   7.739  0.00  0.00    +0.000 C 
ATOM     12  C   UNL     1      45.928   1.584   8.018  0.00  0.00    +0.000 C 
ENDBRANCH  10  12
BRANCH  10  13
ATOM     13  C   UNL     1      47.645   2.904   6.613  0.00  0.00    +0.000 C 
ATOM     14  C   UNL     1      46.998   2.835   5.236  0.00  0.00    +0.000 C 
ENDBRANCH  10  13
ENDBRANCH   8  10
ENDBRANCH   7   8
ENDBRANCH   1   7
BRANCH   4  15
ATOM     15  C   UNL     1      46.526   5.306  13.974  0.00  0.00    +0.000 C 
BRANCH  15  16
ATOM     16  O   UNL     1      47.289   4.214  14.487  0.00  0.00    +0.000 OA
BRANCH  16  17
ATOM     17  C   UNL     1      47.667   4.294  15.800  0.00  0.00    +0.000 A 
ATOM     18  C   UNL     1      47.568   3.272  16.746  0.00  0.00    +0.000 A 
ATOM     19  C   UNL     1      47.984   3.488  18.063  0.00  0.00    +0.000 A 
ATOM     20  C   UNL     1      48.516   4.725  18.448  0.00  0.00    +0.000 A 
ATOM     21  C   UNL     1      48.609   5.755  17.506  0.00  0.00    +0.000 A 
ATOM     22  C   UNL     1      48.185   5.535  16.190  0.00  0.00    +0.000 A 
BRANCH  20  23
ATOM     23  C   UNL     1      48.938   4.898  19.863  0.00  0.00    +0.000 C 
ATOM     24  N   UNL     1      48.606   3.915  20.749  0.00  0.00    +0.000 N 
ATOM     25  O   UNL     1      49.535   5.902  20.235  0.00  0.00    +0.000 OA
ATOM     26  H   UNL     1      47.924   3.199  20.543  0.00  0.00    +0.000 HD
ATOM     27  H   UNL     1      48.809   4.104  21.724  0.00  0.00    +0.000 HD
ENDBRANCH  20  23
ENDBRANCH  16  17
ENDBRANCH  15  16
ENDBRANCH   4  15
TORSDOF 9
ENDMDL
MODEL 7
REMARK VINA RESULT:    -5.652      3.601      8.309
REMARK INTER + INTRA:          -9.820
REMARK INTER:                  -8.777
REMARK INTRA:                  -1.043
REMARK UNBOUND:                -1.193
REMARK  Name = 
REMARK  11 active torsions:
REMARK  status: ('A' for Active; 'I' for Inactive)
REMARK    1  A    between atoms: C_1  and  C_2
REMARK    2  A    between atoms: C_2  and  C_3
REMARK    3  A    between atoms: C_3  and  C_4
REMARK    4  A    between atoms: C_3  and  N_6
REMARK    5  A    between atoms: C_4  and  C_5
REMARK    6  A    between atoms: N_6  and  C_7
REMARK    7  A    between atoms: C_7  and  C_8
REMARK    8  A    between atoms: C_11  and  C_12
REMARK    9  A    between atoms: C_12  and  O_13
REMARK   10  A    between atoms: O_13  and  C_14
REMARK   11  A    between atoms: C_17  and  C_18
REMARK                            x       y       z     vdW  Elec       q    Type
REMARK                         _______ _______ _______ _____ _____    ______ ____
ROOT
ATOM      1  C   UNL     1      45.934   6.873  12.256  0.00  0.00    +0.000 A 
ATOM      2  C   UNL     1      46.909   5.922  12.588  0.00  0.00    +0.000 A 
ATOM      3  C   UNL     1      47.904   6.214  13.526  0.00  0.00    +0.000 A 
ATOM      4  C   UNL     1      47.949   7.467  14.149  0.00  0.00    +0.000 A 
ATOM      5  C   UNL     1      46.994   8.429  13.800  0.00  0.00    +0.000 A 
ATOM      6  C   UNL     1      45.992   8.133  12.871  0.00  0.00    +0.000 A 
ENDROOT
BRANCH   1   7
ATOM      7  C   UNL     1      44.854   6.562  11.240  0.00  0.00    +0.000 C 
BRANCH   7   8
ATOM      8  N   UNL     1      45.349   5.665  10.195  0.00  0.00    +0.000 NA
ATOM      9  H   UNL     1      45.362   6.173   9.312  0.00  0.00    +0.000 HD
BRANCH   8  10
ATOM     10  C   UNL     1      44.560   4.434  10.024  0.00  0.00    +0.000 C 
BRANCH  10  12
ATOM     11  C   UNL     1      45.340   2.367   8.680  0.00  0.00    +0.000 C 
ATOM     12  C   UNL     1      44.955   3.840   8.650  0.00  0.00    +0.000 C 
ENDBRANCH  10  12
BRANCH  10  13
ATOM     13  C   UNL     1      44.720   3.433  11.189  0.00  0.00    +0.000 C 
ATOM     14  C   UNL     1      43.450   3.180  11.992  0.00  0.00    +0.000 C 
ENDBRANCH  10  13
ENDBRANCH   8  10
ENDBRANCH   7   8
ENDBRANCH   1   7
BRANCH   4  15
ATOM     15  C   UNL     1      49.011   7.773  15.177  0.00  0.00    +0.000 C 
BRANCH  15  16
ATOM     16  O   UNL     1      48.672   7.134  16.407  0.00  0.00    +0.000 OA
BRANCH  16  17
ATOM     17  C   UNL     1      49.387   6.013  16.732  0.00  0.00    +0.000 A 
ATOM     18  C   UNL     1      50.766   5.952  16.937  0.00  0.00    +0.000 A 
ATOM     19  C   UNL     1      51.378   4.736  17.258  0.00  0.00    +0.000 A 
ATOM     20  C   UNL     1      50.615   3.568  17.389  0.00  0.00    +0.000 A 
ATOM     21  C   UNL     1      49.233   3.624  17.176  0.00  0.00    +0.000 A 
ATOM     22  C   UNL     1      48.628   4.843  16.849  0.00  0.00    +0.000 A 
BRANCH  20  23
ATOM     23  C   UNL     1      51.320   2.304  17.729  0.00  0.00    +0.000 C 
ATOM     24  N   UNL     1      52.370   2.376  18.597  0.00  0.00    +0.000 N 
ATOM     25  O   UNL     1      50.996   1.235  17.222  0.00  0.00    +0.000 OA
ATOM     26  H   UNL     1      52.813   3.248  18.850  0.00  0.00    +0.000 HD
ATOM     27  H   UNL     1      52.900   1.522  18.729  0.00  0.00    +0.000 HD
ENDBRANCH  20  23
ENDBRANCH  16  17
ENDBRANCH  15  16
ENDBRANCH   4  15
TORSDOF 9
ENDMDL
MODEL 8
REMARK VINA RESULT:    -5.584      1.451      2.257
REMARK INTER + INTRA:          -9.716
REMARK INTER:                  -8.488
REMARK INTRA:                  -1.228
REMARK UNBOUND:                -1.193
REMARK  Name = 
REMARK  11 active torsions:
REMARK  status: ('A' for Active; 'I' for Inactive)
REMARK    1  A    between atoms: C_1  and  C_2
REMARK    2  A    between atoms: C_2  and  C_3
REMARK    3  A    between atoms: C_3  and  C_4
REMARK    4  A    between atoms: C_3  and  N_6
REMARK    5  A    between atoms: C_4  and  C_5
REMARK    6  A    between atoms: N_6  and  C_7
REMARK    7  A    between atoms: C_7  and  C_8
REMARK    8  A    between atoms: C_11  and  C_12
REMARK    9  A    between atoms: C_12  and  O_13
REMARK   10  A    between atoms: O_13  and  C_14
REMARK   11  A    between atoms: C_17  and  C_18
REMARK                            x       y       z     vdW  Elec       q    Type
REMARK                         _______ _______ _______ _____ _____    ______ ____
ROOT
ATOM      1  C   UNL     1      47.843   7.216  13.831  0.00  0.00    +0.000 A 
ATOM      2  C   UNL     1      46.852   8.053  13.298  0.00  0.00    +0.000 A 
ATOM      3  C   UNL     1      45.716   7.517  12.685  0.00  0.00    +0.000 A 
ATOM      4  C   UNL     1      45.546   6.131  12.588  0.00  0.00    +0.000 A 
ATOM      5  C   UNL     1      46.546   5.291  13.094  0.00  0.00    +0.000 A 
ATOM      6  C   UNL     1      47.677   5.828  13.717  0.00  0.00    +0.000 A 
ENDROOT
BRANCH   1   7
ATOM      7  C   UNL     1      49.077   7.791  14.495  0.00  0.00    +0.000 C 
BRANCH   7   8
ATOM      8  N   UNL     1      48.760   8.361  15.805  0.00  0.00    +0.000 NA
ATOM      9  H   UNL     1      49.004   9.350  15.795  0.00  0.00    +0.000 HD
BRANCH   8  10
ATOM     10  C   UNL     1      49.447   7.713  16.934  0.00  0.00    +0.000 C 
BRANCH  10  12
ATOM     11  C   UNL     1      49.331   5.136  17.122  0.00  0.00    +0.000 C 
ATOM     12  C   UNL     1      48.610   6.465  17.307  0.00  0.00    +0.000 C 
ENDBRANCH  10  12
BRANCH  10  13
ATOM     13  C   UNL     1      50.930   7.390  16.650  0.00  0.00    +0.000 C 
ATOM     14  C   UNL     1      51.897   7.811  17.749  0.00  0.00    +0.000 C 
ENDBRANCH  10  13
ENDBRANCH   8  10
ENDBRANCH   7   8
ENDBRANCH   1   7
BRANCH   4  15
ATOM     15  C   UNL     1      44.308   5.554  11.945  0.00  0.00    +0.000 C 
BRANCH  15  16
ATOM     16  O   UNL     1      44.419   5.669  10.527  0.00  0.00    +0.000 OA
BRANCH  16  17
ATOM     17  C   UNL     1      44.901   4.576   9.859  0.00  0.00    +0.000 A 
ATOM     18  C   UNL     1      44.643   3.242  10.178  0.00  0.00    +0.000 A 
ATOM     19  C   UNL     1      45.206   2.213   9.416  0.00  0.00    +0.000 A 
ATOM     20  C   UNL     1      46.025   2.507   8.318  0.00  0.00    +0.000 A 
ATOM     21  C   UNL     1      46.293   3.843   8.001  0.00  0.00    +0.000 A 
ATOM     22  C   UNL     1      45.731   4.868   8.772  0.00  0.00    +0.000 A 
BRANCH  20  23
ATOM     23  C   UNL     1      46.598   1.373   7.547  0.00  0.00    +0.000 C 
ATOM     24  N   UNL     1      47.229   1.659   6.372  0.00  0.00    +0.000 N 
ATOM     25  O   UNL     1      46.482   0.214   7.931  0.00  0.00    +0.000 OA
ATOM     26  H   UNL     1      47.144   2.553   5.908  0.00  0.00    +0.000 HD
ATOM     27  H   UNL     1      47.517   0.864   5.814  0.00  0.00    +0.000 HD
ENDBRANCH  20  23
ENDBRANCH  16  17
ENDBRANCH  15  16
ENDBRANCH   4  15
TORSDOF 9
ENDMDL
MODEL 9
REMARK VINA RESULT:    -5.486      3.714      5.602
REMARK INTER + INTRA:          -9.566
REMARK INTER:                  -8.384
REMARK INTRA:                  -1.182
REMARK UNBOUND:                -1.193
REMARK  Name = 
REMARK  11 active torsions:
REMARK  status: ('A' for Active; 'I' for Inactive)
REMARK    1  A    between atoms: C_1  and  C_2
REMARK    2  A    between atoms: C_2  and  C_3
REMARK    3  A    between atoms: C_3  and  C_4
REMARK    4  A    between atoms: C_3  and  N_6
REMARK    5  A    between atoms: C_4  and  C_5
REMARK    6  A    between atoms: N_6  and  C_7
REMARK    7  A    between atoms: C_7  and  C_8
REMARK    8  A    between atoms: C_11  and  C_12
REMARK    9  A    between atoms: C_12  and  O_13
REMARK   10  A    between atoms: O_13  and  C_14
REMARK   11  A    between atoms: C_17  and  C_18
REMARK                            x       y       z     vdW  Elec       q    Type
REMARK                         _______ _______ _______ _____ _____    ______ ____
ROOT
ATOM      1  C   UNL     1      50.608   5.741  17.604  0.00  0.00    +0.000 A 
ATOM      2  C   UNL     1      49.221   5.614  17.435  0.00  0.00    +0.000 A 
ATOM      3  C   UNL     1      48.583   6.158  16.317  0.00  0.00    +0.000 A 
ATOM      4  C   UNL     1      49.318   6.845  15.343  0.00  0.00    +0.000 A 
ATOM      5  C   UNL     1      50.698   6.999  15.521  0.00  0.00    +0.000 A 
ATOM      6  C   UNL     1      51.337   6.445  16.635  0.00  0.00    +0.000 A 
ENDROOT
BRANCH   1   7
ATOM      7  C   UNL     1      51.304   5.155  18.815  0.00  0.00    +0.000 C 
BRANCH   7   8
ATOM      8  N   UNL     1      51.132   3.703  18.877  0.00  0.00    +0.000 NA
ATOM      9  H   UNL     1      51.520   3.369  19.758  0.00  0.00    +0.000 HD
BRANCH   8  10
ATOM     10  C   UNL     1      51.762   2.966  17.769  0.00  0.00    +0.000 C 
BRANCH  10  12
ATOM     11  C   UNL     1      53.517   1.078  17.974  0.00  0.00    +0.000 C 
ATOM     12  C   UNL     1      53.162   2.531  18.265  0.00  0.00    +0.000 C 
ENDBRANCH  10  12
BRANCH  10  13
ATOM     13  C   UNL     1      50.908   1.792  17.245  0.00  0.00    +0.000 C 
ATOM     14  C   UNL     1      49.491   2.167  16.830  0.00  0.00    +0.000 C 
ENDBRANCH  10  13
ENDBRANCH   8  10
ENDBRANCH   7   8
ENDBRANCH   1   7
BRANCH   4  15
ATOM     15  C   UNL     1      48.630   7.413  14.125  0.00  0.00    +0.000 C 
BRANCH  15  16
ATOM     16  O   UNL     1      48.504   6.390  13.138  0.00  0.00    +0.000 OA
BRANCH  16  17
ATOM     17  C   UNL     1      47.235   5.949  12.872  0.00  0.00    +0.000 A 
ATOM     18  C   UNL     1      46.531   4.990  13.603  0.00  0.00    +0.000 A 
ATOM     19  C   UNL     1      45.239   4.621  13.219  0.00  0.00    +0.000 A 
ATOM     20  C   UNL     1      44.629   5.215  12.106  0.00  0.00    +0.000 A 
ATOM     21  C   UNL     1      45.335   6.170  11.366  0.00  0.00    +0.000 A 
ATOM     22  C   UNL     1      46.632   6.531  11.752  0.00  0.00    +0.000 A 
BRANCH  20  23
ATOM     23  C   UNL     1      43.255   4.781  11.743  0.00  0.00    +0.000 C 
ATOM     24  N   UNL     1      43.000   3.441  11.714  0.00  0.00    +0.000 N 
ATOM     25  O   UNL     1      42.384   5.592  11.445  0.00  0.00    +0.000 OA
ATOM     26  H   UNL     1      43.731   2.743  11.720  0.00  0.00    +0.000 HD
ATOM     27  H   UNL     1      42.091   3.166  11.361  0.00  0.00    +0.000 HD
ENDBRANCH  20  23
ENDBRANCH  16  17
ENDBRANCH  15  16
ENDBRANCH   4  15
TORSDOF 9
ENDMDL
