MODEL 1
REMARK VINA RESULT:    -8.429      0.000      0.000
REMARK INTER + INTRA:         -10.985
REMARK INTER:                 -10.400
REMARK INTRA:                  -0.585
REMARK UNBOUND:                -0.585
REMARK  Name = 
REMARK  4 active torsions:
REMARK  status: ('A' for Active; 'I' for Inactive)
REMARK    1  A    between atoms: C_2  and  C_4
REMARK    2  A    between atoms: N_8  and  C_9
REMARK    3  A    between atoms: C_9  and  C_10
REMARK    4  A    between atoms: C_14  and  C_15
REMARK                            x       y       z     vdW  Elec       q    Type
REMARK                         _______ _______ _______ _____ _____    ______ ____
ROOT
ATOM      1  C   UNL     1      46.579   2.506   7.281  0.00  0.00    +0.000 A 
ATOM      2  C   UNL     1      46.054   3.735   7.660  0.00  0.00    +0.000 A 
ATOM      3  C   UNL     1      45.194   3.798   8.754  0.00  0.00    +0.000 A 
ATOM      4  C   UNL     1      44.870   2.638   9.453  0.00  0.00    +0.000 A 
ATOM      5  N   UNL     1      44.103   2.626  10.582  0.00  0.00    +0.000 N 
ATOM      6  N   UNL     1      45.340   1.436   9.064  0.00  0.00    +0.000 NA
ATOM      7  C   UNL     1      46.175   1.389   7.990  0.00  0.00    +0.000 A 
ATOM      8  H   UNL     1      43.908   1.694  10.924  0.00  0.00    +0.000 HD
ENDROOT
BRANCH   1  10
ATOM      9  N   UNL     1      47.457   3.281   5.157  0.00  0.00    +0.000 N 
ATOM     10  C   UNL     1      47.533   2.359   6.166  0.00  0.00    +0.000 C 
ATOM     11  O   UNL     1      48.381   1.476   6.158  0.00  0.00    +0.000 OA
ATOM     12  H   UNL     1      48.181   3.238   4.450  0.00  0.00    +0.000 HD
ATOM     13  H   UNL     1      46.955   4.153   5.253  0.00  0.00    +0.000 HD
ENDBRANCH   1  10
BRANCH   5  14
ATOM     14  C   UNL     1      43.417   3.755  11.168  0.00  0.00    +0.000 C 
BRANCH  14  15
ATOM     15  C   UNL     1      44.356   4.708  11.857  0.00  0.00    +0.000 A 
ATOM     16  C   UNL     1      45.194   4.258  12.867  0.00  0.00    +0.000 A 
ATOM     17  N   UNL     1      46.050   5.047  13.547  0.00  0.00    +0.000 NA
ATOM     18  C   UNL     1      46.070   6.361  13.205  0.00  0.00    +0.000 A 
ATOM     19  C   UNL     1      45.263   6.952  12.230  0.00  0.00    +0.000 A 
ATOM     20  C   UNL     1      44.385   6.081  11.568  0.00  0.00    +0.000 A 
BRANCH  19  21
ATOM     21  C   UNL     1      45.325   8.392  11.911  0.00  0.00    +0.000 A 
ATOM     22  C   UNL     1      44.304   9.043  11.198  0.00  0.00    +0.000 A 
ATOM     23  C   UNL     1      44.383  10.408  10.923  0.00  0.00    +0.000 A 
ATOM     24  C   UNL     1      45.496  11.101  11.358  0.00  0.00    +0.000 A 
ATOM     25  N   UNL     1      46.509  10.530  12.038  0.00  0.00    +0.000 NA
ATOM     26  C   UNL     1      46.395   9.202  12.298  0.00  0.00    +0.000 A 
ENDBRANCH  19  21
ENDBRANCH  14  15
ENDBRANCH   5  14
TORSDOF 4
ENDMDL
MODEL 2
REMARK VINA RESULT:    -8.415      1.906      3.709
REMARK INTER + INTRA:         -10.967
REMARK INTER:                 -10.440
REMARK INTRA:                  -0.528
REMARK UNBOUND:                -0.585
REMARK  Name = 
REMARK  4 active torsions:
REMARK  status: ('A' for Active; 'I' for Inactive)
REMARK    1  A    between atoms: C_2  and  C_4
REMARK    2  A    between atoms: N_8  and  C_9
REMARK    3  A    between atoms: C_9  and  C_10
REMARK    4  A    between atoms: C_14  and  C_15
REMARK                            x       y       z     vdW  Elec       q    Type
REMARK                         _______ _______ _______ _____ _____    ______ ____
ROOT
ATOM      1  C   UNL     1      46.629   2.499   7.182  0.00  0.00    +0.000 A 
ATOM      2  C   UNL     1      46.032   3.712   7.506  0.00  0.00    +0.000 A 
ATOM      3  C   UNL     1      45.209   3.786   8.627  0.00  0.00    +0.000 A 
ATOM      4  C   UNL     1      44.993   2.654   9.408  0.00  0.00    +0.000 A 
ATOM      5  N   UNL     1      44.269   2.662  10.566  0.00  0.00    +0.000 N 
ATOM      6  N   UNL     1      45.532   1.464   9.075  0.00  0.00    +0.000 NA
ATOM      7  C   UNL     1      46.329   1.405   7.975  0.00  0.00    +0.000 A 
ATOM      8  H   UNL     1      44.152   1.742  10.972  0.00  0.00    +0.000 HD
ENDROOT
BRANCH   1  10
ATOM      9  N   UNL     1      47.453   3.270   5.035  0.00  0.00    +0.000 N 
ATOM     10  C   UNL     1      47.550   2.346   6.041  0.00  0.00    +0.000 C 
ATOM     11  O   UNL     1      48.391   1.458   6.009  0.00  0.00    +0.000 OA
ATOM     12  H   UNL     1      48.157   3.222   4.309  0.00  0.00    +0.000 HD
ATOM     13  H   UNL     1      46.960   4.145   5.146  0.00  0.00    +0.000 HD
ENDBRANCH   1  10
BRANCH   5  14
ATOM     14  C   UNL     1      43.527   3.777  11.108  0.00  0.00    +0.000 C 
BRANCH  14  15
ATOM     15  C   UNL     1      44.417   4.815  11.736  0.00  0.00    +0.000 A 
ATOM     16  C   UNL     1      44.454   6.105  11.226  0.00  0.00    +0.000 A 
ATOM     17  N   UNL     1      45.235   7.089  11.716  0.00  0.00    +0.000 NA
ATOM     18  C   UNL     1      46.029   6.769  12.770  0.00  0.00    +0.000 A 
ATOM     19  C   UNL     1      46.111   5.508  13.363  0.00  0.00    +0.000 A 
ATOM     20  C   UNL     1      45.283   4.524  12.799  0.00  0.00    +0.000 A 
BRANCH  19  21
ATOM     21  C   UNL     1      47.002   5.219  14.503  0.00  0.00    +0.000 A 
ATOM     22  C   UNL     1      46.856   4.066  15.292  0.00  0.00    +0.000 A 
ATOM     23  C   UNL     1      47.724   3.813  16.355  0.00  0.00    +0.000 A 
ATOM     24  C   UNL     1      48.720   4.731  16.621  0.00  0.00    +0.000 A 
ATOM     25  N   UNL     1      48.904   5.857  15.905  0.00  0.00    +0.000 NA
ATOM     26  C   UNL     1      48.050   6.068  14.871  0.00  0.00    +0.000 A 
ENDBRANCH  19  21
ENDBRANCH  14  15
ENDBRANCH   5  14
TORSDOF 4
ENDMDL
MODEL 3
REMARK VINA RESULT:    -7.889      3.008      7.193
REMARK INTER + INTRA:         -10.319
REMARK INTER:                  -9.616
REMARK INTRA:                  -0.703
REMARK UNBOUND:                -0.585
REMARK  Name = 
REMARK  4 active torsions:
REMARK  status: ('A' for Active; 'I' for Inactive)
REMARK    1  A    between atoms: C_2  and  C_4
REMARK    2  A    between atoms: N_8  and  C_9
REMARK    3  A    between atoms: C_9  and  C_10
REMARK    4  A    between atoms: C_14  and  C_15
REMARK                            x       y       z     vdW  Elec       q    Type
REMARK                         _______ _______ _______ _____ _____    ______ ____
ROOT
ATOM      1  C   UNL     1      49.305   7.586  12.863  0.00  0.00    +0.000 A 
ATOM      2  C   UNL     1      48.646   7.672  11.643  0.00  0.00    +0.000 A 
ATOM      3  C   UNL     1      47.335   7.214  11.545  0.00  0.00    +0.000 A 
ATOM      4  C   UNL     1      46.699   6.677  12.661  0.00  0.00    +0.000 A 
ATOM      5  N   UNL     1      45.392   6.284  12.670  0.00  0.00    +0.000 N 
ATOM      6  N   UNL     1      47.347   6.549  13.837  0.00  0.00    +0.000 NA
ATOM      7  C   UNL     1      48.629   6.995  13.917  0.00  0.00    +0.000 A 
ATOM      8  H   UNL     1      45.109   5.852  13.541  0.00  0.00    +0.000 HD
ENDROOT
BRANCH   1  10
ATOM      9  N   UNL     1      51.311   7.722  14.219  0.00  0.00    +0.000 N 
ATOM     10  C   UNL     1      50.676   8.090  13.064  0.00  0.00    +0.000 C 
ATOM     11  O   UNL     1      51.238   8.776  12.221  0.00  0.00    +0.000 OA
ATOM     12  H   UNL     1      52.287   7.983  14.302  0.00  0.00    +0.000 HD
ATOM     13  H   UNL     1      50.984   6.964  14.803  0.00  0.00    +0.000 HD
ENDBRANCH   1  10
BRANCH   5  14
ATOM     14  C   UNL     1      44.498   6.243  11.536  0.00  0.00    +0.000 C 
BRANCH  14  15
ATOM     15  C   UNL     1      44.400   4.872  10.925  0.00  0.00    +0.000 A 
ATOM     16  C   UNL     1      43.540   3.925  11.466  0.00  0.00    +0.000 A 
ATOM     17  N   UNL     1      43.404   2.670  10.992  0.00  0.00    +0.000 NA
ATOM     18  C   UNL     1      44.171   2.335   9.923  0.00  0.00    +0.000 A 
ATOM     19  C   UNL     1      45.094   3.177   9.300  0.00  0.00    +0.000 A 
ATOM     20  C   UNL     1      45.198   4.465   9.847  0.00  0.00    +0.000 A 
BRANCH  19  21
ATOM     21  C   UNL     1      45.907   2.751   8.144  0.00  0.00    +0.000 A 
ATOM     22  C   UNL     1      46.211   3.620   7.083  0.00  0.00    +0.000 A 
ATOM     23  C   UNL     1      46.994   3.193   6.011  0.00  0.00    +0.000 A 
ATOM     24  C   UNL     1      47.453   1.890   6.012  0.00  0.00    +0.000 A 
ATOM     25  N   UNL     1      47.189   1.010   6.997  0.00  0.00    +0.000 NA
ATOM     26  C   UNL     1      46.433   1.461   8.030  0.00  0.00    +0.000 A 
ENDBRANCH  19  21
ENDBRANCH  14  15
ENDBRANCH   5  14
TORSDOF 4
ENDMDL
MODEL 4
REMARK VINA RESULT:    -7.512      3.170      7.436
REMARK INTER + INTRA:          -9.854
REMARK INTER:                  -9.643
REMARK INTRA:                  -0.211
REMARK UNBOUND:                -0.585
REMARK  Name = 
REMARK  4 active torsions:
REMARK  status: ('A' for Active; 'I' for Inactive)
REMARK    1  A    between atoms: C_2  and  C_4
REMARK    2  A    between atoms: N_8  and  C_9
REMARK    3  A    between atoms: C_9  and  C_10
REMARK    4  A    between atoms: C_14  and  C_15
REMARK                            x       y       z     vdW  Elec       q    Type
REMARK                         _______ _______ _______ _____ _____    ______ ____
ROOT
ATOM      1  C   UNL     1      47.465   4.871  15.150  0.00  0.00    +0.000 A 
ATOM      2  C   UNL     1      46.232   4.406  14.710  0.00  0.00    +0.000 A 
ATOM      3  C   UNL     1      45.629   5.014  13.612  0.00  0.00    +0.000 A 
ATOM      4  C   UNL     1      46.261   6.075  12.969  0.00  0.00    +0.000 A 
ATOM      5  N   UNL     1      45.777   6.670  11.839  0.00  0.00    +0.000 N 
ATOM      6  N   UNL     1      47.435   6.562  13.418  0.00  0.00    +0.000 NA
ATOM      7  C   UNL     1      48.010   5.962  14.494  0.00  0.00    +0.000 A 
ATOM      8  H   UNL     1      46.322   7.470  11.543  0.00  0.00    +0.000 HD
ENDROOT
BRANCH   1  10
ATOM      9  N   UNL     1      47.715   3.060  16.743  0.00  0.00    +0.000 N 
ATOM     10  C   UNL     1      48.193   4.253  16.273  0.00  0.00    +0.000 C 
ATOM     11  O   UNL     1      49.203   4.762  16.742  0.00  0.00    +0.000 OA
ATOM     12  H   UNL     1      48.279   2.590  17.442  0.00  0.00    +0.000 HD
ATOM     13  H   UNL     1      47.054   2.497  16.226  0.00  0.00    +0.000 HD
ENDBRANCH   1  10
BRANCH   5  14
ATOM     14  C   UNL     1      44.512   6.397  11.197  0.00  0.00    +0.000 C 
BRANCH  14  15
ATOM     15  C   UNL     1      44.422   4.990  10.672  0.00  0.00    +0.000 A 
ATOM     16  C   UNL     1      43.565   4.074  11.267  0.00  0.00    +0.000 A 
ATOM     17  N   UNL     1      43.436   2.792  10.871  0.00  0.00    +0.000 NA
ATOM     18  C   UNL     1      44.209   2.395   9.828  0.00  0.00    +0.000 A 
ATOM     19  C   UNL     1      45.131   3.201   9.157  0.00  0.00    +0.000 A 
ATOM     20  C   UNL     1      45.227   4.521   9.624  0.00  0.00    +0.000 A 
BRANCH  19  21
ATOM     21  C   UNL     1      45.951   2.709   8.033  0.00  0.00    +0.000 A 
ATOM     22  C   UNL     1      46.232   3.503   6.909  0.00  0.00    +0.000 A 
ATOM     23  C   UNL     1      47.023   3.015   5.868  0.00  0.00    +0.000 A 
ATOM     24  C   UNL     1      47.511   1.727   5.964  0.00  0.00    +0.000 A 
ATOM     25  N   UNL     1      47.269   0.916   7.013  0.00  0.00    +0.000 NA
ATOM     26  C   UNL     1      46.506   1.426   8.013  0.00  0.00    +0.000 A 
ENDBRANCH  19  21
ENDBRANCH  14  15
ENDBRANCH   5  14
TORSDOF 4
ENDMDL
MODEL 5
REMARK VINA RESULT:    -7.220      4.168      7.988
REMARK INTER + INTRA:          -9.494
REMARK INTER:                  -9.047
REMARK INTRA:                  -0.446
REMARK UNBOUND:                -0.585
REMARK  Name = 
REMARK  4 active torsions:
REMARK  status: ('A' for Active; 'I' for Inactive)
REMARK    1  A    between atoms: C_2  and  C_4
REMARK    2  A    between atoms: N_8  and  C_9
REMARK    3  A    between atoms: C_9  and  C_10
REMARK    4  A    between atoms: C_14  and  C_15
REMARK                            x       y       z     vdW  Elec       q    Type
REMARK                         _______ _______ _______ _____ _____    ______ ____
ROOT
ATOM      1  C   UNL     1      48.900   4.104  17.117  0.00  0.00    +0.000 A 
ATOM      2  C   UNL     1      48.542   5.360  16.642  0.00  0.00    +0.000 A 
ATOM      3  C   UNL     1      47.644   5.455  15.582  0.00  0.00    +0.000 A 
ATOM      4  C   UNL     1      47.115   4.301  15.011  0.00  0.00    +0.000 A 
ATOM      5  N   UNL     1      46.169   4.310  14.027  0.00  0.00    +0.000 N 
ATOM      6  N   UNL     1      47.491   3.078  15.436  0.00  0.00    +0.000 NA
ATOM      7  C   UNL     1      48.374   3.000  16.469  0.00  0.00    +0.000 A 
ATOM      8  H   UNL     1      45.946   3.387  13.677  0.00  0.00    +0.000 HD
ENDROOT
BRANCH   1  10
ATOM      9  N   UNL     1      50.858   3.057  18.092  0.00  0.00    +0.000 N 
ATOM     10  C   UNL     1      49.806   3.916  18.264  0.00  0.00    +0.000 C 
ATOM     11  O   UNL     1      49.651   4.528  19.312  0.00  0.00    +0.000 OA
ATOM     12  H   UNL     1      51.535   3.014  18.845  0.00  0.00    +0.000 HD
ATOM     13  H   UNL     1      51.159   2.740  17.180  0.00  0.00    +0.000 HD
ENDBRANCH   1  10
BRANCH   5  14
ATOM     14  C   UNL     1      45.650   5.472  13.344  0.00  0.00    +0.000 C 
BRANCH  14  15
ATOM     15  C   UNL     1      44.986   5.128  12.039  0.00  0.00    +0.000 A 
ATOM     16  C   UNL     1      43.676   5.517  11.796  0.00  0.00    +0.000 A 
ATOM     17  N   UNL     1      43.002   5.235  10.663  0.00  0.00    +0.000 NA
ATOM     18  C   UNL     1      43.666   4.519   9.720  0.00  0.00    +0.000 A 
ATOM     19  C   UNL     1      44.972   4.041   9.844  0.00  0.00    +0.000 A 
ATOM     20  C   UNL     1      45.615   4.357  11.051  0.00  0.00    +0.000 A 
BRANCH  19  21
ATOM     21  C   UNL     1      45.638   3.257   8.785  0.00  0.00    +0.000 A 
ATOM     22  C   UNL     1      46.247   3.868   7.676  0.00  0.00    +0.000 A 
ATOM     23  C   UNL     1      46.883   3.102   6.699  0.00  0.00    +0.000 A 
ATOM     24  C   UNL     1      46.885   1.728   6.841  0.00  0.00    +0.000 A 
ATOM     25  N   UNL     1      46.311   1.087   7.877  0.00  0.00    +0.000 NA
ATOM     26  C   UNL     1      45.711   1.862   8.816  0.00  0.00    +0.000 A 
ENDBRANCH  19  21
ENDBRANCH  14  15
ENDBRANCH   5  14
TORSDOF 4
ENDMDL
MODEL 6
REMARK VINA RESULT:    -6.910      1.572      1.876
REMARK INTER + INTRA:          -9.111
REMARK INTER:                  -8.595
REMARK INTRA:                  -0.515
REMARK UNBOUND:                -0.585
REMARK  Name = 
REMARK  4 active torsions:
REMARK  status: ('A' for Active; 'I' for Inactive)
REMARK    1  A    between atoms: C_2  and  C_4
REMARK    2  A    between atoms: N_8  and  C_9
REMARK    3  A    between atoms: C_9  and  C_10
REMARK    4  A    between atoms: C_14  and  C_15
REMARK                            x       y       z     vdW  Elec       q    Type
REMARK                         _______ _______ _______ _____ _____    ______ ____
ROOT
ATOM      1  C   UNL     1      45.931   2.929   7.882  0.00  0.00    +0.000 A 
ATOM      2  C   UNL     1      45.939   4.269   8.251  0.00  0.00    +0.000 A 
ATOM      3  C   UNL     1      45.236   4.665   9.386  0.00  0.00    +0.000 A 
ATOM      4  C   UNL     1      44.536   3.724  10.136  0.00  0.00    +0.000 A 
ATOM      5  N   UNL     1      43.892   4.016  11.304  0.00  0.00    +0.000 N 
ATOM      6  N   UNL     1      44.486   2.430   9.760  0.00  0.00    +0.000 NA
ATOM      7  C   UNL     1      45.173   2.058   8.646  0.00  0.00    +0.000 A 
ATOM      8  H   UNL     1      43.376   3.233  11.684  0.00  0.00    +0.000 HD
ENDROOT
BRANCH   1  10
ATOM      9  N   UNL     1      47.377   1.248   6.898  0.00  0.00    +0.000 N 
ATOM     10  C   UNL     1      46.687   2.418   6.724  0.00  0.00    +0.000 C 
ATOM     11  O   UNL     1      46.670   2.991   5.643  0.00  0.00    +0.000 OA
ATOM     12  H   UNL     1      47.806   0.849   6.072  0.00  0.00    +0.000 HD
ATOM     13  H   UNL     1      47.210   0.628   7.679  0.00  0.00    +0.000 HD
ENDBRANCH   1  10
BRANCH   5  14
ATOM     14  C   UNL     1      43.726   5.326  11.890  0.00  0.00    +0.000 C 
BRANCH  14  15
ATOM     15  C   UNL     1      45.014   5.884  12.433  0.00  0.00    +0.000 A 
ATOM     16  C   UNL     1      45.716   5.197  13.414  0.00  0.00    +0.000 A 
ATOM     17  N   UNL     1      46.866   5.634  13.966  0.00  0.00    +0.000 NA
ATOM     18  C   UNL     1      47.341   6.826  13.522  0.00  0.00    +0.000 A 
ATOM     19  C   UNL     1      46.724   7.632  12.564  0.00  0.00    +0.000 A 
ATOM     20  C   UNL     1      45.525   7.128  12.036  0.00  0.00    +0.000 A 
BRANCH  19  21
ATOM     21  C   UNL     1      47.287   8.925  12.128  0.00  0.00    +0.000 A 
ATOM     22  C   UNL     1      46.504  10.089  12.039  0.00  0.00    +0.000 A 
ATOM     23  C   UNL     1      47.068  11.300  11.639  0.00  0.00    +0.000 A 
ATOM     24  C   UNL     1      48.411  11.324  11.319  0.00  0.00    +0.000 A 
ATOM     25  N   UNL     1      49.210  10.240  11.378  0.00  0.00    +0.000 NA
ATOM     26  C   UNL     1      48.632   9.081  11.782  0.00  0.00    +0.000 A 
ENDBRANCH  19  21
ENDBRANCH  14  15
ENDBRANCH   5  14
TORSDOF 4
ENDMDL
MODEL 7
REMARK VINA RESULT:    -6.698      1.745      2.779
REMARK INTER + INTRA:          -8.849
REMARK INTER:                  -8.351
REMARK INTRA:                  -0.498
REMARK UNBOUND:                -0.585
REMARK  Name = 
REMARK  4 active torsions:
REMARK  status: ('A' for Active; 'I' for Inactive)
REMARK    1  A    between atoms: C_2  and  C_4
REMARK    2  A    between atoms: N_8  and  C_9
REMARK    3  A    between atoms: C_9  and  C_10
REMARK    4  A    between atoms: C_14  and  C_15
REMARK                            x       y       z     vdW  Elec       q    Type
REMARK                         _______ _______ _______ _____ _____    ______ ____
ROOT
ATOM      1  C   UNL     1      46.017   2.700   7.515  0.00  0.00    +0.000 A 
ATOM      2  C   UNL     1      45.236   3.845   7.621  0.00  0.00    +0.000 A 
ATOM      3  C   UNL     1      44.486   4.050   8.777  0.00  0.00    +0.000 A 
ATOM      4  C   UNL     1      44.524   3.115   9.807  0.00  0.00    +0.000 A 
ATOM      5  N   UNL     1      43.885   3.282  11.003  0.00  0.00    +0.000 N 
ATOM      6  N   UNL     1      45.243   1.981   9.693  0.00  0.00    +0.000 NA
ATOM      7  C   UNL     1      45.967   1.790   8.557  0.00  0.00    +0.000 A 
ATOM      8  H   UNL     1      43.958   2.477  11.613  0.00  0.00    +0.000 HD
ENDROOT
BRANCH   1  10
ATOM      9  N   UNL     1      47.170   3.490   5.533  0.00  0.00    +0.000 N 
ATOM     10  C   UNL     1      46.876   2.430   6.348  0.00  0.00    +0.000 C 
ATOM     11  O   UNL     1      47.341   1.318   6.136  0.00  0.00    +0.000 OA
ATOM     12  H   UNL     1      47.844   3.320   4.796  0.00  0.00    +0.000 HD
ATOM     13  H   UNL     1      47.020   4.450   5.813  0.00  0.00    +0.000 HD
ENDBRANCH   1  10
BRANCH   5  14
ATOM     14  C   UNL     1      42.992   4.361  11.357  0.00  0.00    +0.000 C 
BRANCH  14  15
ATOM     15  C   UNL     1      43.705   5.679  11.499  0.00  0.00    +0.000 A 
ATOM     16  C   UNL     1      43.092   6.854  11.087  0.00  0.00    +0.000 A 
ATOM     17  N   UNL     1      43.666   8.072  11.163  0.00  0.00    +0.000 NA
ATOM     18  C   UNL     1      44.923   8.123  11.672  0.00  0.00    +0.000 A 
ATOM     19  C   UNL     1      45.665   7.019  12.097  0.00  0.00    +0.000 A 
ATOM     20  C   UNL     1      45.018   5.779  11.982  0.00  0.00    +0.000 A 
BRANCH  19  21
ATOM     21  C   UNL     1      47.035   7.139  12.634  0.00  0.00    +0.000 A 
ATOM     22  C   UNL     1      47.450   6.443  13.782  0.00  0.00    +0.000 A 
ATOM     23  C   UNL     1      48.756   6.564  14.258  0.00  0.00    +0.000 A 
ATOM     24  C   UNL     1      49.626   7.396  13.580  0.00  0.00    +0.000 A 
ATOM     25  N   UNL     1      49.283   8.093  12.479  0.00  0.00    +0.000 NA
ATOM     26  C   UNL     1      48.008   7.944  12.037  0.00  0.00    +0.000 A 
ENDBRANCH  19  21
ENDBRANCH  14  15
ENDBRANCH   5  14
TORSDOF 4
ENDMDL
MODEL 8
REMARK VINA RESULT:    -6.545      6.209      8.645
REMARK INTER + INTRA:          -8.660
REMARK INTER:                  -8.116
REMARK INTRA:                  -0.545
REMARK UNBOUND:                -0.585
REMARK  Name = 
REMARK  4 active torsions:
REMARK  status: ('A' for Active; 'I' for Inactive)
REMARK    1  A    between atoms: C_2  and  C_4
REMARK    2  A    between atoms: N_8  and  C_9
REMARK    3  A    between atoms: C_9  and  C_10
REMARK    4  A    between atoms: C_14  and  C_15
REMARK                            x       y       z     vdW  Elec       q    Type
REMARK                         _______ _______ _______ _____ _____    ______ ____
ROOT
ATOM      1  C   UNL     1      52.584   2.237  17.964  0.00  0.00    +0.000 A 
ATOM      2  C   UNL     1      52.001   3.480  18.176  0.00  0.00    +0.000 A 
ATOM      3  C   UNL     1      50.659   3.665  17.854  0.00  0.00    +0.000 A 
ATOM      4  C   UNL     1      49.917   2.611  17.327  0.00  0.00    +0.000 A 
ATOM      5  N   UNL     1      48.580   2.685  17.063  0.00  0.00    +0.000 N 
ATOM      6  N   UNL     1      50.487   1.415  17.076  0.00  0.00    +0.000 NA
ATOM      7  C   UNL     1      51.801   1.250  17.390  0.00  0.00    +0.000 A 
ATOM      8  H   UNL     1      48.212   1.854  16.618  0.00  0.00    +0.000 HD
ENDROOT
BRANCH   1  10
ATOM      9  N   UNL     1      54.956   2.488  17.525  0.00  0.00    +0.000 N 
ATOM     10  C   UNL     1      53.984   1.944  18.321  0.00  0.00    +0.000 C 
ATOM     11  O   UNL     1      54.270   1.278  19.307  0.00  0.00    +0.000 OA
ATOM     12  H   UNL     1      55.913   2.371  17.836  0.00  0.00    +0.000 HD
ATOM     13  H   UNL     1      54.769   3.236  16.872  0.00  0.00    +0.000 HD
ENDBRANCH   1  10
BRANCH   5  14
ATOM     14  C   UNL     1      47.747   3.861  17.168  0.00  0.00    +0.000 C 
BRANCH  14  15
ATOM     15  C   UNL     1      47.713   4.662  15.895  0.00  0.00    +0.000 A 
ATOM     16  C   UNL     1      48.493   5.803  15.765  0.00  0.00    +0.000 A 
ATOM     17  N   UNL     1      48.509   6.585  14.667  0.00  0.00    +0.000 NA
ATOM     18  C   UNL     1      47.699   6.216  13.642  0.00  0.00    +0.000 A 
ATOM     19  C   UNL     1      46.845   5.112  13.650  0.00  0.00    +0.000 A 
ATOM     20  C   UNL     1      46.864   4.344  14.825  0.00  0.00    +0.000 A 
BRANCH  19  21
ATOM     21  C   UNL     1      45.979   4.766  12.506  0.00  0.00    +0.000 A 
ATOM     22  C   UNL     1      45.800   5.634  11.415  0.00  0.00    +0.000 A 
ATOM     23  C   UNL     1      44.987   5.274  10.341  0.00  0.00    +0.000 A 
ATOM     24  C   UNL     1      44.351   4.049  10.381  0.00  0.00    +0.000 A 
ATOM     25  N   UNL     1      44.478   3.179  11.403  0.00  0.00    +0.000 NA
ATOM     26  C   UNL     1      45.285   3.556  12.427  0.00  0.00    +0.000 A 
ENDBRANCH  19  21
ENDBRANCH  14  15
ENDBRANCH   5  14
TORSDOF 4
ENDMDL
MODEL 9
REMARK VINA RESULT:    -6.367      4.069      5.915
REMARK INTER + INTRA:          -8.441
REMARK INTER:                  -7.861
REMARK INTRA:                  -0.580
REMARK UNBOUND:                -0.585
REMARK  Name = 
REMARK  4 active torsions:
REMARK  status: ('A' for Active; 'I' for Inactive)
REMARK    1  A    between atoms: C_2  and  C_4
REMARK    2  A    between atoms: N_8  and  C_9
REMARK    3  A    between atoms: C_9  and  C_10
REMARK    4  A    between atoms: C_14  and  C_15
REMARK                            x       y       z     vdW  Elec       q    Type
REMARK                         _______ _______ _______ _____ _____    ______ ____
ROOT
ATOM      1  C   UNL     1      44.239   4.154  11.516  0.00  0.00    +0.000 A 
ATOM      2  C   UNL     1      45.124   4.947  10.795  0.00  0.00    +0.000 A 
ATOM      3  C   UNL     1      45.496   6.187  11.307  0.00  0.00    +0.000 A 
ATOM      4  C   UNL     1      44.984   6.620  12.527  0.00  0.00    +0.000 A 
ATOM      5  N   UNL     1      45.362   7.782  13.136  0.00  0.00    +0.000 N 
ATOM      6  N   UNL     1      44.091   5.877  13.211  0.00  0.00    +0.000 NA
ATOM      7  C   UNL     1      43.732   4.670  12.696  0.00  0.00    +0.000 A 
ATOM      8  H   UNL     1      44.842   7.980  13.982  0.00  0.00    +0.000 HD
ENDROOT
BRANCH   1  10
ATOM      9  N   UNL     1      44.512   2.273  10.009  0.00  0.00    +0.000 N 
ATOM     10  C   UNL     1      43.831   2.810  11.069  0.00  0.00    +0.000 C 
ATOM     11  O   UNL     1      42.950   2.183  11.642  0.00  0.00    +0.000 OA
ATOM     12  H   UNL     1      44.299   1.311   9.776  0.00  0.00    +0.000 HD
ATOM     13  H   UNL     1      45.394   2.645   9.685  0.00  0.00    +0.000 HD
ENDBRANCH   1  10
BRANCH   5  14
ATOM     14  C   UNL     1      46.240   8.793  12.591  0.00  0.00    +0.000 C 
BRANCH  14  15
ATOM     15  C   UNL     1      47.692   8.503  12.858  0.00  0.00    +0.000 A 
ATOM     16  C   UNL     1      48.112   8.152  14.133  0.00  0.00    +0.000 A 
ATOM     17  N   UNL     1      49.394   7.894  14.461  0.00  0.00    +0.000 NA
ATOM     18  C   UNL     1      50.311   7.997  13.466  0.00  0.00    +0.000 A 
ATOM     19  C   UNL     1      50.032   8.367  12.149  0.00  0.00    +0.000 A 
ATOM     20  C   UNL     1      48.682   8.635  11.873  0.00  0.00    +0.000 A 
BRANCH  19  21
ATOM     21  C   UNL     1      51.076   8.471  11.111  0.00  0.00    +0.000 A 
ATOM     22  C   UNL     1      51.591   7.341  10.453  0.00  0.00    +0.000 A 
ATOM     23  C   UNL     1      52.567   7.471   9.466  0.00  0.00    +0.000 A 
ATOM     24  C   UNL     1      53.025   8.738   9.160  0.00  0.00    +0.000 A 
ATOM     25  N   UNL     1      52.575   9.857   9.762  0.00  0.00    +0.000 NA
ATOM     26  C   UNL     1      51.618   9.695  10.710  0.00  0.00    +0.000 A 
ENDBRANCH  19  21
ENDBRANCH  14  15
ENDBRANCH   5  14
TORSDOF 4
ENDMDL
