MODEL 1
REMARK VINA RESULT:    -7.528      0.000      0.000
REMARK INTER + INTRA:         -10.808
REMARK INTER:                 -10.168
REMARK INTRA:                  -0.640
REMARK UNBOUND:                -0.640
REMARK  Name = 
REMARK  7 active torsions:
REMARK  status: ('A' for Active; 'I' for Inactive)
REMARK    1  A    between atoms: N_1  and  C_2
REMARK    2  A    between atoms: C_2  and  C_3
REMARK    3  A    between atoms: C_6  and  O_7
REMARK    4  A    between atoms: O_7  and  C_8
REMARK    5  A    between atoms: C_8  and  C_9
REMARK    6  A    between atoms: C_9  and  O_10
REMARK    7  A    between atoms: C_9  and  C_11
REMARK                            x       y       z     vdW  Elec       q    Type
REMARK                         _______ _______ _______ _____ _____    ______ ____
ROOT
ATOM      1  O   UNL     1      43.759   4.790   9.820  0.00  0.00    +0.000 OA
ENDROOT
BRANCH   1   5
ATOM      2  C   UNL     1      46.355   2.146   7.866  0.00  0.00    +0.000 A 
ATOM      3  C   UNL     1      45.438   1.643   8.798  0.00  0.00    +0.000 A 
ATOM      4  C   UNL     1      44.555   2.494   9.464  0.00  0.00    +0.000 A 
ATOM      5  C   UNL     1      44.576   3.868   9.220  0.00  0.00    +0.000 A 
ATOM      6  C   UNL     1      45.496   4.377   8.301  0.00  0.00    +0.000 A 
ATOM      7  C   UNL     1      46.380   3.525   7.627  0.00  0.00    +0.000 A 
BRANCH   2   8
ATOM      8  C   UNL     1      47.287   1.199   7.153  0.00  0.00    +0.000 C 
BRANCH   8   9
ATOM      9  N   UNL     1      48.298   1.930   6.396  0.00  0.00    +0.000 NA
ATOM     10  H   UNL     1      48.063   1.904   5.406  0.00  0.00    +0.000 HD
ATOM     11  H   UNL     1      49.192   1.450   6.497  0.00  0.00    +0.000 HD
ENDBRANCH   8   9
ENDBRANCH   2   8
ENDBRANCH   1   5
BRANCH   1  12
ATOM     12  C   UNL     1      43.269   4.433  11.124  0.00  0.00    +0.000 C 
BRANCH  12  13
ATOM     13  C   UNL     1      43.646   5.509  12.156  0.00  0.00    +0.000 C 
BRANCH  13  14
ATOM     14  C   UNL     1      45.064   5.355  12.667  0.00  0.00    +0.000 A 
ATOM     15  C   UNL     1      45.543   4.091  13.037  0.00  0.00    +0.000 A 
ATOM     16  C   UNL     1      46.831   3.990  13.538  0.00  0.00    +0.000 A 
ATOM     17  N   UNL     1      47.661   5.038  13.697  0.00  0.00    +0.000 NA
ATOM     18  C   UNL     1      47.181   6.248  13.339  0.00  0.00    +0.000 A 
ATOM     19  C   UNL     1      45.915   6.457  12.833  0.00  0.00    +0.000 A 
ENDBRANCH  13  14
BRANCH  13  20
ATOM     20  O   UNL     1      42.720   5.518  13.246  0.00  0.00    +0.000 OA
ATOM     21  H   UNL     1      42.324   4.627  13.271  0.00  0.00    +0.000 HD
ENDBRANCH  13  20
ENDBRANCH  12  13
ENDBRANCH   1  12
TORSDOF 7
ENDMDL
MODEL 2
REMARK VINA RESULT:    -7.466      0.450      1.571
REMARK INTER + INTRA:         -10.724
REMARK INTER:                 -10.120
REMARK INTRA:                  -0.604
REMARK UNBOUND:                -0.640
REMARK  Name = 
REMARK  7 active torsions:
REMARK  status: ('A' for Active; 'I' for Inactive)
REMARK    1  A    between atoms: N_1  and  C_2
REMARK    2  A    between atoms: C_2  and  C_3
REMARK    3  A    between atoms: C_6  and  O_7
REMARK    4  A    between atoms: O_7  and  C_8
REMARK    5  A    between atoms: C_8  and  C_9
REMARK    6  A    between atoms: C_9  and  O_10
REMARK    7  A    between atoms: C_9  and  C_11
REMARK                            x       y       z     vdW  Elec       q    Type
REMARK                         _______ _______ _______ _____ _____    ______ ____
ROOT
ATOM      1  O   UNL     1      43.783   4.777   9.813  0.00  0.00    +0.000 OA
ENDROOT
BRANCH   1   5
ATOM      2  C   UNL     1      46.376   2.115   7.880  0.00  0.00    +0.000 A 
ATOM      3  C   UNL     1      46.468   3.485   7.603  0.00  0.00    +0.000 A 
ATOM      4  C   UNL     1      45.623   4.401   8.231  0.00  0.00    +0.000 A 
ATOM      5  C   UNL     1      44.662   3.966   9.145  0.00  0.00    +0.000 A 
ATOM      6  C   UNL     1      44.557   2.600   9.417  0.00  0.00    +0.000 A 
ATOM      7  C   UNL     1      45.406   1.679   8.791  0.00  0.00    +0.000 A 
BRANCH   2   8
ATOM      8  C   UNL     1      47.312   1.152   7.194  0.00  0.00    +0.000 C 
BRANCH   8   9
ATOM      9  N   UNL     1      48.294   1.863   6.382  0.00  0.00    +0.000 NA
ATOM     10  H   UNL     1      49.145   1.310   6.322  0.00  0.00    +0.000 HD
ATOM     11  H   UNL     1      48.542   2.731   6.856  0.00  0.00    +0.000 HD
ENDBRANCH   8   9
ENDBRANCH   2   8
ENDBRANCH   1   5
BRANCH   1  12
ATOM     12  C   UNL     1      43.477   4.387  11.163  0.00  0.00    +0.000 C 
BRANCH  12  13
ATOM     13  C   UNL     1      43.763   5.541  12.138  0.00  0.00    +0.000 C 
BRANCH  13  14
ATOM     14  C   UNL     1      45.200   5.557  12.617  0.00  0.00    +0.000 A 
ATOM     15  C   UNL     1      46.127   6.425  12.024  0.00  0.00    +0.000 A 
ATOM     16  C   UNL     1      47.443   6.386  12.457  0.00  0.00    +0.000 A 
ATOM     17  N   UNL     1      47.895   5.560  13.418  0.00  0.00    +0.000 NA
ATOM     18  C   UNL     1      46.989   4.727  13.974  0.00  0.00    +0.000 A 
ATOM     19  C   UNL     1      45.658   4.684  13.614  0.00  0.00    +0.000 A 
ENDBRANCH  13  14
BRANCH  13  20
ATOM     20  O   UNL     1      42.865   5.504  13.250  0.00  0.00    +0.000 OA
ATOM     21  H   UNL     1      42.690   4.561  13.425  0.00  0.00    +0.000 HD
ENDBRANCH  13  20
ENDBRANCH  12  13
ENDBRANCH   1  12
TORSDOF 7
ENDMDL
MODEL 3
REMARK VINA RESULT:    -7.243      1.313      6.060
REMARK INTER + INTRA:         -10.423
REMARK INTER:                 -10.053
REMARK INTRA:                  -0.371
REMARK UNBOUND:                -0.640
REMARK  Name = 
REMARK  7 active torsions:
REMARK  status: ('A' for Active; 'I' for Inactive)
REMARK    1  A    between atoms: N_1  and  C_2
REMARK    2  A    between atoms: C_2  and  C_3
REMARK    3  A    between atoms: C_6  and  O_7
REMARK    4  A    between atoms: O_7  and  C_8
REMARK    5  A    between atoms: C_8  and  C_9
REMARK    6  A    between atoms: C_9  and  O_10
REMARK    7  A    between atoms: C_9  and  C_11
REMARK                            x       y       z     vdW  Elec       q    Type
REMARK                         _______ _______ _______ _____ _____    ______ ____
ROOT
ATOM      1  O   UNL     1      43.931   4.337  10.365  0.00  0.00    +0.000 OA
ENDROOT
BRANCH   1   5
ATOM      2  C   UNL     1      46.370   4.588  13.762  0.00  0.00    +0.000 A 
ATOM      3  C   UNL     1      45.835   5.760  13.214  0.00  0.00    +0.000 A 
ATOM      4  C   UNL     1      45.014   5.714  12.086  0.00  0.00    +0.000 A 
ATOM      5  C   UNL     1      44.720   4.494  11.475  0.00  0.00    +0.000 A 
ATOM      6  C   UNL     1      45.259   3.323  12.009  0.00  0.00    +0.000 A 
ATOM      7  C   UNL     1      46.079   3.366  13.144  0.00  0.00    +0.000 A 
BRANCH   2   8
ATOM      8  C   UNL     1      47.242   4.670  14.989  0.00  0.00    +0.000 C 
BRANCH   8   9
ATOM      9  N   UNL     1      47.559   3.339  15.497  0.00  0.00    +0.000 NA
ATOM     10  H   UNL     1      46.961   2.653  15.042  0.00  0.00    +0.000 HD
ATOM     11  H   UNL     1      47.336   3.308  16.492  0.00  0.00    +0.000 HD
ENDBRANCH   8   9
ENDBRANCH   2   8
ENDBRANCH   1   5
BRANCH   1  12
ATOM     12  C   UNL     1      44.337   3.300   9.455  0.00  0.00    +0.000 C 
BRANCH  12  13
ATOM     13  C   UNL     1      44.985   3.905   8.199  0.00  0.00    +0.000 C 
BRANCH  13  14
ATOM     14  C   UNL     1      45.972   2.964   7.541  0.00  0.00    +0.000 A 
ATOM     15  C   UNL     1      46.210   1.698   8.095  0.00  0.00    +0.000 A 
ATOM     16  C   UNL     1      47.150   0.877   7.492  0.00  0.00    +0.000 A 
ATOM     17  N   UNL     1      47.859   1.218   6.400  0.00  0.00    +0.000 NA
ATOM     18  C   UNL     1      47.620   2.442   5.883  0.00  0.00    +0.000 A 
ATOM     19  C   UNL     1      46.709   3.336   6.407  0.00  0.00    +0.000 A 
ENDBRANCH  13  14
BRANCH  13  20
ATOM     20  O   UNL     1      45.609   5.156   8.498  0.00  0.00    +0.000 OA
ATOM     21  H   UNL     1      45.243   5.800   7.862  0.00  0.00    +0.000 HD
ENDBRANCH  13  20
ENDBRANCH  12  13
ENDBRANCH   1  12
TORSDOF 7
ENDMDL
MODEL 4
REMARK VINA RESULT:    -6.470      1.258      5.991
REMARK INTER + INTRA:          -9.380
REMARK INTER:                  -8.927
REMARK INTRA:                  -0.453
REMARK UNBOUND:                -0.640
REMARK  Name = 
REMARK  7 active torsions:
REMARK  status: ('A' for Active; 'I' for Inactive)
REMARK    1  A    between atoms: N_1  and  C_2
REMARK    2  A    between atoms: C_2  and  C_3
REMARK    3  A    between atoms: C_6  and  O_7
REMARK    4  A    between atoms: O_7  and  C_8
REMARK    5  A    between atoms: C_8  and  C_9
REMARK    6  A    between atoms: C_9  and  O_10
REMARK    7  A    between atoms: C_9  and  C_11
REMARK                            x       y       z     vdW  Elec       q    Type
REMARK                         _______ _______ _______ _____ _____    ______ ____
ROOT
ATOM      1  O   UNL     1      43.714   4.687  10.578  0.00  0.00    +0.000 OA
ENDROOT
BRANCH   1   5
ATOM      2  C   UNL     1      46.847   5.987  13.036  0.00  0.00    +0.000 A 
ATOM      3  C   UNL     1      45.967   5.005  13.508  0.00  0.00    +0.000 A 
ATOM      4  C   UNL     1      44.916   4.544  12.715  0.00  0.00    +0.000 A 
ATOM      5  C   UNL     1      44.715   5.064  11.436  0.00  0.00    +0.000 A 
ATOM      6  C   UNL     1      45.580   6.052  10.963  0.00  0.00    +0.000 A 
ATOM      7  C   UNL     1      46.640   6.513  11.756  0.00  0.00    +0.000 A 
BRANCH   2   8
ATOM      8  C   UNL     1      47.981   6.454  13.913  0.00  0.00    +0.000 C 
BRANCH   8   9
ATOM      9  N   UNL     1      48.009   5.718  15.172  0.00  0.00    +0.000 NA
ATOM     10  H   UNL     1      48.880   5.916  15.660  0.00  0.00    +0.000 HD
ATOM     11  H   UNL     1      48.009   4.719  14.967  0.00  0.00    +0.000 HD
ENDBRANCH   8   9
ENDBRANCH   2   8
ENDBRANCH   1   5
BRANCH   1  12
ATOM     12  C   UNL     1      44.145   4.160   9.311  0.00  0.00    +0.000 C 
BRANCH  12  13
ATOM     13  C   UNL     1      44.998   2.897   9.512  0.00  0.00    +0.000 C 
BRANCH  13  14
ATOM     14  C   UNL     1      45.855   2.574   8.306  0.00  0.00    +0.000 A 
ATOM     15  C   UNL     1      46.087   3.552   7.329  0.00  0.00    +0.000 A 
ATOM     16  C   UNL     1      46.842   3.212   6.217  0.00  0.00    +0.000 A 
ATOM     17  N   UNL     1      47.371   1.992   6.010  0.00  0.00    +0.000 NA
ATOM     18  C   UNL     1      47.133   1.062   6.960  0.00  0.00    +0.000 A 
ATOM     19  C   UNL     1      46.394   1.296   8.101  0.00  0.00    +0.000 A 
ENDBRANCH  13  14
BRANCH  13  20
ATOM     20  O   UNL     1      44.179   1.777   9.859  0.00  0.00    +0.000 OA
ATOM     21  H   UNL     1      44.597   0.998   9.445  0.00  0.00    +0.000 HD
ENDBRANCH  13  20
ENDBRANCH  12  13
ENDBRANCH   1  12
TORSDOF 7
ENDMDL
MODEL 5
REMARK VINA RESULT:    -6.320      1.565      5.320
REMARK INTER + INTRA:          -9.177
REMARK INTER:                  -8.465
REMARK INTRA:                  -0.712
REMARK UNBOUND:                -0.640
REMARK  Name = 
REMARK  7 active torsions:
REMARK  status: ('A' for Active; 'I' for Inactive)
REMARK    1  A    between atoms: N_1  and  C_2
REMARK    2  A    between atoms: C_2  and  C_3
REMARK    3  A    between atoms: C_6  and  O_7
REMARK    4  A    between atoms: O_7  and  C_8
REMARK    5  A    between atoms: C_8  and  C_9
REMARK    6  A    between atoms: C_9  and  O_10
REMARK    7  A    between atoms: C_9  and  C_11
REMARK                            x       y       z     vdW  Elec       q    Type
REMARK                         _______ _______ _______ _____ _____    ______ ____
ROOT
ATOM      1  O   UNL     1      43.427   5.058  12.992  0.00  0.00    +0.000 OA
ENDROOT
BRANCH   1   5
ATOM      2  C   UNL     1      47.166   6.940  12.837  0.00  0.00    +0.000 A 
ATOM      3  C   UNL     1      47.037   5.727  13.525  0.00  0.00    +0.000 A 
ATOM      4  C   UNL     1      45.808   5.069  13.594  0.00  0.00    +0.000 A 
ATOM      5  C   UNL     1      44.679   5.617  12.983  0.00  0.00    +0.000 A 
ATOM      6  C   UNL     1      44.797   6.831  12.306  0.00  0.00    +0.000 A 
ATOM      7  C   UNL     1      46.031   7.491  12.232  0.00  0.00    +0.000 A 
BRANCH   2   8
ATOM      8  C   UNL     1      48.511   7.618  12.771  0.00  0.00    +0.000 C 
BRANCH   8   9
ATOM      9  N   UNL     1      49.594   6.641  12.811  0.00  0.00    +0.000 NA
ATOM     10  H   UNL     1      49.225   5.719  12.587  0.00  0.00    +0.000 HD
ATOM     11  H   UNL     1      49.952   6.589  13.764  0.00  0.00    +0.000 HD
ENDBRANCH   8   9
ENDBRANCH   2   8
ENDBRANCH   1   5
BRANCH   1  12
ATOM     12  C   UNL     1      42.993   4.480  11.749  0.00  0.00    +0.000 C 
BRANCH  12  13
ATOM     13  C   UNL     1      43.769   3.187  11.454  0.00  0.00    +0.000 C 
BRANCH  13  14
ATOM     14  C   UNL     1      44.532   3.250  10.147  0.00  0.00    +0.000 A 
ATOM     15  C   UNL     1      44.912   2.067   9.498  0.00  0.00    +0.000 A 
ATOM     16  C   UNL     1      45.644   2.160   8.325  0.00  0.00    +0.000 A 
ATOM     17  N   UNL     1      46.022   3.323   7.763  0.00  0.00    +0.000 NA
ATOM     18  C   UNL     1      45.652   4.452   8.405  0.00  0.00    +0.000 A 
ATOM     19  C   UNL     1      44.925   4.470   9.577  0.00  0.00    +0.000 A 
ENDBRANCH  13  14
BRANCH  13  20
ATOM     20  O   UNL     1      42.898   2.053  11.470  0.00  0.00    +0.000 OA
ATOM     21  H   UNL     1      42.047   2.361  11.105  0.00  0.00    +0.000 HD
ENDBRANCH  13  20
ENDBRANCH  12  13
ENDBRANCH   1  12
TORSDOF 7
ENDMDL
MODEL 6
REMARK VINA RESULT:    -6.168      2.051      2.799
REMARK INTER + INTRA:          -8.972
REMARK INTER:                  -8.680
REMARK INTRA:                  -0.291
REMARK UNBOUND:                -0.640
REMARK  Name = 
REMARK  7 active torsions:
REMARK  status: ('A' for Active; 'I' for Inactive)
REMARK    1  A    between atoms: N_1  and  C_2
REMARK    2  A    between atoms: C_2  and  C_3
REMARK    3  A    between atoms: C_6  and  O_7
REMARK    4  A    between atoms: O_7  and  C_8
REMARK    5  A    between atoms: C_8  and  C_9
REMARK    6  A    between atoms: C_9  and  O_10
REMARK    7  A    between atoms: C_9  and  C_11
REMARK                            x       y       z     vdW  Elec       q    Type
REMARK                         _______ _______ _______ _____ _____    ______ ____
ROOT
ATOM      1  O   UNL     1      44.298   4.695  10.258  0.00  0.00    +0.000 OA
ENDROOT
BRANCH   1   5
ATOM      2  C   UNL     1      46.448   2.343   7.540  0.00  0.00    +0.000 A 
ATOM      3  C   UNL     1      46.560   3.738   7.478  0.00  0.00    +0.000 A 
ATOM      4  C   UNL     1      45.862   4.553   8.370  0.00  0.00    +0.000 A 
ATOM      5  C   UNL     1      45.029   3.990   9.339  0.00  0.00    +0.000 A 
ATOM      6  C   UNL     1      44.904   2.601   9.398  0.00  0.00    +0.000 A 
ATOM      7  C   UNL     1      45.607   1.780   8.506  0.00  0.00    +0.000 A 
BRANCH   2   8
ATOM      8  C   UNL     1      47.225   1.490   6.569  0.00  0.00    +0.000 C 
BRANCH   8   9
ATOM      9  N   UNL     1      48.574   2.012   6.377  0.00  0.00    +0.000 NA
ATOM     10  H   UNL     1      48.535   2.843   5.791  0.00  0.00    +0.000 HD
ATOM     11  H   UNL     1      49.123   1.320   5.866  0.00  0.00    +0.000 HD
ENDBRANCH   8   9
ENDBRANCH   2   8
ENDBRANCH   1   5
BRANCH   1  12
ATOM     12  C   UNL     1      45.060   5.387  11.263  0.00  0.00    +0.000 C 
BRANCH  12  13
ATOM     13  C   UNL     1      44.253   6.560  11.842  0.00  0.00    +0.000 C 
BRANCH  13  14
ATOM     14  C   UNL     1      45.069   7.830  11.955  0.00  0.00    +0.000 A 
ATOM     15  C   UNL     1      46.282   7.825  12.660  0.00  0.00    +0.000 A 
ATOM     16  C   UNL     1      46.985   9.013  12.779  0.00  0.00    +0.000 A 
ATOM     17  N   UNL     1      46.576  10.185  12.261  0.00  0.00    +0.000 NA
ATOM     18  C   UNL     1      45.404  10.173  11.589  0.00  0.00    +0.000 A 
ATOM     19  C   UNL     1      44.627   9.047  11.415  0.00  0.00    +0.000 A 
ENDBRANCH  13  14
BRANCH  13  20
ATOM     20  O   UNL     1      43.686   6.214  13.109  0.00  0.00    +0.000 OA
ATOM     21  H   UNL     1      44.436   5.959  13.680  0.00  0.00    +0.000 HD
ENDBRANCH  13  20
ENDBRANCH  12  13
ENDBRANCH   1  12
TORSDOF 7
ENDMDL
MODEL 7
REMARK VINA RESULT:    -6.030      2.167      6.654
REMARK INTER + INTRA:          -8.786
REMARK INTER:                  -8.492
REMARK INTRA:                  -0.293
REMARK UNBOUND:                -0.640
REMARK  Name = 
REMARK  7 active torsions:
REMARK  status: ('A' for Active; 'I' for Inactive)
REMARK    1  A    between atoms: N_1  and  C_2
REMARK    2  A    between atoms: C_2  and  C_3
REMARK    3  A    between atoms: C_6  and  O_7
REMARK    4  A    between atoms: O_7  and  C_8
REMARK    5  A    between atoms: C_8  and  C_9
REMARK    6  A    between atoms: C_9  and  O_10
REMARK    7  A    between atoms: C_9  and  C_11
REMARK                            x       y       z     vdW  Elec       q    Type
REMARK                         _______ _______ _______ _____ _____    ______ ____
ROOT
ATOM      1  O   UNL     1      45.064   5.752  10.449  0.00  0.00    +0.000 OA
ENDROOT
BRANCH   1   5
ATOM      2  C   UNL     1      47.201   8.189  13.103  0.00  0.00    +0.000 A 
ATOM      3  C   UNL     1      47.898   7.296  12.279  0.00  0.00    +0.000 A 
ATOM      4  C   UNL     1      47.219   6.472  11.380  0.00  0.00    +0.000 A 
ATOM      5  C   UNL     1      45.827   6.517  11.292  0.00  0.00    +0.000 A 
ATOM      6  C   UNL     1      45.125   7.396  12.118  0.00  0.00    +0.000 A 
ATOM      7  C   UNL     1      45.804   8.228  13.019  0.00  0.00    +0.000 A 
BRANCH   2   8
ATOM      8  C   UNL     1      47.964   9.075  14.055  0.00  0.00    +0.000 C 
BRANCH   8   9
ATOM      9  N   UNL     1      47.386   9.027  15.394  0.00  0.00    +0.000 NA
ATOM     10  H   UNL     1      47.523   9.925  15.852  0.00  0.00    +0.000 HD
ATOM     11  H   UNL     1      47.894   8.336  15.945  0.00  0.00    +0.000 HD
ENDBRANCH   8   9
ENDBRANCH   2   8
ENDBRANCH   1   5
BRANCH   1  12
ATOM     12  C   UNL     1      45.762   5.162   9.339  0.00  0.00    +0.000 C 
BRANCH  12  13
ATOM     13  C   UNL     1      45.115   3.825   8.941  0.00  0.00    +0.000 C 
BRANCH  13  14
ATOM     14  C   UNL     1      46.034   2.957   8.108  0.00  0.00    +0.000 A 
ATOM     15  C   UNL     1      46.038   1.567   8.285  0.00  0.00    +0.000 A 
ATOM     16  C   UNL     1      46.920   0.805   7.536  0.00  0.00    +0.000 A 
ATOM     17  N   UNL     1      47.786   1.317   6.641  0.00  0.00    +0.000 NA
ATOM     18  C   UNL     1      47.772   2.659   6.487  0.00  0.00    +0.000 A 
ATOM     19  C   UNL     1      46.936   3.506   7.184  0.00  0.00    +0.000 A 
ENDBRANCH  13  14
BRANCH  13  20
ATOM     20  O   UNL     1      43.875   4.040   8.261  0.00  0.00    +0.000 OA
ATOM     21  H   UNL     1      43.867   4.981   8.005  0.00  0.00    +0.000 HD
ENDBRANCH  13  20
ENDBRANCH  12  13
ENDBRANCH   1  12
TORSDOF 7
ENDMDL
MODEL 8
REMARK VINA RESULT:    -5.814      1.760      5.656
REMARK INTER + INTRA:          -8.494
REMARK INTER:                  -7.752
REMARK INTRA:                  -0.742
REMARK UNBOUND:                -0.640
REMARK  Name = 
REMARK  7 active torsions:
REMARK  status: ('A' for Active; 'I' for Inactive)
REMARK    1  A    between atoms: N_1  and  C_2
REMARK    2  A    between atoms: C_2  and  C_3
REMARK    3  A    between atoms: C_6  and  O_7
REMARK    4  A    between atoms: O_7  and  C_8
REMARK    5  A    between atoms: C_8  and  C_9
REMARK    6  A    between atoms: C_9  and  O_10
REMARK    7  A    between atoms: C_9  and  C_11
REMARK                            x       y       z     vdW  Elec       q    Type
REMARK                         _______ _______ _______ _____ _____    ______ ____
ROOT
ATOM      1  O   UNL     1      43.955   4.686  13.292  0.00  0.00    +0.000 OA
ENDROOT
BRANCH   1   5
ATOM      2  C   UNL     1      47.383   7.033  12.754  0.00  0.00    +0.000 A 
ATOM      3  C   UNL     1      47.514   5.736  13.264  0.00  0.00    +0.000 A 
ATOM      4  C   UNL     1      46.394   4.924  13.452  0.00  0.00    +0.000 A 
ATOM      5  C   UNL     1      45.118   5.396  13.143  0.00  0.00    +0.000 A 
ATOM      6  C   UNL     1      44.979   6.693  12.645  0.00  0.00    +0.000 A 
ATOM      7  C   UNL     1      46.102   7.508  12.451  0.00  0.00    +0.000 A 
BRANCH   2   8
ATOM      8  C   UNL     1      48.613   7.881  12.550  0.00  0.00    +0.000 C 
BRANCH   8   9
ATOM      9  N   UNL     1      48.891   8.694  13.730  0.00  0.00    +0.000 NA
ATOM     10  H   UNL     1      48.946   9.673  13.459  0.00  0.00    +0.000 HD
ATOM     11  H   UNL     1      49.809   8.440  14.093  0.00  0.00    +0.000 HD
ENDBRANCH   8   9
ENDBRANCH   2   8
ENDBRANCH   1   5
BRANCH   1  12
ATOM     12  C   UNL     1      43.309   4.285  12.072  0.00  0.00    +0.000 C 
BRANCH  12  13
ATOM     13  C   UNL     1      43.905   2.967  11.551  0.00  0.00    +0.000 C 
BRANCH  13  14
ATOM     14  C   UNL     1      44.620   3.134  10.226  0.00  0.00    +0.000 A 
ATOM     15  C   UNL     1      44.909   4.418   9.742  0.00  0.00    +0.000 A 
ATOM     16  C   UNL     1      45.527   4.537   8.508  0.00  0.00    +0.000 A 
ATOM     17  N   UNL     1      45.871   3.491   7.733  0.00  0.00    +0.000 NA
ATOM     18  C   UNL     1      45.581   2.263   8.214  0.00  0.00    +0.000 A 
ATOM     19  C   UNL     1      44.966   2.035   9.427  0.00  0.00    +0.000 A 
ENDBRANCH  13  14
BRANCH  13  20
ATOM     20  O   UNL     1      42.900   1.955  11.454  0.00  0.00    +0.000 OA
ATOM     21  H   UNL     1      42.647   1.736  12.370  0.00  0.00    +0.000 HD
ENDBRANCH  13  20
ENDBRANCH  12  13
ENDBRANCH   1  12
TORSDOF 7
ENDMDL
MODEL 9
REMARK VINA RESULT:    -5.577      4.025      5.738
REMARK INTER + INTRA:          -8.174
REMARK INTER:                  -7.836
REMARK INTRA:                  -0.338
REMARK UNBOUND:                -0.640
REMARK  Name = 
REMARK  7 active torsions:
REMARK  status: ('A' for Active; 'I' for Inactive)
REMARK    1  A    between atoms: N_1  and  C_2
REMARK    2  A    between atoms: C_2  and  C_3
REMARK    3  A    between atoms: C_6  and  O_7
REMARK    4  A    between atoms: O_7  and  C_8
REMARK    5  A    between atoms: C_8  and  C_9
REMARK    6  A    between atoms: C_9  and  O_10
REMARK    7  A    between atoms: C_9  and  C_11
REMARK                            x       y       z     vdW  Elec       q    Type
REMARK                         _______ _______ _______ _____ _____    ______ ____
ROOT
ATOM      1  O   UNL     1      47.490   5.068  14.621  0.00  0.00    +0.000 OA
ENDROOT
BRANCH   1   5
ATOM      2  C   UNL     1      45.219   4.729  11.117  0.00  0.00    +0.000 A 
ATOM      3  C   UNL     1      45.931   5.910  11.361  0.00  0.00    +0.000 A 
ATOM      4  C   UNL     1      46.702   6.057  12.515  0.00  0.00    +0.000 A 
ATOM      5  C   UNL     1      46.769   5.028  13.455  0.00  0.00    +0.000 A 
ATOM      6  C   UNL     1      46.052   3.852  13.225  0.00  0.00    +0.000 A 
ATOM      7  C   UNL     1      45.282   3.701  12.065  0.00  0.00    +0.000 A 
BRANCH   2   8
ATOM      8  C   UNL     1      44.406   4.597   9.854  0.00  0.00    +0.000 C 
BRANCH   8   9
ATOM      9  N   UNL     1      45.227   4.846   8.674  0.00  0.00    +0.000 NA
ATOM     10  H   UNL     1      45.957   5.516   8.906  0.00  0.00    +0.000 HD
ATOM     11  H   UNL     1      44.646   5.282   7.958  0.00  0.00    +0.000 HD
ENDBRANCH   8   9
ENDBRANCH   2   8
ENDBRANCH   1   5
BRANCH   1  12
ATOM     12  C   UNL     1      47.140   4.080  15.605  0.00  0.00    +0.000 C 
BRANCH  12  13
ATOM     13  C   UNL     1      47.714   4.459  16.980  0.00  0.00    +0.000 C 
BRANCH  13  14
ATOM     14  C   UNL     1      49.071   3.837  17.237  0.00  0.00    +0.000 A 
ATOM     15  C   UNL     1      50.146   4.640  17.642  0.00  0.00    +0.000 A 
ATOM     16  C   UNL     1      51.384   4.046  17.830  0.00  0.00    +0.000 A 
ATOM     17  N   UNL     1      51.626   2.736  17.645  0.00  0.00    +0.000 NA
ATOM     18  C   UNL     1      50.580   1.978  17.250  0.00  0.00    +0.000 A 
ATOM     19  C   UNL     1      49.309   2.470  17.034  0.00  0.00    +0.000 A 
ENDBRANCH  13  14
BRANCH  13  20
ATOM     20  O   UNL     1      46.801   4.119  18.026  0.00  0.00    +0.000 OA
ATOM     21  H   UNL     1      45.998   3.783  17.585  0.00  0.00    +0.000 HD
ENDBRANCH  13  20
ENDBRANCH  12  13
ENDBRANCH   1  12
TORSDOF 7
ENDMDL
