MODEL 1
REMARK VINA RESULT:    -7.566      0.000      0.000
REMARK INTER + INTRA:         -11.060
REMARK INTER:                 -10.220
REMARK INTRA:                  -0.839
REMARK UNBOUND:                -0.839
REMARK  Name = 
REMARK  10 active torsions:
REMARK  status: ('A' for Active; 'I' for Inactive)
REMARK    1  A    between atoms: C_1  and  O_2
REMARK    2  A    between atoms: O_2  and  C_3
REMARK    3  A    between atoms: N_9  and  C_10
REMARK    4  A    between atoms: C_10  and  C_11
REMARK    5  A    between atoms: C_14  and  C_15
REMARK    6  A    between atoms: C_15  and  N_16
REMARK    7  A    between atoms: C_17  and  C_19
REMARK    8  A    between atoms: C_19  and  C_20
REMARK    9  A    between atoms: C_19  and  C_21
REMARK   10  A    between atoms: C_19  and  C_22
REMARK                            x       y       z     vdW  Elec       q    Type
REMARK                         _______ _______ _______ _____ _____    ______ ____
ROOT
ATOM      1  C   UNL     1      45.749   7.112  12.096  0.00  0.00    +0.000 A 
ATOM      2  C   UNL     1      46.804   6.200  12.257  0.00  0.00    +0.000 A 
ATOM      3  C   UNL     1      47.839   6.460  13.165  0.00  0.00    +0.000 A 
ATOM      4  C   UNL     1      47.834   7.632  13.935  0.00  0.00    +0.000 A 
ATOM      5  C   UNL     1      46.865   8.604  13.661  0.00  0.00    +0.000 A 
ATOM      6  C   UNL     1      45.829   8.343  12.757  0.00  0.00    +0.000 A 
ENDROOT
BRANCH   1   7
ATOM      7  C   UNL     1      44.500   6.741  11.322  0.00  0.00    +0.000 C 
BRANCH   7  14
ATOM      8  C   UNL     1      45.715   3.745   8.037  0.00  0.00    +0.000 A 
ATOM      9  C   UNL     1      45.208   2.469   8.264  0.00  0.00    +0.000 A 
ATOM     10  C   UNL     1      44.521   2.181   9.448  0.00  0.00    +0.000 A 
ATOM     11  C   UNL     1      44.310   3.197  10.401  0.00  0.00    +0.000 A 
ATOM     12  C   UNL     1      43.673   3.218  11.669  0.00  0.00    +0.000 A 
ATOM     13  C   UNL     1      43.735   4.506  12.145  0.00  0.00    +0.000 A 
ATOM     14  N   UNL     1      44.365   5.285  11.199  0.00  0.00    +0.000 N 
ATOM     15  C   UNL     1      44.799   4.485  10.152  0.00  0.00    +0.000 A 
ATOM     16  C   UNL     1      45.550   4.762   8.993  0.00  0.00    +0.000 A 
BRANCH   8  18
ATOM     17  C   UNL     1      46.776   3.026   6.051  0.00  0.00    +0.000 C 
ATOM     18  O   UNL     1      46.421   4.105   6.915  0.00  0.00    +0.000 OA
ENDBRANCH   8  18
ENDBRANCH   7  14
ENDBRANCH   1   7
BRANCH   4  19
ATOM     19  C   UNL     1      48.772   7.791  15.106  0.00  0.00    +0.000 C 
BRANCH  19  20
ATOM     20  N   UNL     1      48.301   7.155  16.311  0.00  0.00    +0.000 N 
ATOM     21  C   UNL     1      48.917   6.007  16.782  0.00  0.00    +0.000 C 
ATOM     22  O   UNL     1      49.884   5.506  16.220  0.00  0.00    +0.000 OA
ATOM     23  H   UNL     1      47.425   7.463  16.700  0.00  0.00    +0.000 HD
BRANCH  21  24
ATOM     24  C   UNL     1      48.315   5.432  18.080  0.00  0.00    +0.000 C 
ATOM     25  C   UNL     1      47.224   4.404  17.750  0.00  0.00    +0.000 C 
ATOM     26  C   UNL     1      49.406   4.734  18.916  0.00  0.00    +0.000 C 
ATOM     27  C   UNL     1      47.727   6.582  18.912  0.00  0.00    +0.000 C 
ENDBRANCH  21  24
ENDBRANCH  19  20
ENDBRANCH   4  19
TORSDOF 6
ENDMDL
MODEL 2
REMARK VINA RESULT:    -6.970      2.715      4.229
REMARK INTER + INTRA:         -10.254
REMARK INTER:                  -9.453
REMARK INTRA:                  -0.801
REMARK UNBOUND:                -0.839
REMARK  Name = 
REMARK  10 active torsions:
REMARK  status: ('A' for Active; 'I' for Inactive)
REMARK    1  A    between atoms: C_1  and  O_2
REMARK    2  A    between atoms: O_2  and  C_3
REMARK    3  A    between atoms: N_9  and  C_10
REMARK    4  A    between atoms: C_10  and  C_11
REMARK    5  A    between atoms: C_14  and  C_15
REMARK    6  A    between atoms: C_15  and  N_16
REMARK    7  A    between atoms: C_17  and  C_19
REMARK    8  A    between atoms: C_19  and  C_20
REMARK    9  A    between atoms: C_19  and  C_21
REMARK   10  A    between atoms: C_19  and  C_22
REMARK                            x       y       z     vdW  Elec       q    Type
REMARK                         _______ _______ _______ _____ _____    ______ ____
ROOT
ATOM      1  C   UNL     1      45.689   6.891  12.361  0.00  0.00    +0.000 A 
ATOM      2  C   UNL     1      45.907   8.150  12.942  0.00  0.00    +0.000 A 
ATOM      3  C   UNL     1      47.141   8.458  13.532  0.00  0.00    +0.000 A 
ATOM      4  C   UNL     1      48.179   7.518  13.545  0.00  0.00    +0.000 A 
ATOM      5  C   UNL     1      47.906   6.218  13.103  0.00  0.00    +0.000 A 
ATOM      6  C   UNL     1      46.677   5.910  12.510  0.00  0.00    +0.000 A 
ENDROOT
BRANCH   1   7
ATOM      7  C   UNL     1      44.471   6.623  11.498  0.00  0.00    +0.000 C 
BRANCH   7  14
ATOM      8  C   UNL     1      45.710   3.785   8.085  0.00  0.00    +0.000 A 
ATOM      9  C   UNL     1      45.142   2.520   8.209  0.00  0.00    +0.000 A 
ATOM     10  C   UNL     1      44.391   2.190   9.343  0.00  0.00    +0.000 A 
ATOM     11  C   UNL     1      44.179   3.154  10.348  0.00  0.00    +0.000 A 
ATOM     12  C   UNL     1      43.487   3.125  11.587  0.00  0.00    +0.000 A 
ATOM     13  C   UNL     1      43.580   4.378  12.146  0.00  0.00    +0.000 A 
ATOM     14  N   UNL     1      44.283   5.185  11.279  0.00  0.00    +0.000 N 
ATOM     15  C   UNL     1      44.731   4.433  10.202  0.00  0.00    +0.000 A 
ATOM     16  C   UNL     1      45.544   4.747   9.096  0.00  0.00    +0.000 A 
BRANCH   8  18
ATOM     17  C   UNL     1      46.862   3.137   6.126  0.00  0.00    +0.000 C 
ATOM     18  O   UNL     1      46.479   4.182   7.019  0.00  0.00    +0.000 OA
ENDBRANCH   8  18
ENDBRANCH   7  14
ENDBRANCH   1   7
BRANCH   4  19
ATOM     19  C   UNL     1      49.585   7.924  13.913  0.00  0.00    +0.000 C 
BRANCH  19  20
ATOM     20  N   UNL     1      50.535   7.746  12.842  0.00  0.00    +0.000 N 
ATOM     21  C   UNL     1      51.121   8.847  12.240  0.00  0.00    +0.000 C 
ATOM     22  O   UNL     1      50.882   9.994  12.598  0.00  0.00    +0.000 OA
ATOM     23  H   UNL     1      50.630   6.829  12.440  0.00  0.00    +0.000 HD
BRANCH  21  24
ATOM     24  C   UNL     1      52.118   8.515  11.111  0.00  0.00    +0.000 C 
ATOM     25  C   UNL     1      52.213   9.687  10.124  0.00  0.00    +0.000 C 
ATOM     26  C   UNL     1      53.521   8.251  11.692  0.00  0.00    +0.000 C 
ATOM     27  C   UNL     1      51.647   7.245  10.385  0.00  0.00    +0.000 C 
ENDBRANCH  21  24
ENDBRANCH  19  20
ENDBRANCH   4  19
TORSDOF 6
ENDMDL
MODEL 3
REMARK VINA RESULT:    -6.268      1.945      2.427
REMARK INTER + INTRA:          -9.306
REMARK INTER:                  -8.564
REMARK INTRA:                  -0.742
REMARK UNBOUND:                -0.839
REMARK  Name = 
REMARK  10 active torsions:
REMARK  status: ('A' for Active; 'I' for Inactive)
REMARK    1  A    between atoms: C_1  and  O_2
REMARK    2  A    between atoms: O_2  and  C_3
REMARK    3  A    between atoms: N_9  and  C_10
REMARK    4  A    between atoms: C_10  and  C_11
REMARK    5  A    between atoms: C_14  and  C_15
REMARK    6  A    between atoms: C_15  and  N_16
REMARK    7  A    between atoms: C_17  and  C_19
REMARK    8  A    between atoms: C_19  and  C_20
REMARK    9  A    between atoms: C_19  and  C_21
REMARK   10  A    between atoms: C_19  and  C_22
REMARK                            x       y       z     vdW  Elec       q    Type
REMARK                         _______ _______ _______ _____ _____    ______ ____
ROOT
ATOM      1  C   UNL     1      44.803   7.356  11.855  0.00  0.00    +0.000 A 
ATOM      2  C   UNL     1      45.051   8.736  11.790  0.00  0.00    +0.000 A 
ATOM      3  C   UNL     1      46.270   9.264  12.236  0.00  0.00    +0.000 A 
ATOM      4  C   UNL     1      47.267   8.421  12.747  0.00  0.00    +0.000 A 
ATOM      5  C   UNL     1      46.957   7.071  12.950  0.00  0.00    +0.000 A 
ATOM      6  C   UNL     1      45.742   6.543  12.501  0.00  0.00    +0.000 A 
ENDROOT
BRANCH   1   7
ATOM      7  C   UNL     1      43.612   6.736  11.150  0.00  0.00    +0.000 C 
BRANCH   7  14
ATOM      8  C   UNL     1      45.655   3.817   8.226  0.00  0.00    +0.000 A 
ATOM      9  C   UNL     1      45.330   2.489   8.484  0.00  0.00    +0.000 A 
ATOM     10  C   UNL     1      44.562   2.153   9.604  0.00  0.00    +0.000 A 
ATOM     11  C   UNL     1      44.085   3.167  10.457  0.00  0.00    +0.000 A 
ATOM     12  C   UNL     1      43.309   3.148  11.644  0.00  0.00    +0.000 A 
ATOM     13  C   UNL     1      43.114   4.451  12.036  0.00  0.00    +0.000 A 
ATOM     14  N   UNL     1      43.721   5.274  11.113  0.00  0.00    +0.000 N 
ATOM     15  C   UNL     1      44.394   4.504  10.176  0.00  0.00    +0.000 A 
ATOM     16  C   UNL     1      45.223   4.840   9.088  0.00  0.00    +0.000 A 
BRANCH   8  18
ATOM     17  C   UNL     1      46.817   3.197   6.264  0.00  0.00    +0.000 C 
ATOM     18  O   UNL     1      46.423   4.230   7.165  0.00  0.00    +0.000 OA
ENDBRANCH   8  18
ENDBRANCH   7  14
ENDBRANCH   1   7
BRANCH   4  19
ATOM     19  C   UNL     1      48.672   8.927  12.961  0.00  0.00    +0.000 C 
BRANCH  19  20
ATOM     20  N   UNL     1      49.337   8.320  14.087  0.00  0.00    +0.000 N 
ATOM     21  C   UNL     1      49.632   9.070  15.213  0.00  0.00    +0.000 C 
ATOM     22  O   UNL     1      49.326  10.253  15.309  0.00  0.00    +0.000 OA
ATOM     23  H   UNL     1      49.725   7.399  13.968  0.00  0.00    +0.000 HD
BRANCH  21  24
ATOM     24  C   UNL     1      50.343   8.297  16.342  0.00  0.00    +0.000 C 
ATOM     25  C   UNL     1      50.397   6.799  16.008  0.00  0.00    +0.000 C 
ATOM     26  C   UNL     1      51.786   8.810  16.520  0.00  0.00    +0.000 C 
ATOM     27  C   UNL     1      49.582   8.521  17.658  0.00  0.00    +0.000 C 
ENDBRANCH  21  24
ENDBRANCH  19  20
ENDBRANCH   4  19
TORSDOF 6
ENDMDL
MODEL 4
REMARK VINA RESULT:    -6.267      1.758      7.752
REMARK INTER + INTRA:          -9.305
REMARK INTER:                  -8.184
REMARK INTRA:                  -1.121
REMARK UNBOUND:                -0.839
REMARK  Name = 
REMARK  10 active torsions:
REMARK  status: ('A' for Active; 'I' for Inactive)
REMARK    1  A    between atoms: C_1  and  O_2
REMARK    2  A    between atoms: O_2  and  C_3
REMARK    3  A    between atoms: N_9  and  C_10
REMARK    4  A    between atoms: C_10  and  C_11
REMARK    5  A    between atoms: C_14  and  C_15
REMARK    6  A    between atoms: C_15  and  N_16
REMARK    7  A    between atoms: C_17  and  C_19
REMARK    8  A    between atoms: C_19  and  C_20
REMARK    9  A    between atoms: C_19  and  C_21
REMARK   10  A    between atoms: C_19  and  C_22
REMARK                            x       y       z     vdW  Elec       q    Type
REMARK                         _______ _______ _______ _____ _____    ______ ____
ROOT
ATOM      1  C   UNL     1      48.990   7.840  13.943  0.00  0.00    +0.000 A 
ATOM      2  C   UNL     1      47.901   8.692  14.181  0.00  0.00    +0.000 A 
ATOM      3  C   UNL     1      46.775   8.660  13.346  0.00  0.00    +0.000 A 
ATOM      4  C   UNL     1      46.715   7.770  12.265  0.00  0.00    +0.000 A 
ATOM      5  C   UNL     1      47.861   7.034  11.944  0.00  0.00    +0.000 A 
ATOM      6  C   UNL     1      48.984   7.063  12.779  0.00  0.00    +0.000 A 
ENDROOT
BRANCH   1   7
ATOM      7  C   UNL     1      50.095   7.672  14.967  0.00  0.00    +0.000 C 
BRANCH   7  14
ATOM      8  C   UNL     1      47.521   4.666  17.329  0.00  0.00    +0.000 A 
ATOM      9  C   UNL     1      47.081   5.180  18.545  0.00  0.00    +0.000 A 
ATOM     10  C   UNL     1      47.520   6.433  18.984  0.00  0.00    +0.000 A 
ATOM     11  C   UNL     1      48.386   7.195  18.176  0.00  0.00    +0.000 A 
ATOM     12  C   UNL     1      48.997   8.465  18.340  0.00  0.00    +0.000 A 
ATOM     13  C   UNL     1      49.724   8.729  17.203  0.00  0.00    +0.000 A 
ATOM     14  N   UNL     1      49.558   7.675  16.332  0.00  0.00    +0.000 N 
ATOM     15  C   UNL     1      48.803   6.683  16.941  0.00  0.00    +0.000 A 
ATOM     16  C   UNL     1      48.418   5.393  16.527  0.00  0.00    +0.000 A 
BRANCH   8  18
ATOM     17  C   UNL     1      48.240   2.539  16.591  0.00  0.00    +0.000 C 
ATOM     18  O   UNL     1      47.159   3.436  16.836  0.00  0.00    +0.000 OA
ENDBRANCH   8  18
ENDBRANCH   7  14
ENDBRANCH   1   7
BRANCH   4  19
ATOM     19  C   UNL     1      45.415   7.523  11.539  0.00  0.00    +0.000 C 
BRANCH  19  20
ATOM     20  N   UNL     1      44.890   6.194  11.736  0.00  0.00    +0.000 N 
ATOM     21  C   UNL     1      45.079   5.219  10.771  0.00  0.00    +0.000 C 
ATOM     22  O   UNL     1      45.707   5.431   9.740  0.00  0.00    +0.000 OA
ATOM     23  H   UNL     1      44.251   6.044  12.499  0.00  0.00    +0.000 HD
BRANCH  21  24
ATOM     24  C   UNL     1      44.467   3.844  11.109  0.00  0.00    +0.000 C 
ATOM     25  C   UNL     1      42.984   3.997  11.473  0.00  0.00    +0.000 C 
ATOM     26  C   UNL     1      44.578   2.894   9.900  0.00  0.00    +0.000 C 
ATOM     27  C   UNL     1      45.242   3.227  12.284  0.00  0.00    +0.000 C 
ENDBRANCH  21  24
ENDBRANCH  19  20
ENDBRANCH   4  19
TORSDOF 6
ENDMDL
MODEL 5
REMARK VINA RESULT:    -5.795      1.578      8.449
REMARK INTER + INTRA:          -8.667
REMARK INTER:                  -7.650
REMARK INTRA:                  -1.017
REMARK UNBOUND:                -0.839
REMARK  Name = 
REMARK  10 active torsions:
REMARK  status: ('A' for Active; 'I' for Inactive)
REMARK    1  A    between atoms: C_1  and  O_2
REMARK    2  A    between atoms: O_2  and  C_3
REMARK    3  A    between atoms: N_9  and  C_10
REMARK    4  A    between atoms: C_10  and  C_11
REMARK    5  A    between atoms: C_14  and  C_15
REMARK    6  A    between atoms: C_15  and  N_16
REMARK    7  A    between atoms: C_17  and  C_19
REMARK    8  A    between atoms: C_19  and  C_20
REMARK    9  A    between atoms: C_19  and  C_21
REMARK   10  A    between atoms: C_19  and  C_22
REMARK                            x       y       z     vdW  Elec       q    Type
REMARK                         _______ _______ _______ _____ _____    ______ ____
ROOT
ATOM      1  C   UNL     1      47.577   6.942  13.725  0.00  0.00    +0.000 A 
ATOM      2  C   UNL     1      47.198   5.600  13.568  0.00  0.00    +0.000 A 
ATOM      3  C   UNL     1      46.073   5.261  12.804  0.00  0.00    +0.000 A 
ATOM      4  C   UNL     1      45.312   6.257  12.177  0.00  0.00    +0.000 A 
ATOM      5  C   UNL     1      45.604   7.597  12.461  0.00  0.00    +0.000 A 
ATOM      6  C   UNL     1      46.729   7.935  13.221  0.00  0.00    +0.000 A 
ENDROOT
BRANCH   1   7
ATOM      7  C   UNL     1      48.920   7.315  14.323  0.00  0.00    +0.000 C 
BRANCH   7  14
ATOM      8  C   UNL     1      48.352   4.896  18.204  0.00  0.00    +0.000 A 
ATOM      9  C   UNL     1      48.072   5.705  19.301  0.00  0.00    +0.000 A 
ATOM     10  C   UNL     1      48.103   7.099  19.179  0.00  0.00    +0.000 A 
ATOM     11  C   UNL     1      48.384   7.686  17.930  0.00  0.00    +0.000 A 
ATOM     12  C   UNL     1      48.492   9.033  17.497  0.00  0.00    +0.000 A 
ATOM     13  C   UNL     1      48.754   9.017  16.147  0.00  0.00    +0.000 A 
ATOM     14  N   UNL     1      48.784   7.705  15.730  0.00  0.00    +0.000 N 
ATOM     15  C   UNL     1      48.638   6.866  16.825  0.00  0.00    +0.000 A 
ATOM     16  C   UNL     1      48.676   5.464  16.960  0.00  0.00    +0.000 A 
BRANCH   8  18
ATOM     17  C   UNL     1      48.127   2.878  16.994  0.00  0.00    +0.000 C 
ATOM     18  O   UNL     1      48.368   3.523  18.244  0.00  0.00    +0.000 OA
ENDBRANCH   8  18
ENDBRANCH   7  14
ENDBRANCH   1   7
BRANCH   4  19
ATOM     19  C   UNL     1      44.284   5.901  11.132  0.00  0.00    +0.000 C 
BRANCH  19  20
ATOM     20  N   UNL     1      44.841   5.244   9.976  0.00  0.00    +0.000 N 
ATOM     21  C   UNL     1      44.534   3.921   9.708  0.00  0.00    +0.000 C 
ATOM     22  O   UNL     1      43.772   3.270  10.414  0.00  0.00    +0.000 OA
ATOM     23  H   UNL     1      45.578   5.712   9.473  0.00  0.00    +0.000 HD
BRANCH  21  24
ATOM     24  C   UNL     1      45.196   3.343   8.441  0.00  0.00    +0.000 C 
ATOM     25  C   UNL     1      44.183   3.288   7.289  0.00  0.00    +0.000 C 
ATOM     26  C   UNL     1      46.384   4.224   8.005  0.00  0.00    +0.000 C 
ATOM     27  C   UNL     1      45.725   1.935   8.750  0.00  0.00    +0.000 C 
ENDBRANCH  21  24
ENDBRANCH  19  20
ENDBRANCH   4  19
TORSDOF 6
ENDMDL
MODEL 6
REMARK VINA RESULT:    -5.388      3.724      9.381
REMARK INTER + INTRA:          -8.117
REMARK INTER:                  -7.196
REMARK INTRA:                  -0.922
REMARK UNBOUND:                -0.839
REMARK  Name = 
REMARK  10 active torsions:
REMARK  status: ('A' for Active; 'I' for Inactive)
REMARK    1  A    between atoms: C_1  and  O_2
REMARK    2  A    between atoms: O_2  and  C_3
REMARK    3  A    between atoms: N_9  and  C_10
REMARK    4  A    between atoms: C_10  and  C_11
REMARK    5  A    between atoms: C_14  and  C_15
REMARK    6  A    between atoms: C_15  and  N_16
REMARK    7  A    between atoms: C_17  and  C_19
REMARK    8  A    between atoms: C_19  and  C_20
REMARK    9  A    between atoms: C_19  and  C_21
REMARK   10  A    between atoms: C_19  and  C_22
REMARK                            x       y       z     vdW  Elec       q    Type
REMARK                         _______ _______ _______ _____ _____    ______ ____
ROOT
ATOM      1  C   UNL     1      49.178   4.578  17.933  0.00  0.00    +0.000 A 
ATOM      2  C   UNL     1      48.674   3.275  17.807  0.00  0.00    +0.000 A 
ATOM      3  C   UNL     1      47.883   2.919  16.706  0.00  0.00    +0.000 A 
ATOM      4  C   UNL     1      47.589   3.857  15.707  0.00  0.00    +0.000 A 
ATOM      5  C   UNL     1      47.965   5.190  15.914  0.00  0.00    +0.000 A 
ATOM      6  C   UNL     1      48.758   5.545  17.011  0.00  0.00    +0.000 A 
ENDROOT
BRANCH   1   7
ATOM      7  C   UNL     1      50.235   4.917  18.966  0.00  0.00    +0.000 C 
BRANCH   7  14
ATOM      8  C   UNL     1      53.268   1.582  18.005  0.00  0.00    +0.000 A 
ATOM      9  C   UNL     1      54.506   2.082  17.615  0.00  0.00    +0.000 A 
ATOM     10  C   UNL     1      54.689   3.458  17.437  0.00  0.00    +0.000 A 
ATOM     11  C   UNL     1      53.624   4.345  17.689  0.00  0.00    +0.000 A 
ATOM     12  C   UNL     1      53.496   5.755  17.596  0.00  0.00    +0.000 A 
ATOM     13  C   UNL     1      52.225   6.086  18.002  0.00  0.00    +0.000 A 
ATOM     14  N   UNL     1      51.575   4.928  18.368  0.00  0.00    +0.000 N 
ATOM     15  C   UNL     1      52.389   3.835  18.108  0.00  0.00    +0.000 A 
ATOM     16  C   UNL     1      52.181   2.447  18.221  0.00  0.00    +0.000 A 
BRANCH   8  18
ATOM     17  C   UNL     1      54.144  -0.596  18.283  0.00  0.00    +0.000 C 
ATOM     18  O   UNL     1      52.997   0.246  18.178  0.00  0.00    +0.000 OA
ENDBRANCH   8  18
ENDBRANCH   7  14
ENDBRANCH   1   7
BRANCH   4  19
ATOM     19  C   UNL     1      46.990   3.424  14.392  0.00  0.00    +0.000 C 
BRANCH  19  20
ATOM     20  N   UNL     1      46.426   4.511  13.631  0.00  0.00    +0.000 N 
ATOM     21  C   UNL     1      45.402   4.274  12.729  0.00  0.00    +0.000 C 
ATOM     22  O   UNL     1      44.924   3.158  12.559  0.00  0.00    +0.000 OA
ATOM     23  H   UNL     1      46.900   5.398  13.647  0.00  0.00    +0.000 HD
BRANCH  21  24
ATOM     24  C   UNL     1      44.890   5.524  11.984  0.00  0.00    +0.000 C 
ATOM     25  C   UNL     1      43.367   5.450  11.806  0.00  0.00    +0.000 C 
ATOM     26  C   UNL     1      45.229   6.800  12.778  0.00  0.00    +0.000 C 
ATOM     27  C   UNL     1      45.581   5.607  10.614  0.00  0.00    +0.000 C 
ENDBRANCH  21  24
ENDBRANCH  19  20
ENDBRANCH   4  19
TORSDOF 6
ENDMDL
MODEL 7
REMARK VINA RESULT:    -5.377      2.488      8.694
REMARK INTER + INTRA:          -8.102
REMARK INTER:                  -7.225
REMARK INTRA:                  -0.877
REMARK UNBOUND:                -0.839
REMARK  Name = 
REMARK  10 active torsions:
REMARK  status: ('A' for Active; 'I' for Inactive)
REMARK    1  A    between atoms: C_1  and  O_2
REMARK    2  A    between atoms: O_2  and  C_3
REMARK    3  A    between atoms: N_9  and  C_10
REMARK    4  A    between atoms: C_10  and  C_11
REMARK    5  A    between atoms: C_14  and  C_15
REMARK    6  A    between atoms: C_15  and  N_16
REMARK    7  A    between atoms: C_17  and  C_19
REMARK    8  A    between atoms: C_19  and  C_20
REMARK    9  A    between atoms: C_19  and  C_21
REMARK   10  A    between atoms: C_19  and  C_22
REMARK                            x       y       z     vdW  Elec       q    Type
REMARK                         _______ _______ _______ _____ _____    ______ ____
ROOT
ATOM      1  C   UNL     1      49.746   7.673  14.341  0.00  0.00    +0.000 A 
ATOM      2  C   UNL     1      49.976   8.006  12.997  0.00  0.00    +0.000 A 
ATOM      3  C   UNL     1      49.047   7.657  12.007  0.00  0.00    +0.000 A 
ATOM      4  C   UNL     1      47.868   6.979  12.344  0.00  0.00    +0.000 A 
ATOM      5  C   UNL     1      47.717   6.517  13.657  0.00  0.00    +0.000 A 
ATOM      6  C   UNL     1      48.642   6.868  14.646  0.00  0.00    +0.000 A 
ENDROOT
BRANCH   1   7
ATOM      7  C   UNL     1      50.597   8.257  15.452  0.00  0.00    +0.000 C 
BRANCH   7  14
ATOM      8  C   UNL     1      51.052   4.564  18.172  0.00  0.00    +0.000 A 
ATOM      9  C   UNL     1      52.377   4.166  18.315  0.00  0.00    +0.000 A 
ATOM     10  C   UNL     1      53.388   4.794  17.578  0.00  0.00    +0.000 A 
ATOM     11  C   UNL     1      53.066   5.859  16.714  0.00  0.00    +0.000 A 
ATOM     12  C   UNL     1      53.844   6.673  15.850  0.00  0.00    +0.000 A 
ATOM     13  C   UNL     1      52.999   7.588  15.267  0.00  0.00    +0.000 A 
ATOM     14  N   UNL     1      51.731   7.382  15.765  0.00  0.00    +0.000 N 
ATOM     15  C   UNL     1      51.734   6.271  16.597  0.00  0.00    +0.000 A 
ATOM     16  C   UNL     1      50.705   5.597  17.284  0.00  0.00    +0.000 A 
BRANCH   8  18
ATOM     17  C   UNL     1      48.920   3.558  18.007  0.00  0.00    +0.000 C 
ATOM     18  O   UNL     1      49.999   3.985  18.837  0.00  0.00    +0.000 OA
ENDBRANCH   8  18
ENDBRANCH   7  14
ENDBRANCH   1   7
BRANCH   4  19
ATOM     19  C   UNL     1      46.739   6.851  11.351  0.00  0.00    +0.000 C 
BRANCH  19  20
ATOM     20  N   UNL     1      45.857   5.743  11.621  0.00  0.00    +0.000 N 
ATOM     21  C   UNL     1      45.362   4.974  10.581  0.00  0.00    +0.000 C 
ATOM     22  O   UNL     1      45.665   5.183   9.411  0.00  0.00    +0.000 OA
ATOM     23  H   UNL     1      45.483   5.650  12.551  0.00  0.00    +0.000 HD
BRANCH  21  24
ATOM     24  C   UNL     1      44.432   3.821  11.010  0.00  0.00    +0.000 C 
ATOM     25  C   UNL     1      44.999   3.114  12.249  0.00  0.00    +0.000 C 
ATOM     26  C   UNL     1      43.030   4.362  11.355  0.00  0.00    +0.000 C 
ATOM     27  C   UNL     1      44.297   2.828   9.846  0.00  0.00    +0.000 C 
ENDBRANCH  21  24
ENDBRANCH  19  20
ENDBRANCH   4  19
TORSDOF 6
ENDMDL
MODEL 8
REMARK VINA RESULT:    -5.321      1.907      8.862
REMARK INTER + INTRA:          -8.027
REMARK INTER:                  -7.130
REMARK INTRA:                  -0.897
REMARK UNBOUND:                -0.839
REMARK  Name = 
REMARK  10 active torsions:
REMARK  status: ('A' for Active; 'I' for Inactive)
REMARK    1  A    between atoms: C_1  and  O_2
REMARK    2  A    between atoms: O_2  and  C_3
REMARK    3  A    between atoms: N_9  and  C_10
REMARK    4  A    between atoms: C_10  and  C_11
REMARK    5  A    between atoms: C_14  and  C_15
REMARK    6  A    between atoms: C_15  and  N_16
REMARK    7  A    between atoms: C_17  and  C_19
REMARK    8  A    between atoms: C_19  and  C_20
REMARK    9  A    between atoms: C_19  and  C_21
REMARK   10  A    between atoms: C_19  and  C_22
REMARK                            x       y       z     vdW  Elec       q    Type
REMARK                         _______ _______ _______ _____ _____    ______ ____
ROOT
ATOM      1  C   UNL     1      48.746   8.106  15.575  0.00  0.00    +0.000 A 
ATOM      2  C   UNL     1      48.694   6.743  15.246  0.00  0.00    +0.000 A 
ATOM      3  C   UNL     1      48.014   6.311  14.098  0.00  0.00    +0.000 A 
ATOM      4  C   UNL     1      47.382   7.236  13.256  0.00  0.00    +0.000 A 
ATOM      5  C   UNL     1      47.307   8.571  13.669  0.00  0.00    +0.000 A 
ATOM      6  C   UNL     1      47.989   9.003  14.812  0.00  0.00    +0.000 A 
ENDROOT
BRANCH   1   7
ATOM      7  C   UNL     1      49.680   8.619  16.653  0.00  0.00    +0.000 C 
BRANCH   7  14
ATOM      8  C   UNL     1      48.456   5.606  19.919  0.00  0.00    +0.000 A 
ATOM      9  C   UNL     1      47.627   6.171  20.883  0.00  0.00    +0.000 A 
ATOM     10  C   UNL     1      47.346   7.542  20.859  0.00  0.00    +0.000 A 
ATOM     11  C   UNL     1      47.877   8.348  19.834  0.00  0.00    +0.000 A 
ATOM     12  C   UNL     1      47.783   9.735  19.546  0.00  0.00    +0.000 A 
ATOM     13  C   UNL     1      48.483   9.968  18.386  0.00  0.00    +0.000 A 
ATOM     14  N   UNL     1      48.981   8.766  17.934  0.00  0.00    +0.000 N 
ATOM     15  C   UNL     1      48.688   7.767  18.852  0.00  0.00    +0.000 A 
ATOM     16  C   UNL     1      49.029   6.402  18.912  0.00  0.00    +0.000 A 
BRANCH   8  18
ATOM     17  C   UNL     1      48.638   3.642  18.618  0.00  0.00    +0.000 C 
ATOM     18  O   UNL     1      48.802   4.278  19.884  0.00  0.00    +0.000 OA
ENDBRANCH   8  18
ENDBRANCH   7  14
ENDBRANCH   1   7
BRANCH   4  19
ATOM     19  C   UNL     1      46.898   6.828  11.886  0.00  0.00    +0.000 C 
BRANCH  19  20
ATOM     20  N   UNL     1      45.902   5.786  11.914  0.00  0.00    +0.000 N 
ATOM     21  C   UNL     1      45.444   5.226  10.733  0.00  0.00    +0.000 C 
ATOM     22  O   UNL     1      45.875   5.567   9.637  0.00  0.00    +0.000 OA
ATOM     23  H   UNL     1      45.434   5.600  12.785  0.00  0.00    +0.000 HD
BRANCH  21  24
ATOM     24  C   UNL     1      44.381   4.122  10.906  0.00  0.00    +0.000 C 
ATOM     25  C   UNL     1      44.701   3.264  12.138  0.00  0.00    +0.000 C 
ATOM     26  C   UNL     1      42.984   4.746  11.095  0.00  0.00    +0.000 C 
ATOM     27  C   UNL     1      44.356   3.249   9.643  0.00  0.00    +0.000 C 
ENDBRANCH  21  24
ENDBRANCH  19  20
ENDBRANCH   4  19
TORSDOF 6
ENDMDL
MODEL 9
REMARK VINA RESULT:    -5.183      2.375      8.101
REMARK INTER + INTRA:          -7.840
REMARK INTER:                  -6.854
REMARK INTRA:                  -0.987
REMARK UNBOUND:                -0.839
REMARK  Name = 
REMARK  10 active torsions:
REMARK  status: ('A' for Active; 'I' for Inactive)
REMARK    1  A    between atoms: C_1  and  O_2
REMARK    2  A    between atoms: O_2  and  C_3
REMARK    3  A    between atoms: N_9  and  C_10
REMARK    4  A    between atoms: C_10  and  C_11
REMARK    5  A    between atoms: C_14  and  C_15
REMARK    6  A    between atoms: C_15  and  N_16
REMARK    7  A    between atoms: C_17  and  C_19
REMARK    8  A    between atoms: C_19  and  C_20
REMARK    9  A    between atoms: C_19  and  C_21
REMARK   10  A    between atoms: C_19  and  C_22
REMARK                            x       y       z     vdW  Elec       q    Type
REMARK                         _______ _______ _______ _____ _____    ______ ____
ROOT
ATOM      1  C   UNL     1      49.666   8.154  15.301  0.00  0.00    +0.000 A 
ATOM      2  C   UNL     1      48.838   9.263  15.070  0.00  0.00    +0.000 A 
ATOM      3  C   UNL     1      47.829   9.210  14.098  0.00  0.00    +0.000 A 
ATOM      4  C   UNL     1      47.624   8.045  13.347  0.00  0.00    +0.000 A 
ATOM      5  C   UNL     1      48.547   7.000  13.475  0.00  0.00    +0.000 A 
ATOM      6  C   UNL     1      49.552   7.051  14.447  0.00  0.00    +0.000 A 
ENDROOT
BRANCH   1   7
ATOM      7  C   UNL     1      50.583   8.094  16.507  0.00  0.00    +0.000 C 
BRANCH   7  14
ATOM      8  C   UNL     1      49.536   3.775  17.727  0.00  0.00    +0.000 A 
ATOM      9  C   UNL     1      48.693   3.721  18.832  0.00  0.00    +0.000 A 
ATOM     10  C   UNL     1      48.349   4.892  19.517  0.00  0.00    +0.000 A 
ATOM     11  C   UNL     1      48.831   6.136  19.064  0.00  0.00    +0.000 A 
ATOM     12  C   UNL     1      48.671   7.465  19.534  0.00  0.00    +0.000 A 
ATOM     13  C   UNL     1      49.345   8.297  18.671  0.00  0.00    +0.000 A 
ATOM     14  N   UNL     1      49.893   7.525  17.670  0.00  0.00    +0.000 N 
ATOM     15  C   UNL     1      49.657   6.184  17.934  0.00  0.00    +0.000 A 
ATOM     16  C   UNL     1      50.060   5.001  17.284  0.00  0.00    +0.000 A 
BRANCH   8  18
ATOM     17  C   UNL     1      51.205   2.134  17.400  0.00  0.00    +0.000 C 
ATOM     18  O   UNL     1      49.942   2.673  17.014  0.00  0.00    +0.000 OA
ENDBRANCH   8  18
ENDBRANCH   7  14
ENDBRANCH   1   7
BRANCH   4  19
ATOM     19  C   UNL     1      46.379   7.873  12.512  0.00  0.00    +0.000 C 
BRANCH  19  20
ATOM     20  N   UNL     1      45.847   6.533  12.542  0.00  0.00    +0.000 N 
ATOM     21  C   UNL     1      44.630   6.251  11.946  0.00  0.00    +0.000 C 
ATOM     22  O   UNL     1      43.975   7.106  11.359  0.00  0.00    +0.000 OA
ATOM     23  H   UNL     1      46.294   5.858  13.141  0.00  0.00    +0.000 HD
BRANCH  21  24
ATOM     24  C   UNL     1      44.180   4.780  12.050  0.00  0.00    +0.000 C 
ATOM     25  C   UNL     1      45.341   3.902  12.536  0.00  0.00    +0.000 C 
ATOM     26  C   UNL     1      43.013   4.643  13.048  0.00  0.00    +0.000 C 
ATOM     27  C   UNL     1      43.697   4.306  10.671  0.00  0.00    +0.000 C 
ENDBRANCH  21  24
ENDBRANCH  19  20
ENDBRANCH   4  19
TORSDOF 6
ENDMDL
