MODEL 1
REMARK VINA RESULT:    -7.485      0.000      0.000
REMARK INTER + INTRA:          -9.315
REMARK INTER:                  -8.798
REMARK INTRA:                  -0.516
REMARK UNBOUND:                -0.516
REMARK  Name = 
REMARK  3 active torsions:
REMARK  status: ('A' for Active; 'I' for Inactive)
REMARK    1  A    between atoms: C_2  and  C_4
REMARK    2  A    between atoms: N_8  and  C_9
REMARK    3  A    between atoms: C_9  and  C_10
REMARK                            x       y       z     vdW  Elec       q    Type
REMARK                         _______ _______ _______ _____ _____    ______ ____
ROOT
ATOM      1  C   UNL     1      49.521   7.720  12.790  0.00  0.00    +0.000 A 
ATOM      2  C   UNL     1      48.630   7.786  11.721  0.00  0.00    +0.000 A 
ATOM      3  C   UNL     1      47.351   7.248  11.873  0.00  0.00    +0.000 A 
ATOM      4  C   UNL     1      46.982   6.658  13.078  0.00  0.00    +0.000 A 
ATOM      5  N   UNL     1      45.753   6.123  13.321  0.00  0.00    +0.000 N 
ATOM      6  N   UNL     1      47.844   6.577  14.110  0.00  0.00    +0.000 NA
ATOM      7  C   UNL     1      49.091   7.091  13.947  0.00  0.00    +0.000 A 
ATOM      8  H   UNL     1      45.660   5.737  14.253  0.00  0.00    +0.000 HD
ENDROOT
BRANCH   1  10
ATOM      9  N   UNL     1      51.726   7.952  13.772  0.00  0.00    +0.000 N 
ATOM     10  C   UNL     1      50.890   8.265  12.737  0.00  0.00    +0.000 C 
ATOM     11  O   UNL     1      51.278   8.932  11.788  0.00  0.00    +0.000 OA
ATOM     12  H   UNL     1      52.692   8.241  13.673  0.00  0.00    +0.000 HD
ATOM     13  H   UNL     1      51.527   7.213  14.431  0.00  0.00    +0.000 HD
ENDBRANCH   1  10
BRANCH   5  14
ATOM     14  C   UNL     1      44.611   6.144  12.451  0.00  0.00    +0.000 C 
BRANCH  14  15
ATOM     15  C   UNL     1      44.267   4.790  11.881  0.00  0.00    +0.000 A 
ATOM     16  C   UNL     1      43.477   3.839  12.520  0.00  0.00    +0.000 A 
ATOM     17  C   UNL     1      43.280   2.621  11.890  0.00  0.00    +0.000 A 
ATOM     18  N   UNL     1      43.816   2.286  10.694  0.00  0.00    +0.000 NA
ATOM     19  C   UNL     1      44.558   3.211  10.055  0.00  0.00    +0.000 A 
ATOM     20  N   UNL     1      45.215   2.889   8.889  0.00  0.00    +0.000 N 
ATOM     21  C   UNL     1      45.484   1.488   8.570  0.00  0.00    +0.000 C 
ATOM     22  C   UNL     1      46.813   1.464   7.788  0.00  0.00    +0.000 C 
ATOM     23  O   UNL     1      46.749   2.282   6.601  0.00  0.00    +0.000 OA
ATOM     24  C   UNL     1      46.420   3.646   6.930  0.00  0.00    +0.000 C 
ATOM     25  C   UNL     1      45.094   3.739   7.702  0.00  0.00    +0.000 C 
ATOM     26  C   UNL     1      44.782   4.463  10.622  0.00  0.00    +0.000 A 
ENDBRANCH  14  15
ENDBRANCH   5  14
TORSDOF 3
ENDMDL
MODEL 2
REMARK VINA RESULT:    -7.447      1.760      7.134
REMARK INTER + INTRA:          -9.269
REMARK INTER:                  -8.742
REMARK INTRA:                  -0.528
REMARK UNBOUND:                -0.516
REMARK  Name = 
REMARK  3 active torsions:
REMARK  status: ('A' for Active; 'I' for Inactive)
REMARK    1  A    between atoms: C_2  and  C_4
REMARK    2  A    between atoms: N_8  and  C_9
REMARK    3  A    between atoms: C_9  and  C_10
REMARK                            x       y       z     vdW  Elec       q    Type
REMARK                         _______ _______ _______ _____ _____    ______ ____
ROOT
ATOM      1  C   UNL     1      46.653   2.720   7.268  0.00  0.00    +0.000 A 
ATOM      2  C   UNL     1      46.629   4.053   7.677  0.00  0.00    +0.000 A 
ATOM      3  C   UNL     1      45.915   4.395   8.826  0.00  0.00    +0.000 A 
ATOM      4  C   UNL     1      45.242   3.412   9.546  0.00  0.00    +0.000 A 
ATOM      5  N   UNL     1      44.535   3.651  10.686  0.00  0.00    +0.000 N 
ATOM      6  N   UNL     1      45.248   2.125   9.149  0.00  0.00    +0.000 NA
ATOM      7  C   UNL     1      45.935   1.805   8.020  0.00  0.00    +0.000 A 
ATOM      8  H   UNL     1      44.111   2.818  11.078  0.00  0.00    +0.000 HD
ENDROOT
BRANCH   1  10
ATOM      9  N   UNL     1      47.145   2.911   4.902  0.00  0.00    +0.000 N 
ATOM     10  C   UNL     1      47.383   2.252   6.076  0.00  0.00    +0.000 C 
ATOM     11  O   UNL     1      48.199   1.343   6.139  0.00  0.00    +0.000 OA
ATOM     12  H   UNL     1      47.728   2.653   4.115  0.00  0.00    +0.000 HD
ATOM     13  H   UNL     1      46.681   3.807   4.863  0.00  0.00    +0.000 HD
ENDBRANCH   1  10
BRANCH   5  14
ATOM     14  C   UNL     1      44.426   4.896  11.394  0.00  0.00    +0.000 C 
BRANCH  14  15
ATOM     15  C   UNL     1      45.541   5.121  12.385  0.00  0.00    +0.000 A 
ATOM     16  C   UNL     1      45.804   4.305  13.480  0.00  0.00    +0.000 A 
ATOM     17  C   UNL     1      46.839   4.660  14.329  0.00  0.00    +0.000 A 
ATOM     18  N   UNL     1      47.610   5.761  14.171  0.00  0.00    +0.000 NA
ATOM     19  C   UNL     1      47.382   6.541  13.097  0.00  0.00    +0.000 A 
ATOM     20  N   UNL     1      48.063   7.728  12.945  0.00  0.00    +0.000 N 
ATOM     21  C   UNL     1      48.684   8.363  14.106  0.00  0.00    +0.000 C 
ATOM     22  C   UNL     1      48.610   9.884  13.864  0.00  0.00    +0.000 C 
ATOM     23  O   UNL     1      49.261  10.263  12.633  0.00  0.00    +0.000 OA
ATOM     24  C   UNL     1      48.677   9.578  11.508  0.00  0.00    +0.000 C 
ATOM     25  C   UNL     1      48.731   8.051  11.682  0.00  0.00    +0.000 C 
ATOM     26  C   UNL     1      46.368   6.233  12.193  0.00  0.00    +0.000 A 
ENDBRANCH  14  15
ENDBRANCH   5  14
TORSDOF 3
ENDMDL
MODEL 3
REMARK VINA RESULT:    -6.925      5.041      6.479
REMARK INTER + INTRA:          -8.656
REMARK INTER:                  -8.209
REMARK INTRA:                  -0.446
REMARK UNBOUND:                -0.516
REMARK  Name = 
REMARK  3 active torsions:
REMARK  status: ('A' for Active; 'I' for Inactive)
REMARK    1  A    between atoms: C_2  and  C_4
REMARK    2  A    between atoms: N_8  and  C_9
REMARK    3  A    between atoms: C_9  and  C_10
REMARK                            x       y       z     vdW  Elec       q    Type
REMARK                         _______ _______ _______ _____ _____    ______ ____
ROOT
ATOM      1  C   UNL     1      52.365   2.408  17.919  0.00  0.00    +0.000 A 
ATOM      2  C   UNL     1      51.758   3.657  18.045  0.00  0.00    +0.000 A 
ATOM      3  C   UNL     1      50.435   3.811  17.626  0.00  0.00    +0.000 A 
ATOM      4  C   UNL     1      49.742   2.728  17.095  0.00  0.00    +0.000 A 
ATOM      5  N   UNL     1      48.446   2.782  16.677  0.00  0.00    +0.000 N 
ATOM      6  N   UNL     1      50.327   1.522  16.956  0.00  0.00    +0.000 NA
ATOM      7  C   UNL     1      51.620   1.386  17.353  0.00  0.00    +0.000 A 
ATOM      8  H   UNL     1      48.103   1.899  16.319  0.00  0.00    +0.000 HD
ENDROOT
BRANCH   1  10
ATOM      9  N   UNL     1      54.736   2.361  17.414  0.00  0.00    +0.000 N 
ATOM     10  C   UNL     1      53.752   2.137  18.337  0.00  0.00    +0.000 C 
ATOM     11  O   UNL     1      54.019   1.768  19.472  0.00  0.00    +0.000 OA
ATOM     12  H   UNL     1      55.690   2.274  17.744  0.00  0.00    +0.000 HD
ATOM     13  H   UNL     1      54.582   2.894  16.571  0.00  0.00    +0.000 HD
ENDBRANCH   1  10
BRANCH   5  14
ATOM     14  C   UNL     1      47.547   3.896  16.785  0.00  0.00    +0.000 C 
BRANCH  14  15
ATOM     15  C   UNL     1      47.421   4.690  15.508  0.00  0.00    +0.000 A 
ATOM     16  C   UNL     1      48.184   5.810  15.193  0.00  0.00    +0.000 A 
ATOM     17  C   UNL     1      47.928   6.462  13.998  0.00  0.00    +0.000 A 
ATOM     18  N   UNL     1      46.973   6.088  13.115  0.00  0.00    +0.000 NA
ATOM     19  C   UNL     1      46.250   4.987  13.397  0.00  0.00    +0.000 A 
ATOM     20  N   UNL     1      45.196   4.623  12.590  0.00  0.00    +0.000 N 
ATOM     21  C   UNL     1      44.578   5.615  11.712  0.00  0.00    +0.000 C 
ATOM     22  C   UNL     1      43.086   5.239  11.609  0.00  0.00    +0.000 C 
ATOM     23  O   UNL     1      42.906   3.896  11.113  0.00  0.00    +0.000 OA
ATOM     24  C   UNL     1      43.576   2.939  11.957  0.00  0.00    +0.000 C 
ATOM     25  C   UNL     1      45.075   3.252  12.090  0.00  0.00    +0.000 C 
ATOM     26  C   UNL     1      46.466   4.274  14.574  0.00  0.00    +0.000 A 
ENDBRANCH  14  15
ENDBRANCH   5  14
TORSDOF 3
ENDMDL
MODEL 4
REMARK VINA RESULT:    -6.582      3.414      8.009
REMARK INTER + INTRA:          -8.253
REMARK INTER:                  -7.749
REMARK INTRA:                  -0.504
REMARK UNBOUND:                -0.516
REMARK  Name = 
REMARK  3 active torsions:
REMARK  status: ('A' for Active; 'I' for Inactive)
REMARK    1  A    between atoms: C_2  and  C_4
REMARK    2  A    between atoms: N_8  and  C_9
REMARK    3  A    between atoms: C_9  and  C_10
REMARK                            x       y       z     vdW  Elec       q    Type
REMARK                         _______ _______ _______ _____ _____    ______ ____
ROOT
ATOM      1  C   UNL     1      44.790   5.089  10.950  0.00  0.00    +0.000 A 
ATOM      2  C   UNL     1      45.924   5.768  10.509  0.00  0.00    +0.000 A 
ATOM      3  C   UNL     1      46.577   6.636  11.387  0.00  0.00    +0.000 A 
ATOM      4  C   UNL     1      46.095   6.811  12.680  0.00  0.00    +0.000 A 
ATOM      5  N   UNL     1      46.676   7.622  13.608  0.00  0.00    +0.000 N 
ATOM      6  N   UNL     1      44.990   6.170  13.108  0.00  0.00    +0.000 NA
ATOM      7  C   UNL     1      44.353   5.339  12.241  0.00  0.00    +0.000 A 
ATOM      8  H   UNL     1      46.190   7.628  14.497  0.00  0.00    +0.000 HD
ENDROOT
BRANCH   1  10
ATOM      9  N   UNL     1      44.117   4.315   8.753  0.00  0.00    +0.000 N 
ATOM     10  C   UNL     1      44.033   4.146  10.108  0.00  0.00    +0.000 C 
ATOM     11  O   UNL     1      43.390   3.225  10.593  0.00  0.00    +0.000 OA
ATOM     12  H   UNL     1      43.681   3.600   8.183  0.00  0.00    +0.000 HD
ATOM     13  H   UNL     1      44.822   4.891   8.318  0.00  0.00    +0.000 HD
ENDBRANCH   1  10
BRANCH   5  14
ATOM     14  C   UNL     1      47.904   8.355  13.471  0.00  0.00    +0.000 C 
BRANCH  14  15
ATOM     15  C   UNL     1      49.012   7.835  14.353  0.00  0.00    +0.000 A 
ATOM     16  C   UNL     1      50.341   8.240  14.276  0.00  0.00    +0.000 A 
ATOM     17  C   UNL     1      51.258   7.643  15.126  0.00  0.00    +0.000 A 
ATOM     18  N   UNL     1      50.949   6.680  16.025  0.00  0.00    +0.000 NA
ATOM     19  C   UNL     1      49.660   6.303  16.127  0.00  0.00    +0.000 A 
ATOM     20  N   UNL     1      49.306   5.255  16.945  0.00  0.00    +0.000 N 
ATOM     21  C   UNL     1      50.316   4.280  17.354  0.00  0.00    +0.000 C 
ATOM     22  C   UNL     1      49.587   2.929  17.497  0.00  0.00    +0.000 C 
ATOM     23  O   UNL     1      48.500   3.005  18.444  0.00  0.00    +0.000 OA
ATOM     24  C   UNL     1      47.549   4.015  18.058  0.00  0.00    +0.000 C 
ATOM     25  C   UNL     1      48.213   5.394  17.910  0.00  0.00    +0.000 C 
ATOM     26  C   UNL     1      48.683   6.874  15.314  0.00  0.00    +0.000 A 
ENDBRANCH  14  15
ENDBRANCH   5  14
TORSDOF 3
ENDMDL
MODEL 5
REMARK VINA RESULT:    -6.556      2.842      8.151
REMARK INTER + INTRA:          -8.223
REMARK INTER:                  -7.670
REMARK INTRA:                  -0.552
REMARK UNBOUND:                -0.516
REMARK  Name = 
REMARK  3 active torsions:
REMARK  status: ('A' for Active; 'I' for Inactive)
REMARK    1  A    between atoms: C_2  and  C_4
REMARK    2  A    between atoms: N_8  and  C_9
REMARK    3  A    between atoms: C_9  and  C_10
REMARK                            x       y       z     vdW  Elec       q    Type
REMARK                         _______ _______ _______ _____ _____    ______ ____
ROOT
ATOM      1  C   UNL     1      44.219   4.122  11.466  0.00  0.00    +0.000 A 
ATOM      2  C   UNL     1      45.108   4.924  10.752  0.00  0.00    +0.000 A 
ATOM      3  C   UNL     1      45.449   6.178  11.265  0.00  0.00    +0.000 A 
ATOM      4  C   UNL     1      44.903   6.608  12.470  0.00  0.00    +0.000 A 
ATOM      5  N   UNL     1      45.191   7.806  13.053  0.00  0.00    +0.000 N 
ATOM      6  N   UNL     1      44.031   5.845  13.157  0.00  0.00    +0.000 NA
ATOM      7  C   UNL     1      43.695   4.633  12.642  0.00  0.00    +0.000 A 
ATOM      8  H   UNL     1      44.704   7.954  13.929  0.00  0.00    +0.000 HD
ENDROOT
BRANCH   1  10
ATOM      9  N   UNL     1      44.471   2.243   9.955  0.00  0.00    +0.000 N 
ATOM     10  C   UNL     1      43.801   2.782  11.017  0.00  0.00    +0.000 C 
ATOM     11  O   UNL     1      42.921   2.158  11.594  0.00  0.00    +0.000 OA
ATOM     12  H   UNL     1      44.249   1.282   9.724  0.00  0.00    +0.000 HD
ATOM     13  H   UNL     1      45.351   2.610   9.621  0.00  0.00    +0.000 HD
ENDBRANCH   1  10
BRANCH   5  14
ATOM     14  C   UNL     1      46.146   8.781  12.605  0.00  0.00    +0.000 C 
BRANCH  14  15
ATOM     15  C   UNL     1      47.569   8.437  12.969  0.00  0.00    +0.000 A 
ATOM     16  C   UNL     1      48.620   8.349  12.061  0.00  0.00    +0.000 A 
ATOM     17  C   UNL     1      49.868   7.982  12.537  0.00  0.00    +0.000 A 
ATOM     18  N   UNL     1      50.134   7.691  13.832  0.00  0.00    +0.000 NA
ATOM     19  C   UNL     1      49.130   7.802  14.722  0.00  0.00    +0.000 A 
ATOM     20  N   UNL     1      49.316   7.415  16.030  0.00  0.00    +0.000 N 
ATOM     21  C   UNL     1      50.403   6.498  16.368  0.00  0.00    +0.000 C 
ATOM     22  C   UNL     1      49.908   5.653  17.559  0.00  0.00    +0.000 C 
ATOM     23  O   UNL     1      49.533   6.478  18.682  0.00  0.00    +0.000 OA
ATOM     24  C   UNL     1      48.505   7.418  18.312  0.00  0.00    +0.000 C 
ATOM     25  C   UNL     1      48.944   8.303  17.133  0.00  0.00    +0.000 C 
ATOM     26  C   UNL     1      47.853   8.183  14.314  0.00  0.00    +0.000 A 
ENDBRANCH  14  15
ENDBRANCH   5  14
TORSDOF 3
ENDMDL
MODEL 6
REMARK VINA RESULT:    -6.366      2.160      7.635
REMARK INTER + INTRA:          -7.999
REMARK INTER:                  -7.646
REMARK INTRA:                  -0.353
REMARK UNBOUND:                -0.516
REMARK  Name = 
REMARK  3 active torsions:
REMARK  status: ('A' for Active; 'I' for Inactive)
REMARK    1  A    between atoms: C_2  and  C_4
REMARK    2  A    between atoms: N_8  and  C_9
REMARK    3  A    between atoms: C_9  and  C_10
REMARK                            x       y       z     vdW  Elec       q    Type
REMARK                         _______ _______ _______ _____ _____    ______ ____
ROOT
ATOM      1  C   UNL     1      46.450   2.134   7.874  0.00  0.00    +0.000 A 
ATOM      2  C   UNL     1      45.771   2.104   9.091  0.00  0.00    +0.000 A 
ATOM      3  C   UNL     1      45.391   3.310   9.683  0.00  0.00    +0.000 A 
ATOM      4  C   UNL     1      45.689   4.517   9.058  0.00  0.00    +0.000 A 
ATOM      5  N   UNL     1      45.343   5.739   9.552  0.00  0.00    +0.000 N 
ATOM      6  N   UNL     1      46.359   4.554   7.889  0.00  0.00    +0.000 NA
ATOM      7  C   UNL     1      46.737   3.374   7.329  0.00  0.00    +0.000 A 
ATOM      8  H   UNL     1      45.641   6.509   8.965  0.00  0.00    +0.000 HD
ENDROOT
BRANCH   1  10
ATOM      9  N   UNL     1      46.589  -0.283   7.741  0.00  0.00    +0.000 N 
ATOM     10  C   UNL     1      46.888   0.919   7.163  0.00  0.00    +0.000 C 
ATOM     11  O   UNL     1      47.456   0.979   6.081  0.00  0.00    +0.000 OA
ATOM     12  H   UNL     1      46.799  -1.109   7.194  0.00  0.00    +0.000 HD
ATOM     13  H   UNL     1      45.915  -0.378   8.486  0.00  0.00    +0.000 HD
ENDBRANCH   1  10
BRANCH   5  14
ATOM     14  C   UNL     1      44.553   6.008  10.721  0.00  0.00    +0.000 C 
BRANCH  14  15
ATOM     15  C   UNL     1      44.925   7.298  11.411  0.00  0.00    +0.000 A 
ATOM     16  C   UNL     1      44.172   8.466  11.366  0.00  0.00    +0.000 A 
ATOM     17  C   UNL     1      44.662   9.587  12.016  0.00  0.00    +0.000 A 
ATOM     18  N   UNL     1      45.835   9.626  12.689  0.00  0.00    +0.000 NA
ATOM     19  C   UNL     1      46.557   8.491  12.764  0.00  0.00    +0.000 A 
ATOM     20  N   UNL     1      47.806   8.499  13.341  0.00  0.00    +0.000 N 
ATOM     21  C   UNL     1      48.536   9.759  13.473  0.00  0.00    +0.000 C 
ATOM     22  C   UNL     1      50.033   9.412  13.343  0.00  0.00    +0.000 C 
ATOM     23  O   UNL     1      50.446   8.446  14.332  0.00  0.00    +0.000 OA
ATOM     24  C   UNL     1      49.672   7.236  14.227  0.00  0.00    +0.000 C 
ATOM     25  C   UNL     1      48.165   7.513  14.362  0.00  0.00    +0.000 C 
ATOM     26  C   UNL     1      46.115   7.323  12.146  0.00  0.00    +0.000 A 
ENDBRANCH  14  15
ENDBRANCH   5  14
TORSDOF 3
ENDMDL
MODEL 7
REMARK VINA RESULT:    -6.235      3.863      5.760
REMARK INTER + INTRA:          -7.845
REMARK INTER:                  -7.404
REMARK INTRA:                  -0.441
REMARK UNBOUND:                -0.516
REMARK  Name = 
REMARK  3 active torsions:
REMARK  status: ('A' for Active; 'I' for Inactive)
REMARK    1  A    between atoms: C_2  and  C_4
REMARK    2  A    between atoms: N_8  and  C_9
REMARK    3  A    between atoms: C_9  and  C_10
REMARK                            x       y       z     vdW  Elec       q    Type
REMARK                         _______ _______ _______ _____ _____    ______ ____
ROOT
ATOM      1  C   UNL     1      48.708   5.080  18.406  0.00  0.00    +0.000 A 
ATOM      2  C   UNL     1      48.774   6.460  18.217  0.00  0.00    +0.000 A 
ATOM      3  C   UNL     1      48.688   6.969  16.920  0.00  0.00    +0.000 A 
ATOM      4  C   UNL     1      48.538   6.104  15.841  0.00  0.00    +0.000 A 
ATOM      5  N   UNL     1      48.429   6.512  14.545  0.00  0.00    +0.000 N 
ATOM      6  N   UNL     1      48.489   4.769  16.014  0.00  0.00    +0.000 NA
ATOM      7  C   UNL     1      48.589   4.283  17.279  0.00  0.00    +0.000 A 
ATOM      8  H   UNL     1      48.325   5.747  13.890  0.00  0.00    +0.000 HD
ENDROOT
BRANCH   1  10
ATOM      9  N   UNL     1      48.397   3.132  19.815  0.00  0.00    +0.000 N 
ATOM     10  C   UNL     1      48.781   4.441  19.732  0.00  0.00    +0.000 C 
ATOM     11  O   UNL     1      49.206   5.040  20.710  0.00  0.00    +0.000 OA
ATOM     12  H   UNL     1      48.552   2.673  20.705  0.00  0.00    +0.000 HD
ATOM     13  H   UNL     1      48.285   2.543  19.002  0.00  0.00    +0.000 HD
ENDBRANCH   1  10
BRANCH   5  14
ATOM     14  C   UNL     1      48.356   7.865  14.065  0.00  0.00    +0.000 C 
BRANCH  14  15
ATOM     15  C   UNL     1      47.141   8.133  13.213  0.00  0.00    +0.000 A 
ATOM     16  C   UNL     1      46.630   9.397  12.936  0.00  0.00    +0.000 A 
ATOM     17  C   UNL     1      45.480   9.486  12.169  0.00  0.00    +0.000 A 
ATOM     18  N   UNL     1      44.808   8.420  11.676  0.00  0.00    +0.000 NA
ATOM     19  C   UNL     1      45.312   7.193  11.914  0.00  0.00    +0.000 A 
ATOM     20  N   UNL     1      44.614   6.071  11.530  0.00  0.00    +0.000 N 
ATOM     21  C   UNL     1      43.177   6.160  11.277  0.00  0.00    +0.000 C 
ATOM     22  C   UNL     1      42.576   4.799  11.682  0.00  0.00    +0.000 C 
ATOM     23  O   UNL     1      43.182   3.709  10.955  0.00  0.00    +0.000 OA
ATOM     24  C   UNL     1      44.607   3.677  11.166  0.00  0.00    +0.000 C 
ATOM     25  C   UNL     1      45.270   5.006  10.768  0.00  0.00    +0.000 C 
ATOM     26  C   UNL     1      46.475   7.032  12.664  0.00  0.00    +0.000 A 
ENDBRANCH  14  15
ENDBRANCH   5  14
TORSDOF 3
ENDMDL
MODEL 8
REMARK VINA RESULT:    -5.849      4.010      8.725
REMARK INTER + INTRA:          -7.391
REMARK INTER:                  -6.876
REMARK INTRA:                  -0.515
REMARK UNBOUND:                -0.516
REMARK  Name = 
REMARK  3 active torsions:
REMARK  status: ('A' for Active; 'I' for Inactive)
REMARK    1  A    between atoms: C_2  and  C_4
REMARK    2  A    between atoms: N_8  and  C_9
REMARK    3  A    between atoms: C_9  and  C_10
REMARK                            x       y       z     vdW  Elec       q    Type
REMARK                         _______ _______ _______ _____ _____    ______ ____
ROOT
ATOM      1  C   UNL     1      44.977   4.599  12.227  0.00  0.00    +0.000 A 
ATOM      2  C   UNL     1      45.956   4.269  13.164  0.00  0.00    +0.000 A 
ATOM      3  C   UNL     1      47.051   5.119  13.325  0.00  0.00    +0.000 A 
ATOM      4  C   UNL     1      47.154   6.275  12.557  0.00  0.00    +0.000 A 
ATOM      5  N   UNL     1      48.177   7.170  12.658  0.00  0.00    +0.000 N 
ATOM      6  N   UNL     1      46.220   6.592  11.639  0.00  0.00    +0.000 NA
ATOM      7  C   UNL     1      45.165   5.750  11.480  0.00  0.00    +0.000 A 
ATOM      8  H   UNL     1      48.089   7.954  12.023  0.00  0.00    +0.000 HD
ENDROOT
BRANCH   1  10
ATOM      9  N   UNL     1      43.794   2.496  12.468  0.00  0.00    +0.000 N 
ATOM     10  C   UNL     1      43.779   3.775  11.986  0.00  0.00    +0.000 C 
ATOM     11  O   UNL     1      42.795   4.226  11.416  0.00  0.00    +0.000 OA
ATOM     12  H   UNL     1      42.928   1.976  12.391  0.00  0.00    +0.000 HD
ATOM     13  H   UNL     1      44.469   2.177  13.148  0.00  0.00    +0.000 HD
ENDBRANCH   1  10
BRANCH   5  14
ATOM     14  C   UNL     1      49.259   7.146  13.603  0.00  0.00    +0.000 C 
BRANCH  14  15
ATOM     15  C   UNL     1      48.882   7.690  14.958  0.00  0.00    +0.000 A 
ATOM     16  C   UNL     1      48.616   9.028  15.229  0.00  0.00    +0.000 A 
ATOM     17  C   UNL     1      48.321   9.387  16.534  0.00  0.00    +0.000 A 
ATOM     18  N   UNL     1      48.285   8.520  17.573  0.00  0.00    +0.000 NA
ATOM     19  C   UNL     1      48.512   7.218  17.315  0.00  0.00    +0.000 A 
ATOM     20  N   UNL     1      48.594   6.310  18.347  0.00  0.00    +0.000 N 
ATOM     21  C   UNL     1      48.876   6.776  19.703  0.00  0.00    +0.000 C 
ATOM     22  C   UNL     1      49.683   5.657  20.391  0.00  0.00    +0.000 C 
ATOM     23  O   UNL     1      48.967   4.404  20.393  0.00  0.00    +0.000 OA
ATOM     24  C   UNL     1      48.642   3.994  19.050  0.00  0.00    +0.000 C 
ATOM     25  C   UNL     1      47.823   5.066  18.312  0.00  0.00    +0.000 C 
ATOM     26  C   UNL     1      48.798   6.785  16.022  0.00  0.00    +0.000 A 
ENDBRANCH  14  15
ENDBRANCH   5  14
TORSDOF 3
ENDMDL
MODEL 9
REMARK VINA RESULT:    -5.557      2.381      7.840
REMARK INTER + INTRA:          -7.048
REMARK INTER:                  -6.569
REMARK INTRA:                  -0.479
REMARK UNBOUND:                -0.516
REMARK  Name = 
REMARK  3 active torsions:
REMARK  status: ('A' for Active; 'I' for Inactive)
REMARK    1  A    between atoms: C_2  and  C_4
REMARK    2  A    between atoms: N_8  and  C_9
REMARK    3  A    between atoms: C_9  and  C_10
REMARK                            x       y       z     vdW  Elec       q    Type
REMARK                         _______ _______ _______ _____ _____    ______ ____
ROOT
ATOM      1  C   UNL     1      44.651   4.021  11.314  0.00  0.00    +0.000 A 
ATOM      2  C   UNL     1      44.903   4.346  12.647  0.00  0.00    +0.000 A 
ATOM      3  C   UNL     1      45.557   5.545  12.939  0.00  0.00    +0.000 A 
ATOM      4  C   UNL     1      45.946   6.394  11.908  0.00  0.00    +0.000 A 
ATOM      5  N   UNL     1      46.573   7.590  12.099  0.00  0.00    +0.000 N 
ATOM      6  N   UNL     1      45.720   6.080  10.617  0.00  0.00    +0.000 NA
ATOM      7  C   UNL     1      45.096   4.904  10.344  0.00  0.00    +0.000 A 
ATOM      8  H   UNL     1      46.781   8.076  11.235  0.00  0.00    +0.000 HD
ENDROOT
BRANCH   1  10
ATOM      9  N   UNL     1      44.488   2.106   9.837  0.00  0.00    +0.000 N 
ATOM     10  C   UNL     1      43.962   2.787  10.900  0.00  0.00    +0.000 C 
ATOM     11  O   UNL     1      42.986   2.363  11.504  0.00  0.00    +0.000 OA
ATOM     12  H   UNL     1      44.071   1.207   9.629  0.00  0.00    +0.000 HD
ATOM     13  H   UNL     1      45.416   2.282   9.481  0.00  0.00    +0.000 HD
ENDBRANCH   1  10
BRANCH   5  14
ATOM     14  C   UNL     1      46.860   8.226  13.354  0.00  0.00    +0.000 C 
BRANCH  14  15
ATOM     15  C   UNL     1      48.274   7.999  13.830  0.00  0.00    +0.000 A 
ATOM     16  C   UNL     1      48.621   7.564  15.105  0.00  0.00    +0.000 A 
ATOM     17  C   UNL     1      49.966   7.440  15.412  0.00  0.00    +0.000 A 
ATOM     18  N   UNL     1      50.973   7.725  14.554  0.00  0.00    +0.000 NA
ATOM     19  C   UNL     1      50.647   8.118  13.308  0.00  0.00    +0.000 A 
ATOM     20  N   UNL     1      51.626   8.523  12.430  0.00  0.00    +0.000 N 
ATOM     21  C   UNL     1      52.927   8.950  12.940  0.00  0.00    +0.000 C 
ATOM     22  C   UNL     1      53.441  10.037  11.974  0.00  0.00    +0.000 C 
ATOM     23  O   UNL     1      53.529   9.549  10.619  0.00  0.00    +0.000 OA
ATOM     24  C   UNL     1      52.250   9.074  10.156  0.00  0.00    +0.000 C 
ATOM     25  C   UNL     1      51.688   7.976  11.073  0.00  0.00    +0.000 C 
ATOM     26  C   UNL     1      49.313   8.248  12.927  0.00  0.00    +0.000 A 
ENDBRANCH  14  15
ENDBRANCH   5  14
TORSDOF 3
ENDMDL
