MODEL 1
REMARK VINA RESULT:    -9.297      0.000      0.000
REMARK INTER + INTRA:         -12.714
REMARK INTER:                 -11.470
REMARK INTRA:                  -1.243
REMARK UNBOUND:                -1.243
REMARK  Name = 
REMARK  4 active torsions:
REMARK  status: ('A' for Active; 'I' for Inactive)
REMARK    1  A    between atoms: C_2  and  C_4
REMARK    2  A    between atoms: N_8  and  C_9
REMARK    3  A    between atoms: C_9  and  C_10
REMARK    4  A    between atoms: C_14  and  C_15
REMARK                            x       y       z     vdW  Elec       q    Type
REMARK                         _______ _______ _______ _____ _____    ______ ____
ROOT
ATOM      1  C   UNL     1      43.815   4.875  11.371  0.00  0.00    +0.000 C 
ATOM      2  C   UNL     1      42.482   5.154  12.049  0.00  0.00    +0.000 C 
ATOM      3  C   UNL     1      43.022   6.127  11.059  0.00  0.00    +0.000 C 
ENDROOT
BRANCH   1   8
ATOM      4  C   UNL     1      46.567   2.758   7.504  0.00  0.00    +0.000 A 
ATOM      5  C   UNL     1      46.199   4.088   7.663  0.00  0.00    +0.000 A 
ATOM      6  C   UNL     1      45.305   4.434   8.683  0.00  0.00    +0.000 A 
ATOM      7  C   UNL     1      44.795   3.444   9.513  0.00  0.00    +0.000 A 
ATOM      8  N   UNL     1      43.822   3.690  10.489  0.00  0.00    +0.000 N 
ATOM      9  N   UNL     1      45.142   2.148   9.363  0.00  0.00    +0.000 NA
ATOM     10  C   UNL     1      46.013   1.828   8.371  0.00  0.00    +0.000 A 
ATOM     11  H   UNL     1      43.706   2.798  10.969  0.00  0.00    +0.000 HD
BRANCH   4  13
ATOM     12  N   UNL     1      47.448   2.943   5.248  0.00  0.00    +0.000 N 
ATOM     13  C   UNL     1      47.488   2.289   6.449  0.00  0.00    +0.000 C 
ATOM     14  O   UNL     1      48.275   1.372   6.643  0.00  0.00    +0.000 OA
ATOM     15  H   UNL     1      48.156   2.679   4.574  0.00  0.00    +0.000 HD
ATOM     16  H   UNL     1      47.001   3.840   5.127  0.00  0.00    +0.000 HD
ENDBRANCH   4  13
ENDBRANCH   1   8
BRANCH   1  17
ATOM     17  C   UNL     1      45.095   5.017  12.192  0.00  0.00    +0.000 A 
ATOM     18  C   UNL     1      45.586   3.975  12.993  0.00  0.00    +0.000 A 
ATOM     19  C   UNL     1      46.805   4.086  13.660  0.00  0.00    +0.000 A 
ATOM     20  C   UNL     1      47.581   5.236  13.509  0.00  0.00    +0.000 A 
ATOM     21  C   UNL     1      47.155   6.296  12.692  0.00  0.00    +0.000 A 
ATOM     22  C   UNL     1      45.890   6.175  12.085  0.00  0.00    +0.000 A 
BRANCH  21  23
ATOM     23  C   UNL     1      48.040   7.439  12.371  0.00  0.00    +0.000 A 
ATOM     24  C   UNL     1      49.420   7.241  12.167  0.00  0.00    +0.000 A 
ATOM     25  C   UNL     1      50.259   8.280  11.746  0.00  0.00    +0.000 A 
ATOM     26  C   UNL     1      49.728   9.543  11.512  0.00  0.00    +0.000 A 
ATOM     27  C   UNL     1      48.373   9.760  11.723  0.00  0.00    +0.000 A 
ATOM     28  F   UNL     1      47.856  10.970  11.479  0.00  0.00    +0.000 F 
ATOM     29  C   UNL     1      47.535   8.732  12.156  0.00  0.00    +0.000 A 
ENDBRANCH  21  23
ENDBRANCH   1  17
TORSDOF 4
ENDMDL
MODEL 2
REMARK VINA RESULT:    -9.157      2.607      3.846
REMARK INTER + INTRA:         -12.542
REMARK INTER:                 -11.826
REMARK INTRA:                  -0.716
REMARK UNBOUND:                -1.243
REMARK  Name = 
REMARK  4 active torsions:
REMARK  status: ('A' for Active; 'I' for Inactive)
REMARK    1  A    between atoms: C_2  and  C_4
REMARK    2  A    between atoms: N_8  and  C_9
REMARK    3  A    between atoms: C_9  and  C_10
REMARK    4  A    between atoms: C_14  and  C_15
REMARK                            x       y       z     vdW  Elec       q    Type
REMARK                         _______ _______ _______ _____ _____    ______ ____
ROOT
ATOM      1  C   UNL     1      43.957   4.938  11.536  0.00  0.00    +0.000 C 
ATOM      2  C   UNL     1      42.806   5.068  12.522  0.00  0.00    +0.000 C 
ATOM      3  C   UNL     1      42.903   6.013  11.375  0.00  0.00    +0.000 C 
ENDROOT
BRANCH   1   8
ATOM      4  C   UNL     1      46.394   2.718   7.518  0.00  0.00    +0.000 A 
ATOM      5  C   UNL     1      45.939   4.027   7.626  0.00  0.00    +0.000 A 
ATOM      6  C   UNL     1      45.148   4.389   8.722  0.00  0.00    +0.000 A 
ATOM      7  C   UNL     1      44.823   3.435   9.678  0.00  0.00    +0.000 A 
ATOM      8  N   UNL     1      43.956   3.689  10.748  0.00  0.00    +0.000 N 
ATOM      9  N   UNL     1      45.255   2.160   9.580  0.00  0.00    +0.000 NA
ATOM     10  C   UNL     1      46.024   1.824   8.512  0.00  0.00    +0.000 A 
ATOM     11  H   UNL     1      43.972   2.833  11.302  0.00  0.00    +0.000 HD
BRANCH   4  13
ATOM     12  N   UNL     1      47.223   2.987   5.251  0.00  0.00    +0.000 N 
ATOM     13  C   UNL     1      47.217   2.233   6.393  0.00  0.00    +0.000 C 
ATOM     14  O   UNL     1      47.891   1.215   6.480  0.00  0.00    +0.000 OA
ATOM     15  H   UNL     1      47.873   2.698   4.530  0.00  0.00    +0.000 HD
ATOM     16  H   UNL     1      46.887   3.939   5.221  0.00  0.00    +0.000 HD
ENDBRANCH   4  13
ENDBRANCH   1   8
BRANCH   1  17
ATOM     17  C   UNL     1      45.355   5.359  11.987  0.00  0.00    +0.000 A 
ATOM     18  C   UNL     1      46.107   6.313  11.288  0.00  0.00    +0.000 A 
ATOM     19  C   UNL     1      47.340   6.758  11.766  0.00  0.00    +0.000 A 
ATOM     20  C   UNL     1      47.831   6.277  12.980  0.00  0.00    +0.000 A 
ATOM     21  C   UNL     1      47.104   5.347  13.740  0.00  0.00    +0.000 A 
ATOM     22  C   UNL     1      45.894   4.874  13.196  0.00  0.00    +0.000 A 
BRANCH  21  23
ATOM     23  C   UNL     1      47.514   4.966  15.111  0.00  0.00    +0.000 A 
ATOM     24  C   UNL     1      48.332   5.819  15.876  0.00  0.00    +0.000 A 
ATOM     25  C   UNL     1      48.638   5.543  17.214  0.00  0.00    +0.000 A 
ATOM     26  C   UNL     1      48.120   4.404  17.818  0.00  0.00    +0.000 A 
ATOM     27  C   UNL     1      47.324   3.543  17.074  0.00  0.00    +0.000 A 
ATOM     28  F   UNL     1      46.808   2.455  17.659  0.00  0.00    +0.000 F 
ATOM     29  C   UNL     1      47.028   3.806  15.736  0.00  0.00    +0.000 A 
ENDBRANCH  21  23
ENDBRANCH   1  17
TORSDOF 4
ENDMDL
MODEL 3
REMARK VINA RESULT:    -7.472      4.047      7.101
REMARK INTER + INTRA:         -10.463
REMARK INTER:                  -9.428
REMARK INTRA:                  -1.035
REMARK UNBOUND:                -1.243
REMARK  Name = 
REMARK  4 active torsions:
REMARK  status: ('A' for Active; 'I' for Inactive)
REMARK    1  A    between atoms: C_2  and  C_4
REMARK    2  A    between atoms: N_8  and  C_9
REMARK    3  A    between atoms: C_9  and  C_10
REMARK    4  A    between atoms: C_14  and  C_15
REMARK                            x       y       z     vdW  Elec       q    Type
REMARK                         _______ _______ _______ _____ _____    ______ ____
ROOT
ATOM      1  C   UNL     1      46.160   5.221  13.347  0.00  0.00    +0.000 C 
ATOM      2  C   UNL     1      46.119   4.325  14.576  0.00  0.00    +0.000 C 
ATOM      3  C   UNL     1      47.296   4.270  13.665  0.00  0.00    +0.000 C 
ENDROOT
BRANCH   1   8
ATOM      4  C   UNL     1      48.425   9.576  11.641  0.00  0.00    +0.000 A 
ATOM      5  C   UNL     1      49.004   8.326  11.825  0.00  0.00    +0.000 A 
ATOM      6  C   UNL     1      48.271   7.319  12.462  0.00  0.00    +0.000 A 
ATOM      7  C   UNL     1      46.982   7.586  12.907  0.00  0.00    +0.000 A 
ATOM      8  N   UNL     1      46.221   6.667  13.641  0.00  0.00    +0.000 N 
ATOM      9  N   UNL     1      46.413   8.798  12.739  0.00  0.00    +0.000 NA
ATOM     10  C   UNL     1      47.136   9.765  12.116  0.00  0.00    +0.000 A 
ATOM     11  H   UNL     1      45.314   7.119  13.757  0.00  0.00    +0.000 HD
BRANCH   4  13
ATOM     12  N   UNL     1      48.379  11.516  10.180  0.00  0.00    +0.000 N 
ATOM     13  C   UNL     1      49.121  10.709  10.999  0.00  0.00    +0.000 C 
ATOM     14  O   UNL     1      50.305  10.939  11.207  0.00  0.00    +0.000 OA
ATOM     15  H   UNL     1      48.844  12.346   9.833  0.00  0.00    +0.000 HD
ATOM     16  H   UNL     1      47.370  11.511  10.173  0.00  0.00    +0.000 HD
ENDBRANCH   4  13
ENDBRANCH   1   8
BRANCH   1  17
ATOM     17  C   UNL     1      45.246   4.887  12.170  0.00  0.00    +0.000 A 
ATOM     18  C   UNL     1      43.974   5.460  12.029  0.00  0.00    +0.000 A 
ATOM     19  C   UNL     1      43.192   5.219  10.900  0.00  0.00    +0.000 A 
ATOM     20  C   UNL     1      43.686   4.422   9.866  0.00  0.00    +0.000 A 
ATOM     21  C   UNL     1      44.966   3.851   9.939  0.00  0.00    +0.000 A 
ATOM     22  C   UNL     1      45.702   4.065  11.121  0.00  0.00    +0.000 A 
BRANCH  21  23
ATOM     23  C   UNL     1      45.581   3.160   8.782  0.00  0.00    +0.000 A 
ATOM     24  C   UNL     1      46.082   3.898   7.691  0.00  0.00    +0.000 A 
ATOM     25  C   UNL     1      46.773   3.283   6.641  0.00  0.00    +0.000 A 
ATOM     26  C   UNL     1      46.985   1.910   6.666  0.00  0.00    +0.000 A 
ATOM     27  C   UNL     1      46.484   1.165   7.725  0.00  0.00    +0.000 A 
ATOM     28  F   UNL     1      46.704  -0.155   7.761  0.00  0.00    +0.000 F 
ATOM     29  C   UNL     1      45.782   1.771   8.768  0.00  0.00    +0.000 A 
ENDBRANCH  21  23
ENDBRANCH   1  17
TORSDOF 4
ENDMDL
MODEL 4
REMARK VINA RESULT:    -7.136      4.941      8.281
REMARK INTER + INTRA:         -10.049
REMARK INTER:                  -8.939
REMARK INTRA:                  -1.109
REMARK UNBOUND:                -1.243
REMARK  Name = 
REMARK  4 active torsions:
REMARK  status: ('A' for Active; 'I' for Inactive)
REMARK    1  A    between atoms: C_2  and  C_4
REMARK    2  A    between atoms: N_8  and  C_9
REMARK    3  A    between atoms: C_9  and  C_10
REMARK    4  A    between atoms: C_14  and  C_15
REMARK                            x       y       z     vdW  Elec       q    Type
REMARK                         _______ _______ _______ _____ _____    ______ ____
ROOT
ATOM      1  C   UNL     1      49.132   7.941  12.595  0.00  0.00    +0.000 C 
ATOM      2  C   UNL     1      50.067   8.083  11.404  0.00  0.00    +0.000 C 
ATOM      3  C   UNL     1      49.828   9.253  12.295  0.00  0.00    +0.000 C 
ENDROOT
BRANCH   1   8
ATOM      4  C   UNL     1      48.389   6.821  17.615  0.00  0.00    +0.000 A 
ATOM      5  C   UNL     1      48.525   8.073  17.029  0.00  0.00    +0.000 A 
ATOM      6  C   UNL     1      48.896   8.163  15.683  0.00  0.00    +0.000 A 
ATOM      7  C   UNL     1      49.129   7.002  14.957  0.00  0.00    +0.000 A 
ATOM      8  N   UNL     1      49.600   7.006  13.638  0.00  0.00    +0.000 N 
ATOM      9  N   UNL     1      49.005   5.780  15.518  0.00  0.00    +0.000 NA
ATOM     10  C   UNL     1      48.642   5.709  16.825  0.00  0.00    +0.000 A 
ATOM     11  H   UNL     1      49.604   6.024  13.363  0.00  0.00    +0.000 HD
BRANCH   4  13
ATOM     12  N   UNL     1      47.112   5.635  19.308  0.00  0.00    +0.000 N 
ATOM     13  C   UNL     1      48.020   6.620  19.031  0.00  0.00    +0.000 C 
ATOM     14  O   UNL     1      48.524   7.284  19.927  0.00  0.00    +0.000 OA
ATOM     15  H   UNL     1      46.951   5.441  20.288  0.00  0.00    +0.000 HD
ATOM     16  H   UNL     1      46.863   4.917  18.644  0.00  0.00    +0.000 HD
ENDBRANCH   4  13
ENDBRANCH   1   8
BRANCH   1  17
ATOM     17  C   UNL     1      47.630   7.845  12.336  0.00  0.00    +0.000 A 
ATOM     18  C   UNL     1      46.770   8.937  12.525  0.00  0.00    +0.000 A 
ATOM     19  C   UNL     1      45.418   8.862  12.192  0.00  0.00    +0.000 A 
ATOM     20  C   UNL     1      44.904   7.694  11.626  0.00  0.00    +0.000 A 
ATOM     21  C   UNL     1      45.725   6.582  11.383  0.00  0.00    +0.000 A 
ATOM     22  C   UNL     1      47.071   6.673  11.790  0.00  0.00    +0.000 A 
BRANCH  21  23
ATOM     23  C   UNL     1      45.246   5.408  10.619  0.00  0.00    +0.000 A 
ATOM     24  C   UNL     1      45.675   5.193   9.294  0.00  0.00    +0.000 A 
ATOM     25  C   UNL     1      45.335   4.032   8.589  0.00  0.00    +0.000 A 
ATOM     26  C   UNL     1      44.561   3.055   9.202  0.00  0.00    +0.000 A 
ATOM     27  C   UNL     1      44.115   3.258  10.501  0.00  0.00    +0.000 A 
ATOM     28  F   UNL     1      43.385   2.309  11.101  0.00  0.00    +0.000 F 
ATOM     29  C   UNL     1      44.440   4.419  11.204  0.00  0.00    +0.000 A 
ENDBRANCH  21  23
ENDBRANCH   1  17
TORSDOF 4
ENDMDL
MODEL 5
REMARK VINA RESULT:    -6.653      3.999      6.116
REMARK INTER + INTRA:          -9.452
REMARK INTER:                  -8.938
REMARK INTRA:                  -0.515
REMARK UNBOUND:                -1.243
REMARK  Name = 
REMARK  4 active torsions:
REMARK  status: ('A' for Active; 'I' for Inactive)
REMARK    1  A    between atoms: C_2  and  C_4
REMARK    2  A    between atoms: N_8  and  C_9
REMARK    3  A    between atoms: C_9  and  C_10
REMARK    4  A    between atoms: C_14  and  C_15
REMARK                            x       y       z     vdW  Elec       q    Type
REMARK                         _______ _______ _______ _____ _____    ______ ____
ROOT
ATOM      1  C   UNL     1      47.355   8.548  13.177  0.00  0.00    +0.000 C 
ATOM      2  C   UNL     1      47.539   9.871  12.449  0.00  0.00    +0.000 C 
ATOM      3  C   UNL     1      48.216   8.648  11.934  0.00  0.00    +0.000 C 
ENDROOT
BRANCH   1   8
ATOM      4  C   UNL     1      44.650   4.444  11.490  0.00  0.00    +0.000 A 
ATOM      5  C   UNL     1      45.633   5.157  10.815  0.00  0.00    +0.000 A 
ATOM      6  C   UNL     1      46.124   6.343  11.371  0.00  0.00    +0.000 A 
ATOM      7  C   UNL     1      45.615   6.794  12.583  0.00  0.00    +0.000 A 
ATOM      8  N   UNL     1      45.977   8.019  13.156  0.00  0.00    +0.000 N 
ATOM      9  N   UNL     1      44.655   6.112  13.244  0.00  0.00    +0.000 NA
ATOM     10  C   UNL     1      44.192   4.961  12.693  0.00  0.00    +0.000 A 
ATOM     11  H   UNL     1      45.498   8.034  14.056  0.00  0.00    +0.000 HD
BRANCH   4  13
ATOM     12  N   UNL     1      44.757   2.513  10.021  0.00  0.00    +0.000 N 
ATOM     13  C   UNL     1      44.056   3.192  10.978  0.00  0.00    +0.000 C 
ATOM     14  O   UNL     1      42.994   2.762  11.409  0.00  0.00    +0.000 OA
ATOM     15  H   UNL     1      44.389   1.606   9.758  0.00  0.00    +0.000 HD
ATOM     16  H   UNL     1      45.729   2.696   9.819  0.00  0.00    +0.000 HD
ENDBRANCH   4  13
ENDBRANCH   1   8
BRANCH   1  17
ATOM     17  C   UNL     1      48.050   8.354  14.523  0.00  0.00    +0.000 A 
ATOM     18  C   UNL     1      48.270   9.420  15.408  0.00  0.00    +0.000 A 
ATOM     19  C   UNL     1      48.818   9.210  16.673  0.00  0.00    +0.000 A 
ATOM     20  C   UNL     1      49.126   7.915  17.094  0.00  0.00    +0.000 A 
ATOM     21  C   UNL     1      48.896   6.808  16.262  0.00  0.00    +0.000 A 
ATOM     22  C   UNL     1      48.400   7.064  14.969  0.00  0.00    +0.000 A 
BRANCH  21  23
ATOM     23  C   UNL     1      49.040   5.418  16.753  0.00  0.00    +0.000 A 
ATOM     24  C   UNL     1      50.285   4.949  17.218  0.00  0.00    +0.000 A 
ATOM     25  C   UNL     1      50.425   3.682  17.797  0.00  0.00    +0.000 A 
ATOM     26  C   UNL     1      49.315   2.858  17.929  0.00  0.00    +0.000 A 
ATOM     27  C   UNL     1      48.084   3.297  17.461  0.00  0.00    +0.000 A 
ATOM     28  F   UNL     1      47.008   2.513  17.604  0.00  0.00    +0.000 F 
ATOM     29  C   UNL     1      47.940   4.553  16.870  0.00  0.00    +0.000 A 
ENDBRANCH  21  23
ENDBRANCH   1  17
TORSDOF 4
ENDMDL
