MODEL 1
REMARK VINA RESULT:    -8.696      0.000      0.000
REMARK INTER + INTRA:         -13.374
REMARK INTER:                 -12.508
REMARK INTRA:                  -0.866
REMARK UNBOUND:                -0.866
REMARK  Name = 
REMARK  8 active torsions:
REMARK  status: ('A' for Active; 'I' for Inactive)
REMARK    1  A    between atoms: C_2  and  C_21
REMARK    2  A    between atoms: N_3  and  C_4
REMARK    3  A    between atoms: C_4  and  C_5
REMARK    4  A    between atoms: C_8  and  C_9
REMARK    5  A    between atoms: C_9  and  C_10
REMARK    6  A    between atoms: C_10  and  O_11
REMARK    7  A    between atoms: C_10  and  C_12
REMARK    8  A    between atoms: C_12  and  C_13
REMARK                            x       y       z     vdW  Elec       q    Type
REMARK                         _______ _______ _______ _____ _____    ______ ____
ROOT
ATOM      1  C   UNL     1      46.178   7.082  12.431  0.00  0.00    +0.000 A 
ATOM      2  C   UNL     1      45.120   6.371  13.008  0.00  0.00    +0.000 A 
ATOM      3  C   UNL     1      44.418   5.417  12.267  0.00  0.00    +0.000 A 
ATOM      4  C   UNL     1      44.761   5.153  10.934  0.00  0.00    +0.000 A 
ATOM      5  C   UNL     1      45.847   5.834  10.370  0.00  0.00    +0.000 A 
ATOM      6  C   UNL     1      46.552   6.787  11.113  0.00  0.00    +0.000 A 
ENDROOT
BRANCH   1   7
ATOM      7  C   UNL     1      46.912   8.130  13.228  0.00  0.00    +0.000 C 
BRANCH   7  10
ATOM      8  O   UNL     1      49.006   6.281  13.585  0.00  0.00    +0.000 OA
ATOM      9  C   UNL     1      48.442   6.740  14.575  0.00  0.00    +0.000 C 
ATOM     10  N   UNL     1      47.385   7.607  14.483  0.00  0.00    +0.000 N 
ATOM     11  H   UNL     1      47.054   8.080  15.317  0.00  0.00    +0.000 HD
BRANCH   9  12
ATOM     12  C   UNL     1      48.836   6.340  15.933  0.00  0.00    +0.000 A 
ATOM     13  C   UNL     1      49.587   7.207  16.715  0.00  0.00    +0.000 A 
ATOM     14  S   UNL     1      49.948   6.592  18.264  0.00  0.00    +0.000 S 
ATOM     15  C   UNL     1      49.079   5.162  17.958  0.00  0.00    +0.000 A 
ATOM     16  N   UNL     1      48.955   4.203  18.914  0.00  0.00    +0.000 NA
ATOM     17  C   UNL     1      48.239   3.187  18.561  0.00  0.00    +0.000 A 
ATOM     18  N   UNL     1      47.649   3.037  17.334  0.00  0.00    +0.000 N 
ATOM     19  C   UNL     1      47.818   3.939  16.312  0.00  0.00    +0.000 A 
ATOM     20  O   UNL     1      47.407   3.699  15.181  0.00  0.00    +0.000 OA
ATOM     21  C   UNL     1      48.559   5.133  16.677  0.00  0.00    +0.000 A 
ATOM     22  H   UNL     1      47.134   2.200  17.107  0.00  0.00    +0.000 HD
ENDBRANCH   9  12
ENDBRANCH   7  10
ENDBRANCH   1   7
BRANCH   4  23
ATOM     23  C   UNL     1      43.946   4.173  10.114  0.00  0.00    +0.000 C 
BRANCH  23  24
ATOM     24  C   UNL     1      44.276   2.685  10.375  0.00  0.00    +0.000 C 
BRANCH  24  25
ATOM     25  O   UNL     1      43.348   2.154  11.330  0.00  0.00    +0.000 OA
ATOM     26  H   UNL     1      42.451   2.304  10.982  0.00  0.00    +0.000 HD
ENDBRANCH  24  25
BRANCH  24  27
ATOM     27  C   UNL     1      44.301   1.841   9.090  0.00  0.00    +0.000 C 
BRANCH  27  28
ATOM     28  C   UNL     1      45.527   2.094   8.247  0.00  0.00    +0.000 A 
ATOM     29  C   UNL     1      45.723   3.343   7.658  0.00  0.00    +0.000 A 
ATOM     30  C   UNL     1      46.865   3.560   6.894  0.00  0.00    +0.000 A 
ATOM     31  C   UNL     1      47.775   2.526   6.731  0.00  0.00    +0.000 A 
ATOM     32  C   UNL     1      47.506   1.314   7.346  0.00  0.00    +0.000 A 
ATOM     33  N   UNL     1      46.408   1.075   8.102  0.00  0.00    +0.000 NA
ENDBRANCH  27  28
ENDBRANCH  24  27
ENDBRANCH  23  24
ENDBRANCH   4  23
TORSDOF 8
ENDMDL
MODEL 2
REMARK VINA RESULT:    -8.371      1.438      1.819
REMARK INTER + INTRA:         -12.907
REMARK INTER:                 -11.756
REMARK INTRA:                  -1.151
REMARK UNBOUND:                -0.866
REMARK  Name = 
REMARK  8 active torsions:
REMARK  status: ('A' for Active; 'I' for Inactive)
REMARK    1  A    between atoms: C_2  and  C_21
REMARK    2  A    between atoms: N_3  and  C_4
REMARK    3  A    between atoms: C_4  and  C_5
REMARK    4  A    between atoms: C_8  and  C_9
REMARK    5  A    between atoms: C_9  and  C_10
REMARK    6  A    between atoms: C_10  and  O_11
REMARK    7  A    between atoms: C_10  and  C_12
REMARK    8  A    between atoms: C_12  and  C_13
REMARK                            x       y       z     vdW  Elec       q    Type
REMARK                         _______ _______ _______ _____ _____    ______ ____
ROOT
ATOM      1  C   UNL     1      47.130   6.521  13.065  0.00  0.00    +0.000 A 
ATOM      2  C   UNL     1      46.496   6.983  11.906  0.00  0.00    +0.000 A 
ATOM      3  C   UNL     1      45.457   6.251  11.327  0.00  0.00    +0.000 A 
ATOM      4  C   UNL     1      45.029   5.044  11.894  0.00  0.00    +0.000 A 
ATOM      5  C   UNL     1      45.635   4.603  13.077  0.00  0.00    +0.000 A 
ATOM      6  C   UNL     1      46.673   5.338  13.660  0.00  0.00    +0.000 A 
ENDROOT
BRANCH   1   7
ATOM      7  C   UNL     1      48.270   7.301  13.668  0.00  0.00    +0.000 C 
BRANCH   7  10
ATOM      8  O   UNL     1      50.420   6.684  15.379  0.00  0.00    +0.000 OA
ATOM      9  C   UNL     1      49.339   6.997  15.871  0.00  0.00    +0.000 C 
ATOM     10  N   UNL     1      48.234   7.266  15.107  0.00  0.00    +0.000 N 
ATOM     11  H   UNL     1      47.413   7.672  15.543  0.00  0.00    +0.000 HD
BRANCH   9  12
ATOM     12  C   UNL     1      49.150   7.051  17.327  0.00  0.00    +0.000 A 
ATOM     13  C   UNL     1      48.963   8.277  17.952  0.00  0.00    +0.000 A 
ATOM     14  S   UNL     1      48.749   8.159  19.639  0.00  0.00    +0.000 S 
ATOM     15  C   UNL     1      48.858   6.463  19.589  0.00  0.00    +0.000 A 
ATOM     16  N   UNL     1      48.714   5.720  20.718  0.00  0.00    +0.000 NA
ATOM     17  C   UNL     1      48.783   4.443  20.531  0.00  0.00    +0.000 A 
ATOM     18  N   UNL     1      48.998   3.844  19.319  0.00  0.00    +0.000 N 
ATOM     19  C   UNL     1      49.234   4.556  18.168  0.00  0.00    +0.000 A 
ATOM     20  O   UNL     1      49.577   3.992  17.134  0.00  0.00    +0.000 OA
ATOM     21  C   UNL     1      49.100   5.995  18.310  0.00  0.00    +0.000 A 
ATOM     22  H   UNL     1      49.081   2.842  19.246  0.00  0.00    +0.000 HD
ENDBRANCH   9  12
ENDBRANCH   7  10
ENDBRANCH   1   7
BRANCH   4  23
ATOM     23  C   UNL     1      43.953   4.218  11.216  0.00  0.00    +0.000 C 
BRANCH  23  24
ATOM     24  C   UNL     1      44.487   3.080  10.316  0.00  0.00    +0.000 C 
BRANCH  24  25
ATOM     25  O   UNL     1      43.718   1.892  10.549  0.00  0.00    +0.000 OA
ATOM     26  H   UNL     1      44.027   1.503  11.386  0.00  0.00    +0.000 HD
ENDBRANCH  24  25
BRANCH  24  27
ATOM     27  C   UNL     1      44.505   3.452   8.825  0.00  0.00    +0.000 C 
BRANCH  27  28
ATOM     28  C   UNL     1      45.615   2.769   8.065  0.00  0.00    +0.000 A 
ATOM     29  C   UNL     1      46.293   3.452   7.055  0.00  0.00    +0.000 A 
ATOM     30  C   UNL     1      47.321   2.809   6.374  0.00  0.00    +0.000 A 
ATOM     31  C   UNL     1      47.641   1.502   6.711  0.00  0.00    +0.000 A 
ATOM     32  C   UNL     1      46.918   0.892   7.723  0.00  0.00    +0.000 A 
ATOM     33  N   UNL     1      45.919   1.494   8.409  0.00  0.00    +0.000 NA
ENDBRANCH  27  28
ENDBRANCH  24  27
ENDBRANCH  23  24
ENDBRANCH   4  23
TORSDOF 8
ENDMDL
MODEL 3
REMARK VINA RESULT:    -8.062      2.266      2.847
REMARK INTER + INTRA:         -12.463
REMARK INTER:                 -11.391
REMARK INTRA:                  -1.072
REMARK UNBOUND:                -0.866
REMARK  Name = 
REMARK  8 active torsions:
REMARK  status: ('A' for Active; 'I' for Inactive)
REMARK    1  A    between atoms: C_2  and  C_21
REMARK    2  A    between atoms: N_3  and  C_4
REMARK    3  A    between atoms: C_4  and  C_5
REMARK    4  A    between atoms: C_8  and  C_9
REMARK    5  A    between atoms: C_9  and  C_10
REMARK    6  A    between atoms: C_10  and  O_11
REMARK    7  A    between atoms: C_10  and  C_12
REMARK    8  A    between atoms: C_12  and  C_13
REMARK                            x       y       z     vdW  Elec       q    Type
REMARK                         _______ _______ _______ _____ _____    ______ ____
ROOT
ATOM      1  C   UNL     1      47.407   6.384  13.200  0.00  0.00    +0.000 A 
ATOM      2  C   UNL     1      46.707   5.267  13.669  0.00  0.00    +0.000 A 
ATOM      3  C   UNL     1      45.729   4.659  12.879  0.00  0.00    +0.000 A 
ATOM      4  C   UNL     1      45.431   5.153  11.602  0.00  0.00    +0.000 A 
ATOM      5  C   UNL     1      46.161   6.245  11.116  0.00  0.00    +0.000 A 
ATOM      6  C   UNL     1      47.143   6.852  11.906  0.00  0.00    +0.000 A 
ENDROOT
BRANCH   1   7
ATOM      7  C   UNL     1      48.441   7.052  14.070  0.00  0.00    +0.000 C 
BRANCH   7  10
ATOM      8  O   UNL     1      50.420   6.290  15.922  0.00  0.00    +0.000 OA
ATOM      9  C   UNL     1      49.263   6.428  16.311  0.00  0.00    +0.000 C 
ATOM     10  N   UNL     1      48.236   6.751  15.463  0.00  0.00    +0.000 N 
ATOM     11  H   UNL     1      47.334   7.008  15.847  0.00  0.00    +0.000 HD
BRANCH   9  12
ATOM     12  C   UNL     1      48.896   6.200  17.715  0.00  0.00    +0.000 A 
ATOM     13  C   UNL     1      49.132   4.961  18.295  0.00  0.00    +0.000 A 
ATOM     14  S   UNL     1      48.658   4.870  19.931  0.00  0.00    +0.000 S 
ATOM     15  C   UNL     1      48.158   6.495  19.932  0.00  0.00    +0.000 A 
ATOM     16  N   UNL     1      47.677   7.077  21.063  0.00  0.00    +0.000 NA
ATOM     17  C   UNL     1      47.369   8.325  20.933  0.00  0.00    +0.000 A 
ATOM     18  N   UNL     1      47.485   9.039  19.771  0.00  0.00    +0.000 N 
ATOM     19  C   UNL     1      47.885   8.472  18.585  0.00  0.00    +0.000 A 
ATOM     20  O   UNL     1      47.829   9.099  17.532  0.00  0.00    +0.000 OA
ATOM     21  C   UNL     1      48.308   7.087  18.691  0.00  0.00    +0.000 A 
ATOM     22  H   UNL     1      47.190  10.002  19.725  0.00  0.00    +0.000 HD
ENDBRANCH   9  12
ENDBRANCH   7  10
ENDBRANCH   1   7
BRANCH   4  23
ATOM     23  C   UNL     1      44.316   4.535  10.783  0.00  0.00    +0.000 C 
BRANCH  23  24
ATOM     24  C   UNL     1      44.722   3.269   9.994  0.00  0.00    +0.000 C 
BRANCH  24  25
ATOM     25  O   UNL     1      43.998   2.141  10.504  0.00  0.00    +0.000 OA
ATOM     26  H   UNL     1      44.081   1.421   9.854  0.00  0.00    +0.000 HD
ENDBRANCH  24  25
BRANCH  24  27
ATOM     27  C   UNL     1      44.529   3.418   8.477  0.00  0.00    +0.000 C 
BRANCH  27  28
ATOM     28  C   UNL     1      45.701   2.893   7.683  0.00  0.00    +0.000 A 
ATOM     29  C   UNL     1      46.299   1.685   8.039  0.00  0.00    +0.000 A 
ATOM     30  C   UNL     1      47.370   1.212   7.287  0.00  0.00    +0.000 A 
ATOM     31  C   UNL     1      47.821   1.959   6.209  0.00  0.00    +0.000 A 
ATOM     32  C   UNL     1      47.174   3.150   5.923  0.00  0.00    +0.000 A 
ATOM     33  N   UNL     1      46.125   3.632   6.629  0.00  0.00    +0.000 NA
ENDBRANCH  27  28
ENDBRANCH  24  27
ENDBRANCH  23  24
ENDBRANCH   4  23
TORSDOF 8
ENDMDL
MODEL 4
REMARK VINA RESULT:    -7.130      2.906      8.359
REMARK INTER + INTRA:         -11.122
REMARK INTER:                  -9.713
REMARK INTRA:                  -1.408
REMARK UNBOUND:                -0.866
REMARK  Name = 
REMARK  8 active torsions:
REMARK  status: ('A' for Active; 'I' for Inactive)
REMARK    1  A    between atoms: C_2  and  C_21
REMARK    2  A    between atoms: N_3  and  C_4
REMARK    3  A    between atoms: C_4  and  C_5
REMARK    4  A    between atoms: C_8  and  C_9
REMARK    5  A    between atoms: C_9  and  C_10
REMARK    6  A    between atoms: C_10  and  O_11
REMARK    7  A    between atoms: C_10  and  C_12
REMARK    8  A    between atoms: C_12  and  C_13
REMARK                            x       y       z     vdW  Elec       q    Type
REMARK                         _______ _______ _______ _____ _____    ______ ____
ROOT
ATOM      1  C   UNL     1      48.176   8.071  13.132  0.00  0.00    +0.000 A 
ATOM      2  C   UNL     1      49.387   7.386  13.279  0.00  0.00    +0.000 A 
ATOM      3  C   UNL     1      50.112   7.472  14.469  0.00  0.00    +0.000 A 
ATOM      4  C   UNL     1      49.641   8.244  15.540  0.00  0.00    +0.000 A 
ATOM      5  C   UNL     1      48.408   8.896  15.409  0.00  0.00    +0.000 A 
ATOM      6  C   UNL     1      47.680   8.807  14.217  0.00  0.00    +0.000 A 
ENDROOT
BRANCH   1   7
ATOM      7  C   UNL     1      47.414   7.996  11.834  0.00  0.00    +0.000 C 
BRANCH   7  10
ATOM      8  O   UNL     1      44.630   7.574  11.815  0.00  0.00    +0.000 OA
ATOM      9  C   UNL     1      45.378   6.616  11.643  0.00  0.00    +0.000 C 
ATOM     10  N   UNL     1      46.743   6.732  11.685  0.00  0.00    +0.000 N 
ATOM     11  H   UNL     1      47.319   5.953  11.383  0.00  0.00    +0.000 HD
BRANCH   9  12
ATOM     12  C   UNL     1      44.849   5.262  11.433  0.00  0.00    +0.000 A 
ATOM     13  C   UNL     1      44.130   4.639  12.445  0.00  0.00    +0.000 A 
ATOM     14  S   UNL     1      43.580   3.078  12.033  0.00  0.00    +0.000 S 
ATOM     15  C   UNL     1      44.249   3.196  10.474  0.00  0.00    +0.000 A 
ATOM     16  N   UNL     1      44.097   2.190   9.572  0.00  0.00    +0.000 NA
ATOM     17  C   UNL     1      44.623   2.426   8.415  0.00  0.00    +0.000 A 
ATOM     18  N   UNL     1      45.299   3.570   8.084  0.00  0.00    +0.000 N 
ATOM     19  C   UNL     1      45.549   4.574   8.988  0.00  0.00    +0.000 A 
ATOM     20  O   UNL     1      46.288   5.511   8.705  0.00  0.00    +0.000 OA
ATOM     21  C   UNL     1      44.921   4.390  10.284  0.00  0.00    +0.000 A 
ATOM     22  H   UNL     1      45.720   3.676   7.174  0.00  0.00    +0.000 HD
ENDBRANCH   9  12
ENDBRANCH   7  10
ENDBRANCH   1   7
BRANCH   4  23
ATOM     23  C   UNL     1      50.471   8.393  16.799  0.00  0.00    +0.000 C 
BRANCH  23  24
ATOM     24  C   UNL     1      50.210   7.313  17.874  0.00  0.00    +0.000 C 
BRANCH  24  25
ATOM     25  O   UNL     1      48.827   7.346  18.252  0.00  0.00    +0.000 OA
ATOM     26  H   UNL     1      48.361   7.907  17.608  0.00  0.00    +0.000 HD
ENDBRANCH  24  25
BRANCH  24  27
ATOM     27  C   UNL     1      50.635   5.906  17.427  0.00  0.00    +0.000 C 
BRANCH  27  28
ATOM     28  C   UNL     1      49.490   4.923  17.421  0.00  0.00    +0.000 A 
ATOM     29  C   UNL     1      49.397   3.954  18.420  0.00  0.00    +0.000 A 
ATOM     30  C   UNL     1      48.328   3.064  18.404  0.00  0.00    +0.000 A 
ATOM     31  C   UNL     1      47.386   3.158  17.389  0.00  0.00    +0.000 A 
ATOM     32  C   UNL     1      47.552   4.146  16.432  0.00  0.00    +0.000 A 
ATOM     33  N   UNL     1      48.576   5.031  16.426  0.00  0.00    +0.000 NA
ENDBRANCH  27  28
ENDBRANCH  24  27
ENDBRANCH  23  24
ENDBRANCH   4  23
TORSDOF 8
ENDMDL
MODEL 5
REMARK VINA RESULT:    -6.636      3.642      8.532
REMARK INTER + INTRA:         -10.411
REMARK INTER:                  -9.260
REMARK INTRA:                  -1.152
REMARK UNBOUND:                -0.866
REMARK  Name = 
REMARK  8 active torsions:
REMARK  status: ('A' for Active; 'I' for Inactive)
REMARK    1  A    between atoms: C_2  and  C_21
REMARK    2  A    between atoms: N_3  and  C_4
REMARK    3  A    between atoms: C_4  and  C_5
REMARK    4  A    between atoms: C_8  and  C_9
REMARK    5  A    between atoms: C_9  and  C_10
REMARK    6  A    between atoms: C_10  and  O_11
REMARK    7  A    between atoms: C_10  and  C_12
REMARK    8  A    between atoms: C_12  and  C_13
REMARK                            x       y       z     vdW  Elec       q    Type
REMARK                         _______ _______ _______ _____ _____    ______ ____
ROOT
ATOM      1  C   UNL     1      48.723   6.897  14.355  0.00  0.00    +0.000 A 
ATOM      2  C   UNL     1      49.807   7.445  15.050  0.00  0.00    +0.000 A 
ATOM      3  C   UNL     1      50.093   7.035  16.354  0.00  0.00    +0.000 A 
ATOM      4  C   UNL     1      49.303   6.069  16.991  0.00  0.00    +0.000 A 
ATOM      5  C   UNL     1      48.244   5.491  16.280  0.00  0.00    +0.000 A 
ATOM      6  C   UNL     1      47.959   5.898  14.972  0.00  0.00    +0.000 A 
ENDROOT
BRANCH   1   7
ATOM      7  C   UNL     1      48.404   7.365  12.958  0.00  0.00    +0.000 C 
BRANCH   7  10
ATOM      8  O   UNL     1      45.923   7.873  11.726  0.00  0.00    +0.000 OA
ATOM      9  C   UNL     1      46.410   6.749  11.642  0.00  0.00    +0.000 C 
ATOM     10  N   UNL     1      47.589   6.410  12.253  0.00  0.00    +0.000 N 
ATOM     11  H   UNL     1      48.031   5.526  12.029  0.00  0.00    +0.000 HD
BRANCH   9  12
ATOM     12  C   UNL     1      45.722   5.671  10.918  0.00  0.00    +0.000 A 
ATOM     13  C   UNL     1      45.894   5.546   9.546  0.00  0.00    +0.000 A 
ATOM     14  S   UNL     1      45.035   4.239   8.866  0.00  0.00    +0.000 S 
ATOM     15  C   UNL     1      44.436   3.771  10.387  0.00  0.00    +0.000 A 
ATOM     16  N   UNL     1      43.647   2.671  10.518  0.00  0.00    +0.000 NA
ATOM     17  C   UNL     1      43.293   2.409  11.733  0.00  0.00    +0.000 A 
ATOM     18  N   UNL     1      43.644   3.157  12.826  0.00  0.00    +0.000 N 
ATOM     19  C   UNL     1      44.366   4.322  12.730  0.00  0.00    +0.000 A 
ATOM     20  O   UNL     1      44.530   5.048  13.705  0.00  0.00    +0.000 OA
ATOM     21  C   UNL     1      44.847   4.626  11.394  0.00  0.00    +0.000 A 
ATOM     22  H   UNL     1      43.301   2.922  13.744  0.00  0.00    +0.000 HD
ENDBRANCH   9  12
ENDBRANCH   7  10
ENDBRANCH   1   7
BRANCH   4  23
ATOM     23  C   UNL     1      49.573   5.687  18.432  0.00  0.00    +0.000 C 
BRANCH  23  24
ATOM     24  C   UNL     1      50.342   4.357  18.613  0.00  0.00    +0.000 C 
BRANCH  24  25
ATOM     25  O   UNL     1      49.418   3.262  18.534  0.00  0.00    +0.000 OA
ATOM     26  H   UNL     1      49.501   2.750  19.357  0.00  0.00    +0.000 HD
ENDBRANCH  24  25
BRANCH  24  27
ATOM     27  C   UNL     1      51.495   4.189  17.612  0.00  0.00    +0.000 C 
BRANCH  27  28
ATOM     28  C   UNL     1      52.260   2.903  17.809  0.00  0.00    +0.000 A 
ATOM     29  C   UNL     1      53.562   2.935  18.307  0.00  0.00    +0.000 A 
ATOM     30  C   UNL     1      54.246   1.738  18.493  0.00  0.00    +0.000 A 
ATOM     31  C   UNL     1      53.617   0.544  18.170  0.00  0.00    +0.000 A 
ATOM     32  C   UNL     1      52.324   0.598  17.677  0.00  0.00    +0.000 A 
ATOM     33  N   UNL     1      51.630   1.745  17.493  0.00  0.00    +0.000 NA
ENDBRANCH  27  28
ENDBRANCH  24  27
ENDBRANCH  23  24
ENDBRANCH   4  23
TORSDOF 8
ENDMDL
MODEL 6
REMARK VINA RESULT:    -6.628      3.571      7.984
REMARK INTER + INTRA:         -10.400
REMARK INTER:                  -8.296
REMARK INTRA:                  -2.104
REMARK UNBOUND:                -0.866
REMARK  Name = 
REMARK  8 active torsions:
REMARK  status: ('A' for Active; 'I' for Inactive)
REMARK    1  A    between atoms: C_2  and  C_21
REMARK    2  A    between atoms: N_3  and  C_4
REMARK    3  A    between atoms: C_4  and  C_5
REMARK    4  A    between atoms: C_8  and  C_9
REMARK    5  A    between atoms: C_9  and  C_10
REMARK    6  A    between atoms: C_10  and  O_11
REMARK    7  A    between atoms: C_10  and  C_12
REMARK    8  A    between atoms: C_12  and  C_13
REMARK                            x       y       z     vdW  Elec       q    Type
REMARK                         _______ _______ _______ _____ _____    ______ ____
ROOT
ATOM      1  C   UNL     1      49.190   8.485  15.693  0.00  0.00    +0.000 A 
ATOM      2  C   UNL     1      50.131   7.765  14.949  0.00  0.00    +0.000 A 
ATOM      3  C   UNL     1      51.151   7.057  15.590  0.00  0.00    +0.000 A 
ATOM      4  C   UNL     1      51.251   7.054  16.988  0.00  0.00    +0.000 A 
ATOM      5  C   UNL     1      50.285   7.740  17.734  0.00  0.00    +0.000 A 
ATOM      6  C   UNL     1      49.261   8.446  17.092  0.00  0.00    +0.000 A 
ENDROOT
BRANCH   1   7
ATOM      7  C   UNL     1      48.110   9.270  14.994  0.00  0.00    +0.000 C 
BRANCH   7  10
ATOM      8  O   UNL     1      47.751   8.840  12.234  0.00  0.00    +0.000 OA
ATOM      9  C   UNL     1      47.054   8.215  13.029  0.00  0.00    +0.000 C 
ATOM     10  N   UNL     1      47.136   8.403  14.384  0.00  0.00    +0.000 N 
ATOM     11  H   UNL     1      46.659   7.759  15.006  0.00  0.00    +0.000 HD
BRANCH   9  12
ATOM     12  C   UNL     1      46.040   7.257  12.567  0.00  0.00    +0.000 A 
ATOM     13  C   UNL     1      44.977   7.701  11.792  0.00  0.00    +0.000 A 
ATOM     14  S   UNL     1      43.901   6.460  11.334  0.00  0.00    +0.000 S 
ATOM     15  C   UNL     1      44.840   5.281  12.121  0.00  0.00    +0.000 A 
ATOM     16  N   UNL     1      44.490   3.968  12.079  0.00  0.00    +0.000 NA
ATOM     17  C   UNL     1      45.310   3.176  12.687  0.00  0.00    +0.000 A 
ATOM     18  N   UNL     1      46.440   3.581  13.346  0.00  0.00    +0.000 N 
ATOM     19  C   UNL     1      46.786   4.904  13.486  0.00  0.00    +0.000 A 
ATOM     20  O   UNL     1      47.716   5.241  14.212  0.00  0.00    +0.000 OA
ATOM     21  C   UNL     1      45.934   5.831  12.764  0.00  0.00    +0.000 A 
ATOM     22  H   UNL     1      47.019   2.916  13.835  0.00  0.00    +0.000 HD
ENDBRANCH   9  12
ENDBRANCH   7  10
ENDBRANCH   1   7
BRANCH   4  23
ATOM     23  C   UNL     1      52.405   6.347  17.671  0.00  0.00    +0.000 C 
BRANCH  23  24
ATOM     24  C   UNL     1      52.317   4.804  17.651  0.00  0.00    +0.000 C 
BRANCH  24  25
ATOM     25  O   UNL     1      53.625   4.253  17.858  0.00  0.00    +0.000 OA
ATOM     26  H   UNL     1      54.220   4.989  18.085  0.00  0.00    +0.000 HD
ENDBRANCH  24  25
BRANCH  24  27
ATOM     27  C   UNL     1      51.308   4.247  18.666  0.00  0.00    +0.000 C 
BRANCH  27  28
ATOM     28  C   UNL     1      50.005   3.829  18.029  0.00  0.00    +0.000 A 
ATOM     29  C   UNL     1      48.829   4.514  18.333  0.00  0.00    +0.000 A 
ATOM     30  C   UNL     1      47.640   4.122  17.725  0.00  0.00    +0.000 A 
ATOM     31  C   UNL     1      47.654   3.054  16.839  0.00  0.00    +0.000 A 
ATOM     32  C   UNL     1      48.863   2.425  16.593  0.00  0.00    +0.000 A 
ATOM     33  N   UNL     1      50.037   2.788  17.162  0.00  0.00    +0.000 NA
ENDBRANCH  27  28
ENDBRANCH  24  27
ENDBRANCH  23  24
ENDBRANCH   4  23
TORSDOF 8
ENDMDL
MODEL 7
REMARK VINA RESULT:    -6.611      2.273      2.688
REMARK INTER + INTRA:         -10.375
REMARK INTER:                  -9.475
REMARK INTRA:                  -0.900
REMARK UNBOUND:                -0.866
REMARK  Name = 
REMARK  8 active torsions:
REMARK  status: ('A' for Active; 'I' for Inactive)
REMARK    1  A    between atoms: C_2  and  C_21
REMARK    2  A    between atoms: N_3  and  C_4
REMARK    3  A    between atoms: C_4  and  C_5
REMARK    4  A    between atoms: C_8  and  C_9
REMARK    5  A    between atoms: C_9  and  C_10
REMARK    6  A    between atoms: C_10  and  O_11
REMARK    7  A    between atoms: C_10  and  C_12
REMARK    8  A    between atoms: C_12  and  C_13
REMARK                            x       y       z     vdW  Elec       q    Type
REMARK                         _______ _______ _______ _____ _____    ______ ____
ROOT
ATOM      1  C   UNL     1      47.436   8.002  12.650  0.00  0.00    +0.000 A 
ATOM      2  C   UNL     1      46.171   8.057  13.245  0.00  0.00    +0.000 A 
ATOM      3  C   UNL     1      45.133   7.244  12.783  0.00  0.00    +0.000 A 
ATOM      4  C   UNL     1      45.339   6.358  11.716  0.00  0.00    +0.000 A 
ATOM      5  C   UNL     1      46.616   6.274  11.148  0.00  0.00    +0.000 A 
ATOM      6  C   UNL     1      47.656   7.085  11.613  0.00  0.00    +0.000 A 
ENDROOT
BRANCH   1   7
ATOM      7  C   UNL     1      48.542   8.903  13.136  0.00  0.00    +0.000 C 
BRANCH   7  10
ATOM      8  O   UNL     1      49.595   6.683  14.513  0.00  0.00    +0.000 OA
ATOM      9  C   UNL     1      49.291   7.689  15.149  0.00  0.00    +0.000 C 
ATOM     10  N   UNL     1      48.731   8.791  14.559  0.00  0.00    +0.000 N 
ATOM     11  H   UNL     1      48.643   9.651  15.089  0.00  0.00    +0.000 HD
BRANCH   9  12
ATOM     12  C   UNL     1      49.464   7.751  16.607  0.00  0.00    +0.000 A 
ATOM     13  C   UNL     1      48.423   8.208  17.404  0.00  0.00    +0.000 A 
ATOM     14  S   UNL     1      48.785   8.207  19.070  0.00  0.00    +0.000 S 
ATOM     15  C   UNL     1      50.332   7.558  18.788  0.00  0.00    +0.000 A 
ATOM     16  N   UNL     1      51.165   7.266  19.822  0.00  0.00    +0.000 NA
ATOM     17  C   UNL     1      52.294   6.745  19.467  0.00  0.00    +0.000 A 
ATOM     18  N   UNL     1      52.668   6.502  18.172  0.00  0.00    +0.000 N 
ATOM     19  C   UNL     1      51.894   6.858  17.095  0.00  0.00    +0.000 A 
ATOM     20  O   UNL     1      52.324   6.770  15.949  0.00  0.00    +0.000 OA
ATOM     21  C   UNL     1      50.586   7.387  17.439  0.00  0.00    +0.000 A 
ATOM     22  H   UNL     1      53.580   6.129  17.960  0.00  0.00    +0.000 HD
ENDBRANCH   9  12
ENDBRANCH   7  10
ENDBRANCH   1   7
BRANCH   4  23
ATOM     23  C   UNL     1      44.188   5.537  11.171  0.00  0.00    +0.000 C 
BRANCH  23  24
ATOM     24  C   UNL     1      44.602   4.186  10.543  0.00  0.00    +0.000 C 
BRANCH  24  25
ATOM     25  O   UNL     1      43.845   3.130  11.152  0.00  0.00    +0.000 OA
ATOM     26  H   UNL     1      44.337   2.832  11.937  0.00  0.00    +0.000 HD
ENDBRANCH  24  25
BRANCH  24  27
ATOM     27  C   UNL     1      44.461   4.166   9.013  0.00  0.00    +0.000 C 
BRANCH  27  28
ATOM     28  C   UNL     1      45.453   3.245   8.346  0.00  0.00    +0.000 A 
ATOM     29  C   UNL     1      46.356   3.752   7.411  0.00  0.00    +0.000 A 
ATOM     30  C   UNL     1      47.271   2.890   6.815  0.00  0.00    +0.000 A 
ATOM     31  C   UNL     1      47.256   1.546   7.160  0.00  0.00    +0.000 A 
ATOM     32  C   UNL     1      46.326   1.121   8.095  0.00  0.00    +0.000 A 
ATOM     33  N   UNL     1      45.429   1.936   8.698  0.00  0.00    +0.000 NA
ENDBRANCH  27  28
ENDBRANCH  24  27
ENDBRANCH  23  24
ENDBRANCH   4  23
TORSDOF 8
ENDMDL
MODEL 8
REMARK VINA RESULT:    -6.517      3.446      8.065
REMARK INTER + INTRA:         -10.240
REMARK INTER:                  -8.594
REMARK INTRA:                  -1.646
REMARK UNBOUND:                -0.866
REMARK  Name = 
REMARK  8 active torsions:
REMARK  status: ('A' for Active; 'I' for Inactive)
REMARK    1  A    between atoms: C_2  and  C_21
REMARK    2  A    between atoms: N_3  and  C_4
REMARK    3  A    between atoms: C_4  and  C_5
REMARK    4  A    between atoms: C_8  and  C_9
REMARK    5  A    between atoms: C_9  and  C_10
REMARK    6  A    between atoms: C_10  and  O_11
REMARK    7  A    between atoms: C_10  and  C_12
REMARK    8  A    between atoms: C_12  and  C_13
REMARK                            x       y       z     vdW  Elec       q    Type
REMARK                         _______ _______ _______ _____ _____    ______ ____
ROOT
ATOM      1  C   UNL     1      48.727   8.671  15.180  0.00  0.00    +0.000 A 
ATOM      2  C   UNL     1      49.751   7.780  15.520  0.00  0.00    +0.000 A 
ATOM      3  C   UNL     1      50.037   7.505  16.859  0.00  0.00    +0.000 A 
ATOM      4  C   UNL     1      49.304   8.114  17.887  0.00  0.00    +0.000 A 
ATOM      5  C   UNL     1      48.252   8.973  17.546  0.00  0.00    +0.000 A 
ATOM      6  C   UNL     1      47.963   9.246  16.205  0.00  0.00    +0.000 A 
ENDROOT
BRANCH   1   7
ATOM      7  C   UNL     1      48.443   8.984  13.733  0.00  0.00    +0.000 C 
BRANCH   7  10
ATOM      8  O   UNL     1      48.317   6.606  12.231  0.00  0.00    +0.000 OA
ATOM      9  C   UNL     1      47.270   7.145  12.581  0.00  0.00    +0.000 C 
ATOM     10  N   UNL     1      47.248   8.328  13.273  0.00  0.00    +0.000 N 
ATOM     11  H   UNL     1      46.376   8.653  13.676  0.00  0.00    +0.000 HD
BRANCH   9  12
ATOM     12  C   UNL     1      45.963   6.576  12.228  0.00  0.00    +0.000 A 
ATOM     13  C   UNL     1      44.996   7.382  11.642  0.00  0.00    +0.000 A 
ATOM     14  S   UNL     1      43.543   6.563  11.288  0.00  0.00    +0.000 S 
ATOM     15  C   UNL     1      44.169   5.092  11.869  0.00  0.00    +0.000 A 
ATOM     16  N   UNL     1      43.432   3.950  11.815  0.00  0.00    +0.000 NA
ATOM     17  C   UNL     1      44.042   2.899  12.256  0.00  0.00    +0.000 A 
ATOM     18  N   UNL     1      45.316   2.891  12.759  0.00  0.00    +0.000 N 
ATOM     19  C   UNL     1      46.064   4.033  12.911  0.00  0.00    +0.000 A 
ATOM     20  O   UNL     1      47.136   4.013  13.506  0.00  0.00    +0.000 OA
ATOM     21  C   UNL     1      45.452   5.233  12.368  0.00  0.00    +0.000 A 
ATOM     22  H   UNL     1      45.721   2.043  13.124  0.00  0.00    +0.000 HD
ENDBRANCH   9  12
ENDBRANCH   7  10
ENDBRANCH   1   7
BRANCH   4  23
ATOM     23  C   UNL     1      49.671   7.869  19.337  0.00  0.00    +0.000 C 
BRANCH  23  24
ATOM     24  C   UNL     1      49.607   6.388  19.776  0.00  0.00    +0.000 C 
BRANCH  24  25
ATOM     25  O   UNL     1      50.041   6.280  21.139  0.00  0.00    +0.000 OA
ATOM     26  H   UNL     1      49.783   7.100  21.595  0.00  0.00    +0.000 HD
ENDBRANCH  24  25
BRANCH  24  27
ATOM     27  C   UNL     1      48.218   5.763  19.580  0.00  0.00    +0.000 C 
BRANCH  27  28
ATOM     28  C   UNL     1      48.208   4.672  18.536  0.00  0.00    +0.000 A 
ATOM     29  C   UNL     1      49.366   3.935  18.287  0.00  0.00    +0.000 A 
ATOM     30  C   UNL     1      49.334   2.926  17.330  0.00  0.00    +0.000 A 
ATOM     31  C   UNL     1      48.153   2.685  16.642  0.00  0.00    +0.000 A 
ATOM     32  C   UNL     1      47.049   3.463  16.946  0.00  0.00    +0.000 A 
ATOM     33  N   UNL     1      47.046   4.446  17.877  0.00  0.00    +0.000 NA
ENDBRANCH  27  28
ENDBRANCH  24  27
ENDBRANCH  23  24
ENDBRANCH   4  23
TORSDOF 8
ENDMDL
MODEL 9
REMARK VINA RESULT:    -6.405      4.831      7.704
REMARK INTER + INTRA:         -10.080
REMARK INTER:                  -8.904
REMARK INTRA:                  -1.175
REMARK UNBOUND:                -0.866
REMARK  Name = 
REMARK  8 active torsions:
REMARK  status: ('A' for Active; 'I' for Inactive)
REMARK    1  A    between atoms: C_2  and  C_21
REMARK    2  A    between atoms: N_3  and  C_4
REMARK    3  A    between atoms: C_4  and  C_5
REMARK    4  A    between atoms: C_8  and  C_9
REMARK    5  A    between atoms: C_9  and  C_10
REMARK    6  A    between atoms: C_10  and  O_11
REMARK    7  A    between atoms: C_10  and  C_12
REMARK    8  A    between atoms: C_12  and  C_13
REMARK                            x       y       z     vdW  Elec       q    Type
REMARK                         _______ _______ _______ _____ _____    ______ ____
ROOT
ATOM      1  C   UNL     1      47.702   8.585  12.608  0.00  0.00    +0.000 A 
ATOM      2  C   UNL     1      48.128   9.635  11.787  0.00  0.00    +0.000 A 
ATOM      3  C   UNL     1      49.476   9.765  11.444  0.00  0.00    +0.000 A 
ATOM      4  C   UNL     1      50.426   8.848  11.914  0.00  0.00    +0.000 A 
ATOM      5  C   UNL     1      49.993   7.773  12.701  0.00  0.00    +0.000 A 
ATOM      6  C   UNL     1      48.642   7.641  13.042  0.00  0.00    +0.000 A 
ENDROOT
BRANCH   1   7
ATOM      7  C   UNL     1      46.251   8.467  12.997  0.00  0.00    +0.000 C 
BRANCH   7  10
ATOM      8  O   UNL     1      44.372   7.727  11.034  0.00  0.00    +0.000 OA
ATOM      9  C   UNL     1      44.860   6.856  11.750  0.00  0.00    +0.000 C 
ATOM     10  N   UNL     1      45.743   7.141  12.758  0.00  0.00    +0.000 N 
ATOM     11  H   UNL     1      46.238   6.385  13.217  0.00  0.00    +0.000 HD
BRANCH   9  12
ATOM     12  C   UNL     1      44.478   5.444  11.603  0.00  0.00    +0.000 A 
ATOM     13  C   UNL     1      43.761   4.817  12.612  0.00  0.00    +0.000 A 
ATOM     14  S   UNL     1      43.392   3.186  12.277  0.00  0.00    +0.000 S 
ATOM     15  C   UNL     1      44.144   3.273  10.754  0.00  0.00    +0.000 A 
ATOM     16  N   UNL     1      44.148   2.203   9.916  0.00  0.00    +0.000 NA
ATOM     17  C   UNL     1      44.721   2.418   8.777  0.00  0.00    +0.000 A 
ATOM     18  N   UNL     1      45.302   3.602   8.408  0.00  0.00    +0.000 N 
ATOM     19  C   UNL     1      45.396   4.680   9.254  0.00  0.00    +0.000 A 
ATOM     20  O   UNL     1      46.057   5.668   8.950  0.00  0.00    +0.000 OA
ATOM     21  C   UNL     1      44.708   4.515  10.522  0.00  0.00    +0.000 A 
ATOM     22  H   UNL     1      45.768   3.693   7.519  0.00  0.00    +0.000 HD
ENDBRANCH   9  12
ENDBRANCH   7  10
ENDBRANCH   1   7
BRANCH   4  23
ATOM     23  C   UNL     1      51.896   9.041  11.601  0.00  0.00    +0.000 C 
BRANCH  23  24
ATOM     24  C   UNL     1      52.321   8.567  10.192  0.00  0.00    +0.000 C 
BRANCH  24  25
ATOM     25  O   UNL     1      53.657   9.016   9.925  0.00  0.00    +0.000 OA
ATOM     26  H   UNL     1      53.789   8.987   8.961  0.00  0.00    +0.000 HD
ENDBRANCH  24  25
BRANCH  24  27
ATOM     27  C   UNL     1      52.194   7.047  10.005  0.00  0.00    +0.000 C 
BRANCH  27  28
ATOM     28  C   UNL     1      53.131   6.506   8.953  0.00  0.00    +0.000 A 
ATOM     29  C   UNL     1      52.782   6.576   7.604  0.00  0.00    +0.000 A 
ATOM     30  C   UNL     1      53.665   6.082   6.649  0.00  0.00    +0.000 A 
ATOM     31  C   UNL     1      54.866   5.525   7.064  0.00  0.00    +0.000 A 
ATOM     32  C   UNL     1      55.137   5.490   8.422  0.00  0.00    +0.000 A 
ATOM     33  N   UNL     1      54.302   5.969   9.374  0.00  0.00    +0.000 NA
ENDBRANCH  27  28
ENDBRANCH  24  27
ENDBRANCH  23  24
ENDBRANCH   4  23
TORSDOF 8
ENDMDL
