MODEL 1
REMARK VINA RESULT:    -7.149      0.000      0.000
REMARK INTER + INTRA:          -9.250
REMARK INTER:                  -8.821
REMARK INTRA:                  -0.429
REMARK UNBOUND:                -0.429
REMARK  Name = 
REMARK  5 active torsions:
REMARK  status: ('A' for Active; 'I' for Inactive)
REMARK    1  A    between atoms: C_1  and  C_2
REMARK    2  A    between atoms: C_4  and  O_5
REMARK    3  A    between atoms: O_5  and  C_6
REMARK    4  A    between atoms: C_6  and  C_7
REMARK    5  A    between atoms: C_11  and  C_12
REMARK                            x       y       z     vdW  Elec       q    Type
REMARK                         _______ _______ _______ _____ _____    ______ ____
ROOT
ATOM      1  C   UNL     1      43.959   3.853  10.290  0.00  0.00    +0.000 C 
ENDROOT
BRANCH   1   2
ATOM      2  C   UNL     1      44.956   3.499   9.205  0.00  0.00    +0.000 A 
ATOM      3  C   UNL     1      45.603   4.488   8.454  0.00  0.00    +0.000 A 
ATOM      4  C   UNL     1      46.527   4.142   7.466  0.00  0.00    +0.000 A 
ATOM      5  C   UNL     1      46.838   2.801   7.235  0.00  0.00    +0.000 A 
ATOM      6  C   UNL     1      46.229   1.800   7.998  0.00  0.00    +0.000 A 
ATOM      7  C   UNL     1      45.298   2.152   8.984  0.00  0.00    +0.000 A 
BRANCH   6   8
ATOM      8  C   UNL     1      46.566   0.424   7.781  0.00  0.00    +0.000 C 
ATOM      9  N   UNL     1      46.840  -0.689   7.603  0.00  0.00    +0.000 NA
ENDBRANCH   6   8
ENDBRANCH   1   2
BRANCH   1  10
ATOM     10  O   UNL     1      44.272   3.195  11.529  0.00  0.00    +0.000 OA
BRANCH  10  14
ATOM     11  C   UNL     1      46.204   7.469  12.899  0.00  0.00    +0.000 C 
ATOM     12  C   UNL     1      46.096   5.974  12.932  0.00  0.00    +0.000 A 
ATOM     13  C   UNL     1      45.176   5.290  12.156  0.00  0.00    +0.000 A 
ATOM     14  C   UNL     1      45.180   3.917  12.283  0.00  0.00    +0.000 A 
ATOM     15  N   UNL     1      46.011   3.249  13.097  0.00  0.00    +0.000 NA
ATOM     16  C   UNL     1      46.859   4.005  13.803  0.00  0.00    +0.000 A 
ATOM     17  N   UNL     1      46.947   5.339  13.763  0.00  0.00    +0.000 NA
ENDBRANCH  10  14
ENDBRANCH   1  10
TORSDOF 4
ENDMDL
MODEL 2
REMARK VINA RESULT:    -7.020      1.832      5.825
REMARK INTER + INTRA:          -9.090
REMARK INTER:                  -8.590
REMARK INTRA:                  -0.500
REMARK UNBOUND:                -0.429
REMARK  Name = 
REMARK  5 active torsions:
REMARK  status: ('A' for Active; 'I' for Inactive)
REMARK    1  A    between atoms: C_1  and  C_2
REMARK    2  A    between atoms: C_4  and  O_5
REMARK    3  A    between atoms: O_5  and  C_6
REMARK    4  A    between atoms: C_6  and  C_7
REMARK    5  A    between atoms: C_11  and  C_12
REMARK                            x       y       z     vdW  Elec       q    Type
REMARK                         _______ _______ _______ _____ _____    ______ ____
ROOT
ATOM      1  C   UNL     1      44.142   3.587  10.405  0.00  0.00    +0.000 C 
ENDROOT
BRANCH   1   2
ATOM      2  C   UNL     1      44.980   4.408  11.363  0.00  0.00    +0.000 A 
ATOM      3  C   UNL     1      45.085   5.799  11.238  0.00  0.00    +0.000 A 
ATOM      4  C   UNL     1      45.852   6.539  12.139  0.00  0.00    +0.000 A 
ATOM      5  C   UNL     1      46.505   5.902  13.195  0.00  0.00    +0.000 A 
ATOM      6  C   UNL     1      46.384   4.518  13.358  0.00  0.00    +0.000 A 
ATOM      7  C   UNL     1      45.618   3.778  12.448  0.00  0.00    +0.000 A 
BRANCH   6   8
ATOM      8  C   UNL     1      47.032   3.863  14.457  0.00  0.00    +0.000 C 
ATOM      9  N   UNL     1      47.555   3.335  15.347  0.00  0.00    +0.000 NA
ENDBRANCH   6   8
ENDBRANCH   1   2
BRANCH   1  10
ATOM     10  O   UNL     1      44.232   4.089   9.061  0.00  0.00    +0.000 OA
BRANCH  10  14
ATOM     11  C   UNL     1      46.818   0.171   7.706  0.00  0.00    +0.000 C 
ATOM     12  C   UNL     1      46.520   1.640   7.726  0.00  0.00    +0.000 A 
ATOM     13  C   UNL     1      45.453   2.161   8.437  0.00  0.00    +0.000 A 
ATOM     14  C   UNL     1      45.290   3.528   8.369  0.00  0.00    +0.000 A 
ATOM     15  N   UNL     1      46.099   4.339   7.668  0.00  0.00    +0.000 NA
ATOM     16  C   UNL     1      47.097   3.734   7.016  0.00  0.00    +0.000 A 
ATOM     17  N   UNL     1      47.354   2.421   7.008  0.00  0.00    +0.000 NA
ENDBRANCH  10  14
ENDBRANCH   1  10
TORSDOF 4
ENDMDL
MODEL 3
REMARK VINA RESULT:    -6.885      1.567      5.898
REMARK INTER + INTRA:          -8.924
REMARK INTER:                  -8.522
REMARK INTRA:                  -0.402
REMARK UNBOUND:                -0.429
REMARK  Name = 
REMARK  5 active torsions:
REMARK  status: ('A' for Active; 'I' for Inactive)
REMARK    1  A    between atoms: C_1  and  C_2
REMARK    2  A    between atoms: C_4  and  O_5
REMARK    3  A    between atoms: O_5  and  C_6
REMARK    4  A    between atoms: C_6  and  C_7
REMARK    5  A    between atoms: C_11  and  C_12
REMARK                            x       y       z     vdW  Elec       q    Type
REMARK                         _______ _______ _______ _____ _____    ______ ____
ROOT
ATOM      1  C   UNL     1      44.212   3.390   9.935  0.00  0.00    +0.000 C 
ENDROOT
BRANCH   1   2
ATOM      2  C   UNL     1      44.773   4.210  11.078  0.00  0.00    +0.000 A 
ATOM      3  C   UNL     1      44.444   5.562  11.241  0.00  0.00    +0.000 A 
ATOM      4  C   UNL     1      44.962   6.298  12.308  0.00  0.00    +0.000 A 
ATOM      5  C   UNL     1      45.795   5.685  13.244  0.00  0.00    +0.000 A 
ATOM      6  C   UNL     1      46.108   4.328  13.120  0.00  0.00    +0.000 A 
ATOM      7  C   UNL     1      45.591   3.594  12.043  0.00  0.00    +0.000 A 
BRANCH   6   8
ATOM      8  C   UNL     1      46.943   3.689  14.095  0.00  0.00    +0.000 C 
ATOM      9  N   UNL     1      47.618   3.173  14.884  0.00  0.00    +0.000 NA
ENDBRANCH   6   8
ENDBRANCH   1   2
BRANCH   1  10
ATOM     10  O   UNL     1      44.710   3.844   8.665  0.00  0.00    +0.000 OA
BRANCH  10  14
ATOM     11  C   UNL     1      47.811   2.565   5.111  0.00  0.00    +0.000 C 
ATOM     12  C   UNL     1      47.016   2.305   6.355  0.00  0.00    +0.000 A 
ATOM     13  C   UNL     1      46.204   3.273   6.920  0.00  0.00    +0.000 A 
ATOM     14  C   UNL     1      45.529   2.903   8.065  0.00  0.00    +0.000 A 
ATOM     15  N   UNL     1      45.626   1.688   8.625  0.00  0.00    +0.000 NA
ATOM     16  C   UNL     1      46.438   0.828   8.000  0.00  0.00    +0.000 A 
ATOM     17  N   UNL     1      47.141   1.073   6.889  0.00  0.00    +0.000 NA
ENDBRANCH  10  14
ENDBRANCH   1  10
TORSDOF 4
ENDMDL
MODEL 4
REMARK VINA RESULT:    -6.434      2.027      6.120
REMARK INTER + INTRA:          -8.367
REMARK INTER:                  -7.934
REMARK INTRA:                  -0.433
REMARK UNBOUND:                -0.429
REMARK  Name = 
REMARK  5 active torsions:
REMARK  status: ('A' for Active; 'I' for Inactive)
REMARK    1  A    between atoms: C_1  and  C_2
REMARK    2  A    between atoms: C_4  and  O_5
REMARK    3  A    between atoms: O_5  and  C_6
REMARK    4  A    between atoms: C_6  and  C_7
REMARK    5  A    between atoms: C_11  and  C_12
REMARK                            x       y       z     vdW  Elec       q    Type
REMARK                         _______ _______ _______ _____ _____    ______ ____
ROOT
ATOM      1  C   UNL     1      44.232   4.957  10.070  0.00  0.00    +0.000 C 
ENDROOT
BRANCH   1   2
ATOM      2  C   UNL     1      45.183   5.232  11.217  0.00  0.00    +0.000 A 
ATOM      3  C   UNL     1      45.175   4.449  12.378  0.00  0.00    +0.000 A 
ATOM      4  C   UNL     1      46.067   4.710  13.420  0.00  0.00    +0.000 A 
ATOM      5  C   UNL     1      46.998   5.743  13.304  0.00  0.00    +0.000 A 
ATOM      6  C   UNL     1      47.046   6.514  12.138  0.00  0.00    +0.000 A 
ATOM      7  C   UNL     1      46.145   6.252  11.098  0.00  0.00    +0.000 A 
BRANCH   6   8
ATOM      8  C   UNL     1      48.019   7.559  12.005  0.00  0.00    +0.000 C 
ATOM      9  N   UNL     1      48.805   8.405  11.898  0.00  0.00    +0.000 NA
ENDBRANCH   6   8
ENDBRANCH   1   2
BRANCH   1  10
ATOM     10  O   UNL     1      44.171   3.556   9.759  0.00  0.00    +0.000 OA
BRANCH  10  14
ATOM     11  C   UNL     1      46.926   0.139   7.610  0.00  0.00    +0.000 C 
ATOM     12  C   UNL     1      46.433   1.543   7.797  0.00  0.00    +0.000 A 
ATOM     13  C   UNL     1      45.486   1.865   8.754  0.00  0.00    +0.000 A 
ATOM     14  C   UNL     1      45.119   3.192   8.819  0.00  0.00    +0.000 A 
ATOM     15  N   UNL     1      45.628   4.144   8.021  0.00  0.00    +0.000 NA
ATOM     16  C   UNL     1      46.534   3.726   7.130  0.00  0.00    +0.000 A 
ATOM     17  N   UNL     1      46.967   2.471   6.975  0.00  0.00    +0.000 NA
ENDBRANCH  10  14
ENDBRANCH   1  10
TORSDOF 4
ENDMDL
MODEL 5
REMARK VINA RESULT:    -6.322      1.601      2.143
REMARK INTER + INTRA:          -8.229
REMARK INTER:                  -7.774
REMARK INTRA:                  -0.454
REMARK UNBOUND:                -0.429
REMARK  Name = 
REMARK  5 active torsions:
REMARK  status: ('A' for Active; 'I' for Inactive)
REMARK    1  A    between atoms: C_1  and  C_2
REMARK    2  A    between atoms: C_4  and  O_5
REMARK    3  A    between atoms: O_5  and  C_6
REMARK    4  A    between atoms: C_6  and  C_7
REMARK    5  A    between atoms: C_11  and  C_12
REMARK                            x       y       z     vdW  Elec       q    Type
REMARK                         _______ _______ _______ _____ _____    ______ ____
ROOT
ATOM      1  C   UNL     1      45.365   5.508   9.504  0.00  0.00    +0.000 C 
ENDROOT
BRANCH   1   2
ATOM      2  C   UNL     1      45.492   4.067   9.056  0.00  0.00    +0.000 A 
ATOM      3  C   UNL     1      44.652   3.066   9.561  0.00  0.00    +0.000 A 
ATOM      4  C   UNL     1      44.778   1.745   9.127  0.00  0.00    +0.000 A 
ATOM      5  C   UNL     1      45.727   1.411   8.161  0.00  0.00    +0.000 A 
ATOM      6  C   UNL     1      46.552   2.402   7.618  0.00  0.00    +0.000 A 
ATOM      7  C   UNL     1      46.427   3.725   8.061  0.00  0.00    +0.000 A 
BRANCH   6   8
ATOM      8  C   UNL     1      47.510   2.066   6.606  0.00  0.00    +0.000 C 
ATOM      9  N   UNL     1      48.287   1.795   5.788  0.00  0.00    +0.000 NA
ENDBRANCH   6   8
ENDBRANCH   1   2
BRANCH   1  10
ATOM     10  O   UNL     1      44.840   5.602  10.839  0.00  0.00    +0.000 OA
BRANCH  10  14
ATOM     11  C   UNL     1      49.052   7.404  12.541  0.00  0.00    +0.000 C 
ATOM     12  C   UNL     1      47.864   6.490  12.594  0.00  0.00    +0.000 A 
ATOM     13  C   UNL     1      46.884   6.506  11.618  0.00  0.00    +0.000 A 
ATOM     14  C   UNL     1      45.845   5.615  11.790  0.00  0.00    +0.000 A 
ATOM     15  N   UNL     1      45.757   4.767  12.826  0.00  0.00    +0.000 NA
ATOM     16  C   UNL     1      46.755   4.835  13.713  0.00  0.00    +0.000 A 
ATOM     17  N   UNL     1      47.810   5.654  13.652  0.00  0.00    +0.000 NA
ENDBRANCH  10  14
ENDBRANCH   1  10
TORSDOF 4
ENDMDL
MODEL 6
REMARK VINA RESULT:    -6.107      1.979      6.446
REMARK INTER + INTRA:          -7.964
REMARK INTER:                  -7.687
REMARK INTRA:                  -0.277
REMARK UNBOUND:                -0.429
REMARK  Name = 
REMARK  5 active torsions:
REMARK  status: ('A' for Active; 'I' for Inactive)
REMARK    1  A    between atoms: C_1  and  C_2
REMARK    2  A    between atoms: C_4  and  O_5
REMARK    3  A    between atoms: O_5  and  C_6
REMARK    4  A    between atoms: C_6  and  C_7
REMARK    5  A    between atoms: C_11  and  C_12
REMARK                            x       y       z     vdW  Elec       q    Type
REMARK                         _______ _______ _______ _____ _____    ______ ____
ROOT
ATOM      1  C   UNL     1      45.095   2.936  10.382  0.00  0.00    +0.000 C 
ENDROOT
BRANCH   1   2
ATOM      2  C   UNL     1      44.534   4.042  11.252  0.00  0.00    +0.000 A 
ATOM      3  C   UNL     1      43.233   3.980  11.767  0.00  0.00    +0.000 A 
ATOM      4  C   UNL     1      42.738   5.005  12.577  0.00  0.00    +0.000 A 
ATOM      5  C   UNL     1      43.548   6.093  12.905  0.00  0.00    +0.000 A 
ATOM      6  C   UNL     1      44.861   6.157  12.429  0.00  0.00    +0.000 A 
ATOM      7  C   UNL     1      45.352   5.129  11.612  0.00  0.00    +0.000 A 
BRANCH   6   8
ATOM      8  C   UNL     1      45.704   7.260  12.786  0.00  0.00    +0.000 C 
ATOM      9  N   UNL     1      46.385   8.153  13.076  0.00  0.00    +0.000 NA
ENDBRANCH   6   8
ENDBRANCH   1   2
BRANCH   1  10
ATOM     10  O   UNL     1      44.908   3.216   8.985  0.00  0.00    +0.000 OA
BRANCH  10  14
ATOM     11  C   UNL     1      47.760   2.667   5.055  0.00  0.00    +0.000 C 
ATOM     12  C   UNL     1      47.081   2.177   6.299  0.00  0.00    +0.000 A 
ATOM     13  C   UNL     1      46.277   3.001   7.067  0.00  0.00    +0.000 A 
ATOM     14  C   UNL     1      45.715   2.425   8.187  0.00  0.00    +0.000 A 
ATOM     15  N   UNL     1      45.912   1.146   8.542  0.00  0.00    +0.000 NA
ATOM     16  C   UNL     1      46.707   0.438   7.733  0.00  0.00    +0.000 A 
ATOM     17  N   UNL     1      47.305   0.887   6.624  0.00  0.00    +0.000 NA
ENDBRANCH  10  14
ENDBRANCH   1  10
TORSDOF 4
ENDMDL
MODEL 7
REMARK VINA RESULT:    -5.990      2.361      6.420
REMARK INTER + INTRA:          -7.820
REMARK INTER:                  -7.348
REMARK INTRA:                  -0.471
REMARK UNBOUND:                -0.429
REMARK  Name = 
REMARK  5 active torsions:
REMARK  status: ('A' for Active; 'I' for Inactive)
REMARK    1  A    between atoms: C_1  and  C_2
REMARK    2  A    between atoms: C_4  and  O_5
REMARK    3  A    between atoms: O_5  and  C_6
REMARK    4  A    between atoms: C_6  and  C_7
REMARK    5  A    between atoms: C_11  and  C_12
REMARK                            x       y       z     vdW  Elec       q    Type
REMARK                         _______ _______ _______ _____ _____    ______ ____
ROOT
ATOM      1  C   UNL     1      44.230   5.023  11.585  0.00  0.00    +0.000 C 
ENDROOT
BRANCH   1   2
ATOM      2  C   UNL     1      45.159   6.195  11.823  0.00  0.00    +0.000 A 
ATOM      3  C   UNL     1      46.537   6.013  12.003  0.00  0.00    +0.000 A 
ATOM      4  C   UNL     1      47.378   7.108  12.210  0.00  0.00    +0.000 A 
ATOM      5  C   UNL     1      46.858   8.403  12.213  0.00  0.00    +0.000 A 
ATOM      6  C   UNL     1      45.491   8.608  12.001  0.00  0.00    +0.000 A 
ATOM      7  C   UNL     1      44.649   7.506  11.800  0.00  0.00    +0.000 A 
BRANCH   6   8
ATOM      8  C   UNL     1      44.958   9.939  11.977  0.00  0.00    +0.000 C 
ATOM      9  N   UNL     1      44.528  11.016  11.958  0.00  0.00    +0.000 NA
ENDBRANCH   6   8
ENDBRANCH   1   2
BRANCH   1  10
ATOM     10  O   UNL     1      43.784   4.972  10.220  0.00  0.00    +0.000 OA
BRANCH  10  14
ATOM     11  C   UNL     1      46.780   3.460   6.667  0.00  0.00    +0.000 C 
ATOM     12  C   UNL     1      45.833   3.238   7.808  0.00  0.00    +0.000 A 
ATOM     13  C   UNL     1      45.241   4.291   8.483  0.00  0.00    +0.000 A 
ATOM     14  C   UNL     1      44.392   3.948   9.515  0.00  0.00    +0.000 A 
ATOM     15  N   UNL     1      44.130   2.681   9.871  0.00  0.00    +0.000 NA
ATOM     16  C   UNL     1      44.755   1.740   9.155  0.00  0.00    +0.000 A 
ATOM     17  N   UNL     1      45.596   1.951   8.137  0.00  0.00    +0.000 NA
ENDBRANCH  10  14
ENDBRANCH   1  10
TORSDOF 4
ENDMDL
MODEL 8
REMARK VINA RESULT:    -5.947      1.922      5.865
REMARK INTER + INTRA:          -7.767
REMARK INTER:                  -7.364
REMARK INTRA:                  -0.403
REMARK UNBOUND:                -0.429
REMARK  Name = 
REMARK  5 active torsions:
REMARK  status: ('A' for Active; 'I' for Inactive)
REMARK    1  A    between atoms: C_1  and  C_2
REMARK    2  A    between atoms: C_4  and  O_5
REMARK    3  A    between atoms: O_5  and  C_6
REMARK    4  A    between atoms: C_6  and  C_7
REMARK    5  A    between atoms: C_11  and  C_12
REMARK                            x       y       z     vdW  Elec       q    Type
REMARK                         _______ _______ _______ _____ _____    ______ ____
ROOT
ATOM      1  C   UNL     1      45.554   6.389  10.810  0.00  0.00    +0.000 C 
ENDROOT
BRANCH   1   2
ATOM      2  C   UNL     1      46.520   6.391  11.977  0.00  0.00    +0.000 A 
ATOM      3  C   UNL     1      47.521   7.363  12.097  0.00  0.00    +0.000 A 
ATOM      4  C   UNL     1      48.394   7.356  13.188  0.00  0.00    +0.000 A 
ATOM      5  C   UNL     1      48.261   6.391  14.187  0.00  0.00    +0.000 A 
ATOM      6  C   UNL     1      47.245   5.433  14.103  0.00  0.00    +0.000 A 
ATOM      7  C   UNL     1      46.375   5.441  13.005  0.00  0.00    +0.000 A 
BRANCH   6   8
ATOM      8  C   UNL     1      47.089   4.457  15.141  0.00  0.00    +0.000 C 
ATOM      9  N   UNL     1      46.964   3.667  15.982  0.00  0.00    +0.000 NA
ENDBRANCH   6   8
ENDBRANCH   1   2
BRANCH   1  10
ATOM     10  O   UNL     1      44.570   5.350  10.941  0.00  0.00    +0.000 OA
BRANCH  10  14
ATOM     11  C   UNL     1      46.529   3.629   6.808  0.00  0.00    +0.000 C 
ATOM     12  C   UNL     1      45.750   3.492   8.081  0.00  0.00    +0.000 A 
ATOM     13  C   UNL     1      45.535   4.567   8.926  0.00  0.00    +0.000 A 
ATOM     14  C   UNL     1      44.804   4.304  10.066  0.00  0.00    +0.000 A 
ATOM     15  N   UNL     1      44.313   3.092  10.370  0.00  0.00    +0.000 NA
ATOM     16  C   UNL     1      44.580   2.123   9.488  0.00  0.00    +0.000 A 
ATOM     17  N   UNL     1      45.275   2.259   8.353  0.00  0.00    +0.000 NA
ENDBRANCH  10  14
ENDBRANCH   1  10
TORSDOF 4
ENDMDL
MODEL 9
REMARK VINA RESULT:    -5.928      2.987      4.608
REMARK INTER + INTRA:          -7.743
REMARK INTER:                  -7.398
REMARK INTRA:                  -0.345
REMARK UNBOUND:                -0.429
REMARK  Name = 
REMARK  5 active torsions:
REMARK  status: ('A' for Active; 'I' for Inactive)
REMARK    1  A    between atoms: C_1  and  C_2
REMARK    2  A    between atoms: C_4  and  O_5
REMARK    3  A    between atoms: O_5  and  C_6
REMARK    4  A    between atoms: C_6  and  C_7
REMARK    5  A    between atoms: C_11  and  C_12
REMARK                            x       y       z     vdW  Elec       q    Type
REMARK                         _______ _______ _______ _____ _____    ______ ____
ROOT
ATOM      1  C   UNL     1      46.356   4.760  14.079  0.00  0.00    +0.000 C 
ENDROOT
BRANCH   1   2
ATOM      2  C   UNL     1      45.280   4.676  13.016  0.00  0.00    +0.000 A 
ATOM      3  C   UNL     1      44.194   5.560  13.001  0.00  0.00    +0.000 A 
ATOM      4  C   UNL     1      43.219   5.474  12.006  0.00  0.00    +0.000 A 
ATOM      5  C   UNL     1      43.330   4.518  10.996  0.00  0.00    +0.000 A 
ATOM      6  C   UNL     1      44.425   3.648  10.973  0.00  0.00    +0.000 A 
ATOM      7  C   UNL     1      45.398   3.734  11.977  0.00  0.00    +0.000 A 
BRANCH   6   8
ATOM      8  C   UNL     1      44.555   2.682   9.922  0.00  0.00    +0.000 C 
ATOM      9  N   UNL     1      44.659   1.900   9.072  0.00  0.00    +0.000 NA
ENDBRANCH   6   8
ENDBRANCH   1   2
BRANCH   1  10
ATOM     10  O   UNL     1      46.956   3.478  14.327  0.00  0.00    +0.000 OA
BRANCH  10  14
ATOM     11  C   UNL     1      47.640   5.260  18.826  0.00  0.00    +0.000 C 
ATOM     12  C   UNL     1      47.914   4.300  17.707  0.00  0.00    +0.000 A 
ATOM     13  C   UNL     1      47.253   4.381  16.494  0.00  0.00    +0.000 A 
ATOM     14  C   UNL     1      47.598   3.435  15.552  0.00  0.00    +0.000 A 
ATOM     15  N   UNL     1      48.515   2.478  15.762  0.00  0.00    +0.000 NA
ATOM     16  C   UNL     1      49.093   2.487  16.968  0.00  0.00    +0.000 A 
ATOM     17  N   UNL     1      48.841   3.352  17.957  0.00  0.00    +0.000 NA
ENDBRANCH  10  14
ENDBRANCH   1  10
TORSDOF 4
ENDMDL
