MODEL 1
REMARK VINA RESULT:    -7.677      0.000      0.000
REMARK INTER + INTRA:          -9.696
REMARK INTER:                  -9.248
REMARK INTRA:                  -0.448
REMARK UNBOUND:                -0.448
REMARK  Name = 
REMARK  4 active torsions:
REMARK  status: ('A' for Active; 'I' for Inactive)
REMARK    1  A    between atoms: N_1  and  C_2
REMARK    2  A    between atoms: C_2  and  C_3
REMARK    3  A    between atoms: C_7  and  C_8
REMARK    4  A    between atoms: C_8  and  N_9
REMARK                            x       y       z     vdW  Elec       q    Type
REMARK                         _______ _______ _______ _____ _____    ______ ____
ROOT
ATOM      1  C   UNL     1      46.613   1.885   7.604  0.00  0.00    +0.000 A 
ATOM      2  C   UNL     1      46.877   3.140   7.036  0.00  0.00    +0.000 A 
ATOM      3  C   UNL     1      46.293   4.287   7.565  0.00  0.00    +0.000 A 
ATOM      4  C   UNL     1      45.413   4.189   8.643  0.00  0.00    +0.000 A 
ATOM      5  C   UNL     1      45.107   2.941   9.214  0.00  0.00    +0.000 A 
ATOM      6  C   UNL     1      45.738   1.798   8.701  0.00  0.00    +0.000 A 
ENDROOT
BRANCH   1   7
ATOM      7  C   UNL     1      47.169   0.634   6.974  0.00  0.00    +0.000 C 
BRANCH   7   8
ATOM      8  N   UNL     1      46.784  -0.541   7.748  0.00  0.00    +0.000 NA
ATOM      9  H   UNL     1      46.201  -0.252   8.531  0.00  0.00    +0.000 HD
ATOM     10  H   UNL     1      47.621  -0.958   8.150  0.00  0.00    +0.000 HD
ENDBRANCH   7   8
ENDBRANCH   1   7
BRANCH   5  11
ATOM     11  C   UNL     1      43.979   2.835  10.199  0.00  0.00    +0.000 C 
BRANCH  11  12
ATOM     12  N   UNL     1      43.917   3.829  11.265  0.00  0.00    +0.000 N 
ATOM     13  C   UNL     1      43.157   4.970  11.141  0.00  0.00    +0.000 A 
ATOM     14  N   UNL     1      43.667   5.975  11.809  0.00  0.00    +0.000 NA
ATOM     15  C   UNL     1      44.778   5.464  12.431  0.00  0.00    +0.000 A 
ATOM     16  C   UNL     1      45.750   6.126  13.196  0.00  0.00    +0.000 A 
ATOM     17  C   UNL     1      46.794   5.377  13.749  0.00  0.00    +0.000 A 
ATOM     18  C   UNL     1      46.848   3.994  13.574  0.00  0.00    +0.000 A 
ATOM     19  C   UNL     1      45.904   3.320  12.788  0.00  0.00    +0.000 A 
ATOM     20  C   UNL     1      44.900   4.095  12.195  0.00  0.00    +0.000 A 
ENDBRANCH  11  12
ENDBRANCH   5  11
TORSDOF 4
ENDMDL
MODEL 2
REMARK VINA RESULT:    -7.518      1.852      5.322
REMARK INTER + INTRA:          -9.504
REMARK INTER:                  -8.961
REMARK INTRA:                  -0.543
REMARK UNBOUND:                -0.448
REMARK  Name = 
REMARK  4 active torsions:
REMARK  status: ('A' for Active; 'I' for Inactive)
REMARK    1  A    between atoms: N_1  and  C_2
REMARK    2  A    between atoms: C_2  and  C_3
REMARK    3  A    between atoms: C_7  and  C_8
REMARK    4  A    between atoms: C_8  and  N_9
REMARK                            x       y       z     vdW  Elec       q    Type
REMARK                         _______ _______ _______ _____ _____    ______ ____
ROOT
ATOM      1  C   UNL     1      46.853   5.407  13.806  0.00  0.00    +0.000 A 
ATOM      2  C   UNL     1      47.902   6.101  13.184  0.00  0.00    +0.000 A 
ATOM      3  C   UNL     1      47.659   6.869  12.048  0.00  0.00    +0.000 A 
ATOM      4  C   UNL     1      46.377   6.924  11.502  0.00  0.00    +0.000 A 
ATOM      5  C   UNL     1      45.312   6.215  12.087  0.00  0.00    +0.000 A 
ATOM      6  C   UNL     1      45.560   5.483  13.258  0.00  0.00    +0.000 A 
ENDROOT
BRANCH   1   7
ATOM      7  C   UNL     1      47.130   4.501  14.977  0.00  0.00    +0.000 C 
BRANCH   7   8
ATOM      8  N   UNL     1      47.461   3.159  14.515  0.00  0.00    +0.000 NA
ATOM      9  H   UNL     1      46.843   2.904  13.748  0.00  0.00    +0.000 HD
ATOM     10  H   UNL     1      47.277   2.497  15.267  0.00  0.00    +0.000 HD
ENDBRANCH   7   8
ENDBRANCH   1   7
BRANCH   5  11
ATOM     11  C   UNL     1      44.012   6.091  11.347  0.00  0.00    +0.000 C 
BRANCH  11  12
ATOM     12  N   UNL     1      43.700   4.803  10.738  0.00  0.00    +0.000 N 
ATOM     13  C   UNL     1      43.064   3.809  11.445  0.00  0.00    +0.000 A 
ATOM     14  N   UNL     1      43.414   2.614  11.037  0.00  0.00    +0.000 NA
ATOM     15  C   UNL     1      44.276   2.832   9.993  0.00  0.00    +0.000 A 
ATOM     16  C   UNL     1      45.023   1.905   9.250  0.00  0.00    +0.000 A 
ATOM     17  C   UNL     1      45.830   2.373   8.208  0.00  0.00    +0.000 A 
ATOM     18  C   UNL     1      45.863   3.731   7.888  0.00  0.00    +0.000 A 
ATOM     19  C   UNL     1      45.147   4.675   8.637  0.00  0.00    +0.000 A 
ATOM     20  C   UNL     1      44.392   4.194   9.713  0.00  0.00    +0.000 A 
ENDBRANCH  11  12
ENDBRANCH   5  11
TORSDOF 4
ENDMDL
MODEL 3
REMARK VINA RESULT:    -7.244      1.747      2.233
REMARK INTER + INTRA:          -9.175
REMARK INTER:                  -8.755
REMARK INTRA:                  -0.420
REMARK UNBOUND:                -0.448
REMARK  Name = 
REMARK  4 active torsions:
REMARK  status: ('A' for Active; 'I' for Inactive)
REMARK    1  A    between atoms: N_1  and  C_2
REMARK    2  A    between atoms: C_2  and  C_3
REMARK    3  A    between atoms: C_7  and  C_8
REMARK    4  A    between atoms: C_8  and  N_9
REMARK                            x       y       z     vdW  Elec       q    Type
REMARK                         _______ _______ _______ _____ _____    ______ ____
ROOT
ATOM      1  C   UNL     1      46.647   2.457   6.674  0.00  0.00    +0.000 A 
ATOM      2  C   UNL     1      46.759   1.229   7.343  0.00  0.00    +0.000 A 
ATOM      3  C   UNL     1      45.957   0.955   8.447  0.00  0.00    +0.000 A 
ATOM      4  C   UNL     1      45.061   1.915   8.915  0.00  0.00    +0.000 A 
ATOM      5  C   UNL     1      44.947   3.167   8.282  0.00  0.00    +0.000 A 
ATOM      6  C   UNL     1      45.728   3.413   7.143  0.00  0.00    +0.000 A 
ENDROOT
BRANCH   1   7
ATOM      7  C   UNL     1      47.580   2.792   5.540  0.00  0.00    +0.000 C 
BRANCH   7   8
ATOM      8  N   UNL     1      48.632   1.789   5.432  0.00  0.00    +0.000 NA
ATOM      9  H   UNL     1      48.246   0.937   5.031  0.00  0.00    +0.000 HD
ATOM     10  H   UNL     1      48.954   1.549   6.368  0.00  0.00    +0.000 HD
ENDBRANCH   7   8
ENDBRANCH   1   7
BRANCH   5  11
ATOM     11  C   UNL     1      44.166   4.263   8.946  0.00  0.00    +0.000 C 
BRANCH  11  12
ATOM     12  N   UNL     1      44.268   4.384  10.396  0.00  0.00    +0.000 N 
ATOM     13  C   UNL     1      43.225   4.029  11.222  0.00  0.00    +0.000 A 
ATOM     14  N   UNL     1      43.205   4.741  12.322  0.00  0.00    +0.000 NA
ATOM     15  C   UNL     1      44.301   5.561  12.236  0.00  0.00    +0.000 A 
ATOM     16  C   UNL     1      44.707   6.593  13.097  0.00  0.00    +0.000 A 
ATOM     17  C   UNL     1      45.886   7.286  12.805  0.00  0.00    +0.000 A 
ATOM     18  C   UNL     1      46.664   6.935  11.700  0.00  0.00    +0.000 A 
ATOM     19  C   UNL     1      46.259   5.928  10.814  0.00  0.00    +0.000 A 
ATOM     20  C   UNL     1      45.047   5.286  11.090  0.00  0.00    +0.000 A 
ENDBRANCH  11  12
ENDBRANCH   5  11
TORSDOF 4
ENDMDL
MODEL 4
REMARK VINA RESULT:    -7.039      2.147      5.695
REMARK INTER + INTRA:          -8.927
REMARK INTER:                  -8.392
REMARK INTRA:                  -0.535
REMARK UNBOUND:                -0.448
REMARK  Name = 
REMARK  4 active torsions:
REMARK  status: ('A' for Active; 'I' for Inactive)
REMARK    1  A    between atoms: N_1  and  C_2
REMARK    2  A    between atoms: C_2  and  C_3
REMARK    3  A    between atoms: C_7  and  C_8
REMARK    4  A    between atoms: C_8  and  N_9
REMARK                            x       y       z     vdW  Elec       q    Type
REMARK                         _______ _______ _______ _____ _____    ______ ____
ROOT
ATOM      1  C   UNL     1      47.895   6.874  12.450  0.00  0.00    +0.000 A 
ATOM      2  C   UNL     1      47.980   6.168  13.659  0.00  0.00    +0.000 A 
ATOM      3  C   UNL     1      46.974   5.278  14.025  0.00  0.00    +0.000 A 
ATOM      4  C   UNL     1      45.857   5.111  13.206  0.00  0.00    +0.000 A 
ATOM      5  C   UNL     1      45.731   5.828  12.002  0.00  0.00    +0.000 A 
ATOM      6  C   UNL     1      46.773   6.686  11.622  0.00  0.00    +0.000 A 
ENDROOT
BRANCH   1   7
ATOM      7  C   UNL     1      48.934   7.907  12.097  0.00  0.00    +0.000 C 
BRANCH   7   8
ATOM      8  N   UNL     1      50.272   7.336  12.194  0.00  0.00    +0.000 NA
ATOM      9  H   UNL     1      50.278   6.415  11.761  0.00  0.00    +0.000 HD
ATOM     10  H   UNL     1      50.499   7.195  13.176  0.00  0.00    +0.000 HD
ENDBRANCH   7   8
ENDBRANCH   1   7
BRANCH   5  11
ATOM     11  C   UNL     1      44.420   5.818  11.270  0.00  0.00    +0.000 C 
BRANCH  11  12
ATOM     12  N   UNL     1      44.052   4.599  10.558  0.00  0.00    +0.000 N 
ATOM     13  C   UNL     1      43.347   3.591  11.175  0.00  0.00    +0.000 A 
ATOM     14  N   UNL     1      43.639   2.413  10.683  0.00  0.00    +0.000 NA
ATOM     15  C   UNL     1      44.536   2.660   9.675  0.00  0.00    +0.000 A 
ATOM     16  C   UNL     1      45.248   1.752   8.877  0.00  0.00    +0.000 A 
ATOM     17  C   UNL     1      46.103   2.251   7.889  0.00  0.00    +0.000 A 
ATOM     18  C   UNL     1      46.218   3.625   7.675  0.00  0.00    +0.000 A 
ATOM     19  C   UNL     1      45.538   4.548   8.481  0.00  0.00    +0.000 A 
ATOM     20  C   UNL     1      44.733   4.031   9.502  0.00  0.00    +0.000 A 
ENDBRANCH  11  12
ENDBRANCH   5  11
TORSDOF 4
ENDMDL
MODEL 5
REMARK VINA RESULT:    -6.485      2.424      6.371
REMARK INTER + INTRA:          -8.260
REMARK INTER:                  -7.873
REMARK INTRA:                  -0.387
REMARK UNBOUND:                -0.448
REMARK  Name = 
REMARK  4 active torsions:
REMARK  status: ('A' for Active; 'I' for Inactive)
REMARK    1  A    between atoms: N_1  and  C_2
REMARK    2  A    between atoms: C_2  and  C_3
REMARK    3  A    between atoms: C_7  and  C_8
REMARK    4  A    between atoms: C_8  and  N_9
REMARK                            x       y       z     vdW  Elec       q    Type
REMARK                         _______ _______ _______ _____ _____    ______ ____
ROOT
ATOM      1  C   UNL     1      44.865   9.158  11.606  0.00  0.00    +0.000 A 
ATOM      2  C   UNL     1      46.023   9.713  12.173  0.00  0.00    +0.000 A 
ATOM      3  C   UNL     1      46.980   8.891  12.759  0.00  0.00    +0.000 A 
ATOM      4  C   UNL     1      46.777   7.512  12.817  0.00  0.00    +0.000 A 
ATOM      5  C   UNL     1      45.613   6.930  12.283  0.00  0.00    +0.000 A 
ATOM      6  C   UNL     1      44.678   7.765  11.653  0.00  0.00    +0.000 A 
ENDROOT
BRANCH   1   7
ATOM      7  C   UNL     1      43.784  10.052  11.056  0.00  0.00    +0.000 C 
BRANCH   7   8
ATOM      8  N   UNL     1      43.116  10.766  12.137  0.00  0.00    +0.000 NA
ATOM      9  H   UNL     1      42.139  10.483  12.174  0.00  0.00    +0.000 HD
ATOM     10  H   UNL     1      43.120  11.762  11.925  0.00  0.00    +0.000 HD
ENDBRANCH   7   8
ENDBRANCH   1   7
BRANCH   5  11
ATOM     11  C   UNL     1      45.305   5.491  12.575  0.00  0.00    +0.000 C 
BRANCH  11  12
ATOM     12  N   UNL     1      44.492   4.763  11.607  0.00  0.00    +0.000 N 
ATOM     13  C   UNL     1      43.558   3.835  12.006  0.00  0.00    +0.000 A 
ATOM     14  N   UNL     1      43.400   2.882  11.121  0.00  0.00    +0.000 NA
ATOM     15  C   UNL     1      44.228   3.221  10.081  0.00  0.00    +0.000 A 
ATOM     16  C   UNL     1      44.525   2.504   8.912  0.00  0.00    +0.000 A 
ATOM     17  C   UNL     1      45.398   3.072   7.978  0.00  0.00    +0.000 A 
ATOM     18  C   UNL     1      45.936   4.343   8.188  0.00  0.00    +0.000 A 
ATOM     19  C   UNL     1      45.675   5.061   9.363  0.00  0.00    +0.000 A 
ATOM     20  C   UNL     1      44.846   4.451  10.311  0.00  0.00    +0.000 A 
ENDBRANCH  11  12
ENDBRANCH   5  11
TORSDOF 4
ENDMDL
MODEL 6
REMARK VINA RESULT:    -6.316      1.517      2.476
REMARK INTER + INTRA:          -8.056
REMARK INTER:                  -7.426
REMARK INTRA:                  -0.630
REMARK UNBOUND:                -0.448
REMARK  Name = 
REMARK  4 active torsions:
REMARK  status: ('A' for Active; 'I' for Inactive)
REMARK    1  A    between atoms: N_1  and  C_2
REMARK    2  A    between atoms: C_2  and  C_3
REMARK    3  A    between atoms: C_7  and  C_8
REMARK    4  A    between atoms: C_8  and  N_9
REMARK                            x       y       z     vdW  Elec       q    Type
REMARK                         _______ _______ _______ _____ _____    ______ ____
ROOT
ATOM      1  C   UNL     1      45.650   3.757   8.351  0.00  0.00    +0.000 A 
ATOM      2  C   UNL     1      45.595   2.402   8.712  0.00  0.00    +0.000 A 
ATOM      3  C   UNL     1      44.714   1.974   9.701  0.00  0.00    +0.000 A 
ATOM      4  C   UNL     1      43.905   2.897  10.363  0.00  0.00    +0.000 A 
ATOM      5  C   UNL     1      43.960   4.266  10.043  0.00  0.00    +0.000 A 
ATOM      6  C   UNL     1      44.818   4.678   9.012  0.00  0.00    +0.000 A 
ENDROOT
BRANCH   1   7
ATOM      7  C   UNL     1      46.668   4.236   7.350  0.00  0.00    +0.000 C 
BRANCH   7   8
ATOM      8  N   UNL     1      47.541   3.140   6.946  0.00  0.00    +0.000 NA
ATOM      9  H   UNL     1      47.323   2.871   5.989  0.00  0.00    +0.000 HD
ATOM     10  H   UNL     1      47.340   2.329   7.528  0.00  0.00    +0.000 HD
ENDBRANCH   7   8
ENDBRANCH   1   7
BRANCH   5  11
ATOM     11  C   UNL     1      43.269   5.261  10.930  0.00  0.00    +0.000 C 
BRANCH  11  12
ATOM     12  N   UNL     1      44.106   6.150  11.729  0.00  0.00    +0.000 N 
ATOM     13  C   UNL     1      44.367   7.441  11.329  0.00  0.00    +0.000 A 
ATOM     14  N   UNL     1      45.539   7.856  11.743  0.00  0.00    +0.000 NA
ATOM     15  C   UNL     1      46.047   6.816  12.478  0.00  0.00    +0.000 A 
ATOM     16  C   UNL     1      47.311   6.683  13.073  0.00  0.00    +0.000 A 
ATOM     17  C   UNL     1      47.594   5.520  13.798  0.00  0.00    +0.000 A 
ATOM     18  C   UNL     1      46.625   4.528  13.958  0.00  0.00    +0.000 A 
ATOM     19  C   UNL     1      45.368   4.629  13.346  0.00  0.00    +0.000 A 
ATOM     20  C   UNL     1      45.125   5.773  12.577  0.00  0.00    +0.000 A 
ENDBRANCH  11  12
ENDBRANCH   5  11
TORSDOF 4
ENDMDL
MODEL 7
REMARK VINA RESULT:    -6.305      2.197      3.223
REMARK INTER + INTRA:          -8.043
REMARK INTER:                  -7.619
REMARK INTRA:                  -0.424
REMARK UNBOUND:                -0.448
REMARK  Name = 
REMARK  4 active torsions:
REMARK  status: ('A' for Active; 'I' for Inactive)
REMARK    1  A    between atoms: N_1  and  C_2
REMARK    2  A    between atoms: C_2  and  C_3
REMARK    3  A    between atoms: C_7  and  C_8
REMARK    4  A    between atoms: C_8  and  N_9
REMARK                            x       y       z     vdW  Elec       q    Type
REMARK                         _______ _______ _______ _____ _____    ______ ____
ROOT
ATOM      1  C   UNL     1      45.783   3.617   7.982  0.00  0.00    +0.000 A 
ATOM      2  C   UNL     1      45.195   2.366   8.226  0.00  0.00    +0.000 A 
ATOM      3  C   UNL     1      44.462   2.150   9.389  0.00  0.00    +0.000 A 
ATOM      4  C   UNL     1      44.338   3.167  10.336  0.00  0.00    +0.000 A 
ATOM      5  C   UNL     1      44.942   4.421  10.133  0.00  0.00    +0.000 A 
ATOM      6  C   UNL     1      45.638   4.641   8.935  0.00  0.00    +0.000 A 
ENDROOT
BRANCH   1   7
ATOM      7  C   UNL     1      46.655   3.824   6.771  0.00  0.00    +0.000 C 
BRANCH   7   8
ATOM      8  N   UNL     1      47.828   2.960   6.834  0.00  0.00    +0.000 NA
ATOM      9  H   UNL     1      47.701   2.272   7.574  0.00  0.00    +0.000 HD
ATOM     10  H   UNL     1      48.636   3.521   7.097  0.00  0.00    +0.000 HD
ENDBRANCH   7   8
ENDBRANCH   1   7
BRANCH   5  11
ATOM     11  C   UNL     1      45.003   5.404  11.265  0.00  0.00    +0.000 C 
BRANCH  11  12
ATOM     12  N   UNL     1      46.114   5.288  12.203  0.00  0.00    +0.000 N 
ATOM     13  C   UNL     1      46.004   4.549  13.359  0.00  0.00    +0.000 A 
ATOM     14  N   UNL     1      46.753   5.028  14.322  0.00  0.00    +0.000 NA
ATOM     15  C   UNL     1      47.413   6.093  13.764  0.00  0.00    +0.000 A 
ATOM     16  C   UNL     1      48.269   7.024  14.372  0.00  0.00    +0.000 A 
ATOM     17  C   UNL     1      48.844   8.025  13.582  0.00  0.00    +0.000 A 
ATOM     18  C   UNL     1      48.600   8.075  12.208  0.00  0.00    +0.000 A 
ATOM     19  C   UNL     1      47.724   7.173  11.589  0.00  0.00    +0.000 A 
ATOM     20  C   UNL     1      47.114   6.215  12.407  0.00  0.00    +0.000 A 
ENDBRANCH  11  12
ENDBRANCH   5  11
TORSDOF 4
ENDMDL
MODEL 8
REMARK VINA RESULT:    -5.556      3.053      4.912
REMARK INTER + INTRA:          -7.141
REMARK INTER:                  -6.799
REMARK INTRA:                  -0.342
REMARK UNBOUND:                -0.448
REMARK  Name = 
REMARK  4 active torsions:
REMARK  status: ('A' for Active; 'I' for Inactive)
REMARK    1  A    between atoms: N_1  and  C_2
REMARK    2  A    between atoms: C_2  and  C_3
REMARK    3  A    between atoms: C_7  and  C_8
REMARK    4  A    between atoms: C_8  and  N_9
REMARK                            x       y       z     vdW  Elec       q    Type
REMARK                         _______ _______ _______ _____ _____    ______ ____
ROOT
ATOM      1  C   UNL     1      44.521   4.281  10.466  0.00  0.00    +0.000 A 
ATOM      2  C   UNL     1      43.277   4.683  10.975  0.00  0.00    +0.000 A 
ATOM      3  C   UNL     1      43.117   4.911  12.338  0.00  0.00    +0.000 A 
ATOM      4  C   UNL     1      44.185   4.706  13.211  0.00  0.00    +0.000 A 
ATOM      5  C   UNL     1      45.436   4.274  12.733  0.00  0.00    +0.000 A 
ATOM      6  C   UNL     1      45.597   4.094  11.351  0.00  0.00    +0.000 A 
ENDROOT
BRANCH   1   7
ATOM      7  C   UNL     1      44.672   3.943   9.005  0.00  0.00    +0.000 C 
BRANCH   7   8
ATOM      8  N   UNL     1      45.482   4.949   8.330  0.00  0.00    +0.000 NA
ATOM      9  H   UNL     1      45.462   4.781   7.327  0.00  0.00    +0.000 HD
ATOM     10  H   UNL     1      46.452   4.840   8.622  0.00  0.00    +0.000 HD
ENDBRANCH   7   8
ENDBRANCH   1   7
BRANCH   5  11
ATOM     11  C   UNL     1      46.485   3.826  13.708  0.00  0.00    +0.000 C 
BRANCH  11  12
ATOM     12  N   UNL     1      47.012   4.818  14.639  0.00  0.00    +0.000 N 
ATOM     13  C   UNL     1      47.647   5.955  14.193  0.00  0.00    +0.000 A 
ATOM     14  N   UNL     1      48.559   6.372  15.037  0.00  0.00    +0.000 NA
ATOM     15  C   UNL     1      48.489   5.504  16.096  0.00  0.00    +0.000 A 
ATOM     16  C   UNL     1      49.304   5.426  17.236  0.00  0.00    +0.000 A 
ATOM     17  C   UNL     1      49.021   4.452  18.199  0.00  0.00    +0.000 A 
ATOM     18  C   UNL     1      47.927   3.598  18.048  0.00  0.00    +0.000 A 
ATOM     19  C   UNL     1      47.121   3.640  16.902  0.00  0.00    +0.000 A 
ATOM     20  C   UNL     1      47.456   4.582  15.923  0.00  0.00    +0.000 A 
ENDBRANCH  11  12
ENDBRANCH   5  11
TORSDOF 4
ENDMDL
MODEL 9
REMARK VINA RESULT:    -5.417      3.176      5.078
REMARK INTER + INTRA:          -6.974
REMARK INTER:                  -6.594
REMARK INTRA:                  -0.380
REMARK UNBOUND:                -0.448
REMARK  Name = 
REMARK  4 active torsions:
REMARK  status: ('A' for Active; 'I' for Inactive)
REMARK    1  A    between atoms: N_1  and  C_2
REMARK    2  A    between atoms: C_2  and  C_3
REMARK    3  A    between atoms: C_7  and  C_8
REMARK    4  A    between atoms: C_8  and  N_9
REMARK                            x       y       z     vdW  Elec       q    Type
REMARK                         _______ _______ _______ _____ _____    ______ ____
ROOT
ATOM      1  C   UNL     1      44.389   4.487  10.438  0.00  0.00    +0.000 A 
ATOM      2  C   UNL     1      43.411   3.885  11.244  0.00  0.00    +0.000 A 
ATOM      3  C   UNL     1      43.408   4.097  12.620  0.00  0.00    +0.000 A 
ATOM      4  C   UNL     1      44.400   4.882  13.208  0.00  0.00    +0.000 A 
ATOM      5  C   UNL     1      45.410   5.474  12.428  0.00  0.00    +0.000 A 
ATOM      6  C   UNL     1      45.374   5.291  11.038  0.00  0.00    +0.000 A 
ENDROOT
BRANCH   1   7
ATOM      7  C   UNL     1      44.451   4.183   8.963  0.00  0.00    +0.000 C 
BRANCH   7   8
ATOM      8  N   UNL     1      45.584   4.864   8.350  0.00  0.00    +0.000 NA
ATOM      9  H   UNL     1      45.917   5.595   8.975  0.00  0.00    +0.000 HD
ATOM     10  H   UNL     1      45.268   5.330   7.502  0.00  0.00    +0.000 HD
ENDBRANCH   7   8
ENDBRANCH   1   7
BRANCH   5  11
ATOM     11  C   UNL     1      46.594   6.100  13.105  0.00  0.00    +0.000 C 
BRANCH  11  12
ATOM     12  N   UNL     1      46.683   7.556  13.102  0.00  0.00    +0.000 N 
ATOM     13  C   UNL     1      45.564   8.344  12.962  0.00  0.00    +0.000 A 
ATOM     14  N   UNL     1      45.833   9.480  12.367  0.00  0.00    +0.000 NA
ATOM     15  C   UNL     1      47.186   9.456  12.147  0.00  0.00    +0.000 A 
ATOM     16  C   UNL     1      47.991  10.376  11.457  0.00  0.00    +0.000 A 
ATOM     17  C   UNL     1      49.367  10.141  11.381  0.00  0.00    +0.000 A 
ATOM     18  C   UNL     1      49.936   9.033  12.011  0.00  0.00    +0.000 A 
ATOM     19  C   UNL     1      49.146   8.087  12.679  0.00  0.00    +0.000 A 
ATOM     20  C   UNL     1      47.764   8.309  12.694  0.00  0.00    +0.000 A 
ENDBRANCH  11  12
ENDBRANCH   5  11
TORSDOF 4
ENDMDL
