MODEL 1
REMARK VINA RESULT:    -9.342      0.000      0.000
REMARK INTER + INTRA:         -13.782
REMARK INTER:                 -12.619
REMARK INTRA:                  -1.163
REMARK UNBOUND:                -1.163
REMARK  Name = 
REMARK  9 active torsions:
REMARK  status: ('A' for Active; 'I' for Inactive)
REMARK    1  A    between atoms: C_1  and  C_2
REMARK    2  A    between atoms: C_4  and  O_5
REMARK    3  A    between atoms: O_5  and  C_6
REMARK    4  A    between atoms: C_6  and  C_7
REMARK    5  A    between atoms: C_7  and  C_8
REMARK    6  A    between atoms: C_7  and  C_9
REMARK    7  A    between atoms: C_7  and  C_10
REMARK    8  A    between atoms: C_15  and  C_16
REMARK    9  A    between atoms: C_25  and  C_26
REMARK                            x       y       z     vdW  Elec       q    Type
REMARK                         _______ _______ _______ _____ _____    ______ ____
ROOT
ATOM      1  C   UNL     1      43.810   4.637  12.075  0.00  0.00    +0.000 C 
ATOM      2  C   UNL     1      43.765   3.205  12.666  0.00  0.00    +0.000 C 
ATOM      3  C   UNL     1      42.675   5.473  12.699  0.00  0.00    +0.000 C 
ENDROOT
BRANCH   1   4
ATOM      4  C   UNL     1      45.179   5.277  12.398  0.00  0.00    +0.000 A 
ATOM      5  C   UNL     1      45.834   6.136  11.511  0.00  0.00    +0.000 A 
ATOM      6  C   UNL     1      47.083   6.672  11.818  0.00  0.00    +0.000 A 
ATOM      7  C   UNL     1      47.730   6.347  13.015  0.00  0.00    +0.000 A 
ATOM      8 CL   UNL     1      49.336   6.983  13.174  0.00  0.00    +0.000 Cl
ATOM      9  C   UNL     1      47.113   5.509  13.969  0.00  0.00    +0.000 A 
ATOM     10  C   UNL     1      45.834   4.999  13.622  0.00  0.00    +0.000 A 
BRANCH   9  11
ATOM     11  C   UNL     1      47.723   5.125  15.276  0.00  0.00    +0.000 A 
ATOM     12  C   UNL     1      48.527   5.998  16.022  0.00  0.00    +0.000 A 
ATOM     13  C   UNL     1      49.108   5.564  17.207  0.00  0.00    +0.000 A 
ATOM     14  N   UNL     1      48.905   4.345  17.740  0.00  0.00    +0.000 NA
ATOM     15  C   UNL     1      48.094   3.522  17.048  0.00  0.00    +0.000 A 
ATOM     16  C   UNL     1      47.504   3.855  15.835  0.00  0.00    +0.000 A 
ENDBRANCH   9  11
ENDBRANCH   1   4
BRANCH   1  17
ATOM     17  C   UNL     1      43.519   4.481  10.549  0.00  0.00    +0.000 C 
BRANCH  17  18
ATOM     18  O   UNL     1      43.703   3.124  10.125  0.00  0.00    +0.000 OA
BRANCH  18  22
ATOM     19  C   UNL     1      46.770   0.151   7.613  0.00  0.00    +0.000 C 
ATOM     20  C   UNL     1      46.217   1.524   7.883  0.00  0.00    +0.000 A 
ATOM     21  C   UNL     1      45.243   1.659   8.891  0.00  0.00    +0.000 A 
ATOM     22  C   UNL     1      44.672   2.898   9.187  0.00  0.00    +0.000 A 
ATOM     23  C   UNL     1      45.094   4.024   8.484  0.00  0.00    +0.000 A 
ATOM     24  C   UNL     1      46.065   3.915   7.484  0.00  0.00    +0.000 A 
ATOM     25  C   UNL     1      46.622   2.666   7.162  0.00  0.00    +0.000 A 
BRANCH  25  26
ATOM     26  C   UNL     1      47.645   2.578   6.076  0.00  0.00    +0.000 C 
ATOM     27  N   UNL     1      48.959   2.570   6.453  0.00  0.00    +0.000 N 
ATOM     28  O   UNL     1      47.352   2.539   4.887  0.00  0.00    +0.000 OA
ATOM     29  H   UNL     1      49.267   2.802   7.386  0.00  0.00    +0.000 HD
ATOM     30  H   UNL     1      49.642   2.602   5.706  0.00  0.00    +0.000 HD
ENDBRANCH  25  26
ENDBRANCH  18  22
ENDBRANCH  17  18
ENDBRANCH   1  17
TORSDOF 6
ENDMDL
MODEL 2
REMARK VINA RESULT:    -8.560      2.179      2.644
REMARK INTER + INTRA:         -12.725
REMARK INTER:                 -11.737
REMARK INTRA:                  -0.988
REMARK UNBOUND:                -1.163
REMARK  Name = 
REMARK  9 active torsions:
REMARK  status: ('A' for Active; 'I' for Inactive)
REMARK    1  A    between atoms: C_1  and  C_2
REMARK    2  A    between atoms: C_4  and  O_5
REMARK    3  A    between atoms: O_5  and  C_6
REMARK    4  A    between atoms: C_6  and  C_7
REMARK    5  A    between atoms: C_7  and  C_8
REMARK    6  A    between atoms: C_7  and  C_9
REMARK    7  A    between atoms: C_7  and  C_10
REMARK    8  A    between atoms: C_15  and  C_16
REMARK    9  A    between atoms: C_25  and  C_26
REMARK                            x       y       z     vdW  Elec       q    Type
REMARK                         _______ _______ _______ _____ _____    ______ ____
ROOT
ATOM      1  C   UNL     1      44.111   4.947  12.100  0.00  0.00    +0.000 C 
ATOM      2  C   UNL     1      45.176   3.873  12.434  0.00  0.00    +0.000 C 
ATOM      3  C   UNL     1      43.000   4.901  13.168  0.00  0.00    +0.000 C 
ENDROOT
BRANCH   1   4
ATOM      4  C   UNL     1      44.781   6.341  12.091  0.00  0.00    +0.000 A 
ATOM      5  C   UNL     1      44.144   7.476  11.582  0.00  0.00    +0.000 A 
ATOM      6  C   UNL     1      44.787   8.711  11.558  0.00  0.00    +0.000 A 
ATOM      7  C   UNL     1      46.099   8.848  12.024  0.00  0.00    +0.000 A 
ATOM      8 CL   UNL     1      46.799  10.418  11.791  0.00  0.00    +0.000 Cl
ATOM      9  C   UNL     1      46.790   7.750  12.579  0.00  0.00    +0.000 A 
ATOM     10  C   UNL     1      46.092   6.513  12.598  0.00  0.00    +0.000 A 
BRANCH   9  11
ATOM     11  C   UNL     1      48.182   7.810  13.113  0.00  0.00    +0.000 A 
ATOM     12  C   UNL     1      48.476   7.696  14.479  0.00  0.00    +0.000 A 
ATOM     13  C   UNL     1      49.787   7.811  14.919  0.00  0.00    +0.000 A 
ATOM     14  N   UNL     1      50.843   7.972  14.099  0.00  0.00    +0.000 NA
ATOM     15  C   UNL     1      50.568   8.033  12.783  0.00  0.00    +0.000 A 
ATOM     16  C   UNL     1      49.284   7.970  12.256  0.00  0.00    +0.000 A 
ENDBRANCH   9  11
ENDBRANCH   1   4
BRANCH   1  17
ATOM     17  C   UNL     1      43.490   4.526  10.731  0.00  0.00    +0.000 C 
BRANCH  17  18
ATOM     18  O   UNL     1      43.809   3.164  10.418  0.00  0.00    +0.000 OA
BRANCH  18  22
ATOM     19  C   UNL     1      46.725   0.253   7.665  0.00  0.00    +0.000 C 
ATOM     20  C   UNL     1      46.178   1.617   7.988  0.00  0.00    +0.000 A 
ATOM     21  C   UNL     1      45.274   1.730   9.064  0.00  0.00    +0.000 A 
ATOM     22  C   UNL     1      44.713   2.958   9.413  0.00  0.00    +0.000 A 
ATOM     23  C   UNL     1      45.073   4.097   8.695  0.00  0.00    +0.000 A 
ATOM     24  C   UNL     1      45.973   4.010   7.629  0.00  0.00    +0.000 A 
ATOM     25  C   UNL     1      46.519   2.771   7.254  0.00  0.00    +0.000 A 
BRANCH  25  26
ATOM     26  C   UNL     1      47.465   2.706   6.099  0.00  0.00    +0.000 C 
ATOM     27  N   UNL     1      48.795   2.567   6.385  0.00  0.00    +0.000 N 
ATOM     28  O   UNL     1      47.099   2.796   4.933  0.00  0.00    +0.000 OA
ATOM     29  H   UNL     1      49.176   2.691   7.312  0.00  0.00    +0.000 HD
ATOM     30  H   UNL     1      49.432   2.616   5.600  0.00  0.00    +0.000 HD
ENDBRANCH  25  26
ENDBRANCH  18  22
ENDBRANCH  17  18
ENDBRANCH   1  17
TORSDOF 6
ENDMDL
MODEL 3
REMARK VINA RESULT:    -8.425      2.180      3.290
REMARK INTER + INTRA:         -12.542
REMARK INTER:                 -11.660
REMARK INTRA:                  -0.882
REMARK UNBOUND:                -1.163
REMARK  Name = 
REMARK  9 active torsions:
REMARK  status: ('A' for Active; 'I' for Inactive)
REMARK    1  A    between atoms: C_1  and  C_2
REMARK    2  A    between atoms: C_4  and  O_5
REMARK    3  A    between atoms: O_5  and  C_6
REMARK    4  A    between atoms: C_6  and  C_7
REMARK    5  A    between atoms: C_7  and  C_8
REMARK    6  A    between atoms: C_7  and  C_9
REMARK    7  A    between atoms: C_7  and  C_10
REMARK    8  A    between atoms: C_15  and  C_16
REMARK    9  A    between atoms: C_25  and  C_26
REMARK                            x       y       z     vdW  Elec       q    Type
REMARK                         _______ _______ _______ _____ _____    ______ ____
ROOT
ATOM      1  C   UNL     1      44.184   4.731  12.226  0.00  0.00    +0.000 C 
ATOM      2  C   UNL     1      43.007   4.705  13.233  0.00  0.00    +0.000 C 
ATOM      3  C   UNL     1      43.862   5.735  11.102  0.00  0.00    +0.000 C 
ENDROOT
BRANCH   1   4
ATOM      4  C   UNL     1      45.474   5.157  12.964  0.00  0.00    +0.000 A 
ATOM      5  C   UNL     1      46.013   4.417  14.020  0.00  0.00    +0.000 A 
ATOM      6  C   UNL     1      47.160   4.844  14.686  0.00  0.00    +0.000 A 
ATOM      7  C   UNL     1      47.793   6.041  14.333  0.00  0.00    +0.000 A 
ATOM      8 CL   UNL     1      49.119   6.497  15.354  0.00  0.00    +0.000 Cl
ATOM      9  C   UNL     1      47.319   6.822  13.257  0.00  0.00    +0.000 A 
ATOM     10  C   UNL     1      46.158   6.341  12.596  0.00  0.00    +0.000 A 
BRANCH   9  11
ATOM     11  C   UNL     1      47.942   8.100  12.803  0.00  0.00    +0.000 A 
ATOM     12  C   UNL     1      48.760   8.183  11.668  0.00  0.00    +0.000 A 
ATOM     13  C   UNL     1      49.352   9.392  11.325  0.00  0.00    +0.000 A 
ATOM     14  N   UNL     1      49.145  10.543  11.991  0.00  0.00    +0.000 NA
ATOM     15  C   UNL     1      48.320  10.476  13.053  0.00  0.00    +0.000 A 
ATOM     16  C   UNL     1      47.719   9.303  13.493  0.00  0.00    +0.000 A 
ENDBRANCH   9  11
ENDBRANCH   1   4
BRANCH   1  17
ATOM     17  C   UNL     1      44.246   3.302  11.601  0.00  0.00    +0.000 C 
BRANCH  17  18
ATOM     18  O   UNL     1      43.791   3.314  10.241  0.00  0.00    +0.000 OA
BRANCH  18  22
ATOM     19  C   UNL     1      46.687   0.212   7.682  0.00  0.00    +0.000 C 
ATOM     20  C   UNL     1      46.183   1.605   7.947  0.00  0.00    +0.000 A 
ATOM     21  C   UNL     1      45.246   1.785   8.984  0.00  0.00    +0.000 A 
ATOM     22  C   UNL     1      44.722   3.044   9.277  0.00  0.00    +0.000 A 
ATOM     23  C   UNL     1      45.153   4.146   8.542  0.00  0.00    +0.000 A 
ATOM     24  C   UNL     1      46.086   3.993   7.513  0.00  0.00    +0.000 A 
ATOM     25  C   UNL     1      46.596   2.723   7.194  0.00  0.00    +0.000 A 
BRANCH  25  26
ATOM     26  C   UNL     1      47.580   2.588   6.077  0.00  0.00    +0.000 C 
ATOM     27  N   UNL     1      48.901   2.478   6.415  0.00  0.00    +0.000 N 
ATOM     28  O   UNL     1      47.253   2.597   4.897  0.00  0.00    +0.000 OA
ATOM     29  H   UNL     1      49.250   2.666   7.344  0.00  0.00    +0.000 HD
ATOM     30  H   UNL     1      49.563   2.479   5.650  0.00  0.00    +0.000 HD
ENDBRANCH  25  26
ENDBRANCH  18  22
ENDBRANCH  17  18
ENDBRANCH   1  17
TORSDOF 6
ENDMDL
MODEL 4
REMARK VINA RESULT:    -6.907      4.942      9.209
REMARK INTER + INTRA:         -10.492
REMARK INTER:                  -9.372
REMARK INTRA:                  -1.121
REMARK UNBOUND:                -1.163
REMARK  Name = 
REMARK  9 active torsions:
REMARK  status: ('A' for Active; 'I' for Inactive)
REMARK    1  A    between atoms: C_1  and  C_2
REMARK    2  A    between atoms: C_4  and  O_5
REMARK    3  A    between atoms: O_5  and  C_6
REMARK    4  A    between atoms: C_6  and  C_7
REMARK    5  A    between atoms: C_7  and  C_8
REMARK    6  A    between atoms: C_7  and  C_9
REMARK    7  A    between atoms: C_7  and  C_10
REMARK    8  A    between atoms: C_15  and  C_16
REMARK    9  A    between atoms: C_25  and  C_26
REMARK                            x       y       z     vdW  Elec       q    Type
REMARK                         _______ _______ _______ _____ _____    ______ ____
ROOT
ATOM      1  C   UNL     1      47.884   4.475  17.256  0.00  0.00    +0.000 C 
ATOM      2  C   UNL     1      47.278   5.430  18.314  0.00  0.00    +0.000 C 
ATOM      3  C   UNL     1      47.172   3.111  17.345  0.00  0.00    +0.000 C 
ENDROOT
BRANCH   1   4
ATOM      4  C   UNL     1      47.686   5.085  15.849  0.00  0.00    +0.000 A 
ATOM      5  C   UNL     1      48.502   6.106  15.353  0.00  0.00    +0.000 A 
ATOM      6  C   UNL     1      48.277   6.657  14.093  0.00  0.00    +0.000 A 
ATOM      7  C   UNL     1      47.215   6.219  13.295  0.00  0.00    +0.000 A 
ATOM      8 CL   UNL     1      46.991   7.107  11.822  0.00  0.00    +0.000 Cl
ATOM      9  C   UNL     1      46.371   5.171  13.722  0.00  0.00    +0.000 A 
ATOM     10  C   UNL     1      46.645   4.628  15.005  0.00  0.00    +0.000 A 
BRANCH   9  11
ATOM     11  C   UNL     1      45.227   4.632  12.930  0.00  0.00    +0.000 A 
ATOM     12  C   UNL     1      45.309   3.442  12.193  0.00  0.00    +0.000 A 
ATOM     13  C   UNL     1      44.225   3.019  11.435  0.00  0.00    +0.000 A 
ATOM     14  N   UNL     1      43.041   3.657  11.398  0.00  0.00    +0.000 NA
ATOM     15  C   UNL     1      42.945   4.775  12.143  0.00  0.00    +0.000 A 
ATOM     16  C   UNL     1      43.988   5.295  12.897  0.00  0.00    +0.000 A 
ENDBRANCH   9  11
ENDBRANCH   1   4
BRANCH   1  17
ATOM     17  C   UNL     1      49.378   4.274  17.663  0.00  0.00    +0.000 C 
BRANCH  17  18
ATOM     18  O   UNL     1      49.976   3.205  16.919  0.00  0.00    +0.000 OA
BRANCH  18  22
ATOM     19  C   UNL     1      54.421   3.805  19.026  0.00  0.00    +0.000 C 
ATOM     20  C   UNL     1      53.379   2.908  18.415  0.00  0.00    +0.000 A 
ATOM     21  C   UNL     1      52.191   3.498  17.942  0.00  0.00    +0.000 A 
ATOM     22  C   UNL     1      51.173   2.729  17.378  0.00  0.00    +0.000 A 
ATOM     23  C   UNL     1      51.349   1.352  17.261  0.00  0.00    +0.000 A 
ATOM     24  C   UNL     1      52.523   0.745  17.717  0.00  0.00    +0.000 A 
ATOM     25  C   UNL     1      53.539   1.511  18.313  0.00  0.00    +0.000 A 
BRANCH  25  26
ATOM     26  C   UNL     1      54.776   0.831  18.806  0.00  0.00    +0.000 C 
ATOM     27  N   UNL     1      55.775   0.612  17.898  0.00  0.00    +0.000 N 
ATOM     28  O   UNL     1      54.910   0.452  19.963  0.00  0.00    +0.000 OA
ATOM     29  H   UNL     1      55.647   0.714  16.902  0.00  0.00    +0.000 HD
ATOM     30  H   UNL     1      56.567   0.071  18.222  0.00  0.00    +0.000 HD
ENDBRANCH  25  26
ENDBRANCH  18  22
ENDBRANCH  17  18
ENDBRANCH   1  17
TORSDOF 6
ENDMDL
MODEL 5
REMARK VINA RESULT:    -6.889      3.411      8.548
REMARK INTER + INTRA:         -10.468
REMARK INTER:                  -9.242
REMARK INTRA:                  -1.226
REMARK UNBOUND:                -1.163
REMARK  Name = 
REMARK  9 active torsions:
REMARK  status: ('A' for Active; 'I' for Inactive)
REMARK    1  A    between atoms: C_1  and  C_2
REMARK    2  A    between atoms: C_4  and  O_5
REMARK    3  A    between atoms: O_5  and  C_6
REMARK    4  A    between atoms: C_6  and  C_7
REMARK    5  A    between atoms: C_7  and  C_8
REMARK    6  A    between atoms: C_7  and  C_9
REMARK    7  A    between atoms: C_7  and  C_10
REMARK    8  A    between atoms: C_15  and  C_16
REMARK    9  A    between atoms: C_25  and  C_26
REMARK                            x       y       z     vdW  Elec       q    Type
REMARK                         _______ _______ _______ _____ _____    ______ ____
ROOT
ATOM      1  C   UNL     1      48.639   8.103  12.456  0.00  0.00    +0.000 C 
ATOM      2  C   UNL     1      49.592   7.450  11.423  0.00  0.00    +0.000 C 
ATOM      3  C   UNL     1      48.824   9.632  12.412  0.00  0.00    +0.000 C 
ENDROOT
BRANCH   1   4
ATOM      4  C   UNL     1      47.179   7.735  12.103  0.00  0.00    +0.000 A 
ATOM      5  C   UNL     1      46.088   8.487  12.546  0.00  0.00    +0.000 A 
ATOM      6  C   UNL     1      44.783   8.111  12.237  0.00  0.00    +0.000 A 
ATOM      7  C   UNL     1      44.524   6.955  11.493  0.00  0.00    +0.000 A 
ATOM      8 CL   UNL     1      42.845   6.554  11.322  0.00  0.00    +0.000 Cl
ATOM      9  C   UNL     1      45.580   6.166  10.989  0.00  0.00    +0.000 A 
ATOM     10  C   UNL     1      46.895   6.594  11.313  0.00  0.00    +0.000 A 
BRANCH   9  11
ATOM     11  C   UNL     1      45.396   4.929  10.174  0.00  0.00    +0.000 A 
ATOM     12  C   UNL     1      45.732   4.860   8.815  0.00  0.00    +0.000 A 
ATOM     13  C   UNL     1      45.489   3.695   8.098  0.00  0.00    +0.000 A 
ATOM     14  N   UNL     1      44.991   2.569   8.642  0.00  0.00    +0.000 NA
ATOM     15  C   UNL     1      44.713   2.619   9.958  0.00  0.00    +0.000 A 
ATOM     16  C   UNL     1      44.883   3.751  10.744  0.00  0.00    +0.000 A 
ENDBRANCH   9  11
ENDBRANCH   1   4
BRANCH   1  17
ATOM     17  C   UNL     1      49.108   7.593  13.855  0.00  0.00    +0.000 C 
BRANCH  17  18
ATOM     18  O   UNL     1      48.638   6.262  14.103  0.00  0.00    +0.000 OA
BRANCH  18  22
ATOM     19  C   UNL     1      47.256   3.071  17.635  0.00  0.00    +0.000 C 
ATOM     20  C   UNL     1      47.834   4.402  17.234  0.00  0.00    +0.000 A 
ATOM     21  C   UNL     1      47.934   4.694  15.859  0.00  0.00    +0.000 A 
ATOM     22  C   UNL     1      48.474   5.900  15.411  0.00  0.00    +0.000 A 
ATOM     23  C   UNL     1      48.901   6.841  16.346  0.00  0.00    +0.000 A 
ATOM     24  C   UNL     1      48.805   6.575  17.716  0.00  0.00    +0.000 A 
ATOM     25  C   UNL     1      48.290   5.351  18.172  0.00  0.00    +0.000 A 
BRANCH  25  26
ATOM     26  C   UNL     1      48.216   5.089  19.642  0.00  0.00    +0.000 C 
ATOM     27  N   UNL     1      47.110   5.545  20.305  0.00  0.00    +0.000 N 
ATOM     28  O   UNL     1      49.103   4.515  20.261  0.00  0.00    +0.000 OA
ATOM     29  H   UNL     1      46.451   6.192  19.898  0.00  0.00    +0.000 HD
ATOM     30  H   UNL     1      47.115   5.442  21.311  0.00  0.00    +0.000 HD
ENDBRANCH  25  26
ENDBRANCH  18  22
ENDBRANCH  17  18
ENDBRANCH   1  17
TORSDOF 6
ENDMDL
MODEL 6
REMARK VINA RESULT:    -6.857      4.013      6.361
REMARK INTER + INTRA:         -10.425
REMARK INTER:                  -8.639
REMARK INTRA:                  -1.786
REMARK UNBOUND:                -1.163
REMARK  Name = 
REMARK  9 active torsions:
REMARK  status: ('A' for Active; 'I' for Inactive)
REMARK    1  A    between atoms: C_1  and  C_2
REMARK    2  A    between atoms: C_4  and  O_5
REMARK    3  A    between atoms: O_5  and  C_6
REMARK    4  A    between atoms: C_6  and  C_7
REMARK    5  A    between atoms: C_7  and  C_8
REMARK    6  A    between atoms: C_7  and  C_9
REMARK    7  A    between atoms: C_7  and  C_10
REMARK    8  A    between atoms: C_15  and  C_16
REMARK    9  A    between atoms: C_25  and  C_26
REMARK                            x       y       z     vdW  Elec       q    Type
REMARK                         _______ _______ _______ _____ _____    ______ ____
ROOT
ATOM      1  C   UNL     1      48.978   9.113  15.534  0.00  0.00    +0.000 C 
ATOM      2  C   UNL     1      48.946  10.558  16.094  0.00  0.00    +0.000 C 
ATOM      3  C   UNL     1      50.349   8.859  14.880  0.00  0.00    +0.000 C 
ENDROOT
BRANCH   1   4
ATOM      4  C   UNL     1      48.748   8.115  16.692  0.00  0.00    +0.000 A 
ATOM      5  C   UNL     1      48.201   8.502  17.919  0.00  0.00    +0.000 A 
ATOM      6  C   UNL     1      48.037   7.584  18.954  0.00  0.00    +0.000 A 
ATOM      7  C   UNL     1      48.437   6.251  18.804  0.00  0.00    +0.000 A 
ATOM      8 CL   UNL     1      48.296   5.280  20.234  0.00  0.00    +0.000 Cl
ATOM      9  C   UNL     1      48.969   5.787  17.582  0.00  0.00    +0.000 A 
ATOM     10  C   UNL     1      49.104   6.752  16.549  0.00  0.00    +0.000 A 
BRANCH   9  11
ATOM     11  C   UNL     1      49.405   4.382  17.331  0.00  0.00    +0.000 A 
ATOM     12  C   UNL     1      50.699   3.927  17.619  0.00  0.00    +0.000 A 
ATOM     13  C   UNL     1      51.060   2.621  17.315  0.00  0.00    +0.000 A 
ATOM     14  N   UNL     1      50.214   1.710  16.799  0.00  0.00    +0.000 NA
ATOM     15  C   UNL     1      48.956   2.131  16.567  0.00  0.00    +0.000 A 
ATOM     16  C   UNL     1      48.519   3.429  16.800  0.00  0.00    +0.000 A 
ENDBRANCH   9  11
ENDBRANCH   1   4
BRANCH   1  17
ATOM     17  C   UNL     1      47.887   9.061  14.418  0.00  0.00    +0.000 C 
BRANCH  17  18
ATOM     18  O   UNL     1      48.222   8.093  13.415  0.00  0.00    +0.000 OA
BRANCH  18  22
ATOM     19  C   UNL     1      43.978   6.429  11.470  0.00  0.00    +0.000 C 
ATOM     20  C   UNL     1      45.238   6.180  12.255  0.00  0.00    +0.000 A 
ATOM     21  C   UNL     1      46.108   7.266  12.473  0.00  0.00    +0.000 A 
ATOM     22  C   UNL     1      47.302   7.109  13.177  0.00  0.00    +0.000 A 
ATOM     23  C   UNL     1      47.626   5.856  13.692  0.00  0.00    +0.000 A 
ATOM     24  C   UNL     1      46.775   4.765  13.493  0.00  0.00    +0.000 A 
ATOM     25  C   UNL     1      45.585   4.910  12.760  0.00  0.00    +0.000 A 
BRANCH  25  26
ATOM     26  C   UNL     1      44.703   3.722  12.550  0.00  0.00    +0.000 C 
ATOM     27  N   UNL     1      44.991   2.908  11.489  0.00  0.00    +0.000 N 
ATOM     28  O   UNL     1      43.740   3.473  13.264  0.00  0.00    +0.000 OA
ATOM     29  H   UNL     1      45.635   3.166  10.755  0.00  0.00    +0.000 HD
ATOM     30  H   UNL     1      44.335   2.161  11.304  0.00  0.00    +0.000 HD
ENDBRANCH  25  26
ENDBRANCH  18  22
ENDBRANCH  17  18
ENDBRANCH   1  17
TORSDOF 6
ENDMDL
MODEL 7
REMARK VINA RESULT:    -6.848      3.235      5.199
REMARK INTER + INTRA:         -10.413
REMARK INTER:                  -8.749
REMARK INTRA:                  -1.664
REMARK UNBOUND:                -1.163
REMARK  Name = 
REMARK  9 active torsions:
REMARK  status: ('A' for Active; 'I' for Inactive)
REMARK    1  A    between atoms: C_1  and  C_2
REMARK    2  A    between atoms: C_4  and  O_5
REMARK    3  A    between atoms: O_5  and  C_6
REMARK    4  A    between atoms: C_6  and  C_7
REMARK    5  A    between atoms: C_7  and  C_8
REMARK    6  A    between atoms: C_7  and  C_9
REMARK    7  A    between atoms: C_7  and  C_10
REMARK    8  A    between atoms: C_15  and  C_16
REMARK    9  A    between atoms: C_25  and  C_26
REMARK                            x       y       z     vdW  Elec       q    Type
REMARK                         _______ _______ _______ _____ _____    ______ ____
ROOT
ATOM      1  C   UNL     1      48.550   8.661  12.732  0.00  0.00    +0.000 C 
ATOM      2  C   UNL     1      49.293   9.976  12.384  0.00  0.00    +0.000 C 
ATOM      3  C   UNL     1      49.248   7.486  12.019  0.00  0.00    +0.000 C 
ENDROOT
BRANCH   1   4
ATOM      4  C   UNL     1      48.585   8.449  14.263  0.00  0.00    +0.000 A 
ATOM      5  C   UNL     1      48.515   9.511  15.169  0.00  0.00    +0.000 A 
ATOM      6  C   UNL     1      48.582   9.289  16.543  0.00  0.00    +0.000 A 
ATOM      7  C   UNL     1      48.743   7.997  17.056  0.00  0.00    +0.000 A 
ATOM      8 CL   UNL     1      48.952   7.914  18.776  0.00  0.00    +0.000 Cl
ATOM      9  C   UNL     1      48.791   6.877  16.199  0.00  0.00    +0.000 A 
ATOM     10  C   UNL     1      48.704   7.147  14.807  0.00  0.00    +0.000 A 
BRANCH   9  11
ATOM     11  C   UNL     1      48.944   5.466  16.661  0.00  0.00    +0.000 A 
ATOM     12  C   UNL     1      47.933   4.507  16.515  0.00  0.00    +0.000 A 
ATOM     13  C   UNL     1      48.117   3.223  17.011  0.00  0.00    +0.000 A 
ATOM     14  N   UNL     1      49.256   2.799  17.591  0.00  0.00    +0.000 NA
ATOM     15  C   UNL     1      50.246   3.706  17.689  0.00  0.00    +0.000 A 
ATOM     16  C   UNL     1      50.136   5.022  17.259  0.00  0.00    +0.000 A 
ENDBRANCH   9  11
ENDBRANCH   1   4
BRANCH   1  17
ATOM     17  C   UNL     1      47.114   8.809  12.138  0.00  0.00    +0.000 C 
BRANCH  17  18
ATOM     18  O   UNL     1      46.146   8.137  12.955  0.00  0.00    +0.000 OA
BRANCH  18  22
ATOM     19  C   UNL     1      46.212   3.189  13.228  0.00  0.00    +0.000 C 
ATOM     20  C   UNL     1      45.695   4.452  12.594  0.00  0.00    +0.000 A 
ATOM     21  C   UNL     1      46.191   5.683  13.069  0.00  0.00    +0.000 A 
ATOM     22  C   UNL     1      45.748   6.896  12.542  0.00  0.00    +0.000 A 
ATOM     23  C   UNL     1      44.812   6.885  11.510  0.00  0.00    +0.000 A 
ATOM     24  C   UNL     1      44.311   5.676  11.018  0.00  0.00    +0.000 A 
ATOM     25  C   UNL     1      44.732   4.452  11.565  0.00  0.00    +0.000 A 
BRANCH  25  26
ATOM     26  C   UNL     1      44.166   3.177  11.030  0.00  0.00    +0.000 C 
ATOM     27  N   UNL     1      44.901   2.511  10.088  0.00  0.00    +0.000 N 
ATOM     28  O   UNL     1      43.080   2.732  11.381  0.00  0.00    +0.000 OA
ATOM     29  H   UNL     1      45.692   2.922   9.615  0.00  0.00    +0.000 HD
ATOM     30  H   UNL     1      44.465   1.699   9.669  0.00  0.00    +0.000 HD
ENDBRANCH  25  26
ENDBRANCH  18  22
ENDBRANCH  17  18
ENDBRANCH   1  17
TORSDOF 6
ENDMDL
MODEL 8
REMARK VINA RESULT:    -6.652      3.768      6.660
REMARK INTER + INTRA:         -10.149
REMARK INTER:                  -9.017
REMARK INTRA:                  -1.132
REMARK UNBOUND:                -1.163
REMARK  Name = 
REMARK  9 active torsions:
REMARK  status: ('A' for Active; 'I' for Inactive)
REMARK    1  A    between atoms: C_1  and  C_2
REMARK    2  A    between atoms: C_4  and  O_5
REMARK    3  A    between atoms: O_5  and  C_6
REMARK    4  A    between atoms: C_6  and  C_7
REMARK    5  A    between atoms: C_7  and  C_8
REMARK    6  A    between atoms: C_7  and  C_9
REMARK    7  A    between atoms: C_7  and  C_10
REMARK    8  A    between atoms: C_15  and  C_16
REMARK    9  A    between atoms: C_25  and  C_26
REMARK                            x       y       z     vdW  Elec       q    Type
REMARK                         _______ _______ _______ _____ _____    ______ ____
ROOT
ATOM      1  C   UNL     1      48.147   4.244  17.229  0.00  0.00    +0.000 C 
ATOM      2  C   UNL     1      47.075   3.136  17.374  0.00  0.00    +0.000 C 
ATOM      3  C   UNL     1      47.942   5.290  18.342  0.00  0.00    +0.000 C 
ENDROOT
BRANCH   1   4
ATOM      4  C   UNL     1      49.552   3.610  17.349  0.00  0.00    +0.000 A 
ATOM      5  C   UNL     1      49.777   2.244  17.160  0.00  0.00    +0.000 A 
ATOM      6  C   UNL     1      51.050   1.697  17.307  0.00  0.00    +0.000 A 
ATOM      7  C   UNL     1      52.139   2.498  17.671  0.00  0.00    +0.000 A 
ATOM      8 CL   UNL     1      53.618   1.637  17.951  0.00  0.00    +0.000 Cl
ATOM      9  C   UNL     1      51.988   3.890  17.848  0.00  0.00    +0.000 A 
ATOM     10  C   UNL     1      50.677   4.407  17.673  0.00  0.00    +0.000 A 
BRANCH   9  11
ATOM     11  C   UNL     1      53.096   4.819  18.219  0.00  0.00    +0.000 A 
ATOM     12  C   UNL     1      53.743   5.639  17.284  0.00  0.00    +0.000 A 
ATOM     13  C   UNL     1      54.801   6.444  17.682  0.00  0.00    +0.000 A 
ATOM     14  N   UNL     1      55.231   6.544  18.954  0.00  0.00    +0.000 NA
ATOM     15  C   UNL     1      54.579   5.794  19.862  0.00  0.00    +0.000 A 
ATOM     16  C   UNL     1      53.539   4.929  19.548  0.00  0.00    +0.000 A 
ENDBRANCH   9  11
ENDBRANCH   1   4
BRANCH   1  17
ATOM     17  C   UNL     1      47.871   4.933  15.855  0.00  0.00    +0.000 C 
BRANCH  17  18
ATOM     18  O   UNL     1      47.671   3.960  14.821  0.00  0.00    +0.000 OA
BRANCH  18  22
ATOM     19  C   UNL     1      45.446   7.266  11.875  0.00  0.00    +0.000 C 
ATOM     20  C   UNL     1      45.663   5.839  12.302  0.00  0.00    +0.000 A 
ATOM     21  C   UNL     1      46.547   5.595  13.372  0.00  0.00    +0.000 A 
ATOM     22  C   UNL     1      46.811   4.299  13.814  0.00  0.00    +0.000 A 
ATOM     23  C   UNL     1      46.168   3.228  13.196  0.00  0.00    +0.000 A 
ATOM     24  C   UNL     1      45.282   3.446  12.137  0.00  0.00    +0.000 A 
ATOM     25  C   UNL     1      45.035   4.748  11.669  0.00  0.00    +0.000 A 
BRANCH  25  26
ATOM     26  C   UNL     1      44.096   4.949  10.523  0.00  0.00    +0.000 C 
ATOM     27  N   UNL     1      44.602   4.789   9.263  0.00  0.00    +0.000 N 
ATOM     28  O   UNL     1      42.923   5.269  10.673  0.00  0.00    +0.000 OA
ATOM     29  H   UNL     1      45.590   4.727   9.069  0.00  0.00    +0.000 HD
ATOM     30  H   UNL     1      43.981   5.016   8.497  0.00  0.00    +0.000 HD
ENDBRANCH  25  26
ENDBRANCH  18  22
ENDBRANCH  17  18
ENDBRANCH   1  17
TORSDOF 6
ENDMDL
MODEL 9
REMARK VINA RESULT:    -6.558      3.525      6.100
REMARK INTER + INTRA:         -10.022
REMARK INTER:                  -8.440
REMARK INTRA:                  -1.582
REMARK UNBOUND:                -1.163
REMARK  Name = 
REMARK  9 active torsions:
REMARK  status: ('A' for Active; 'I' for Inactive)
REMARK    1  A    between atoms: C_1  and  C_2
REMARK    2  A    between atoms: C_4  and  O_5
REMARK    3  A    between atoms: O_5  and  C_6
REMARK    4  A    between atoms: C_6  and  C_7
REMARK    5  A    between atoms: C_7  and  C_8
REMARK    6  A    between atoms: C_7  and  C_9
REMARK    7  A    between atoms: C_7  and  C_10
REMARK    8  A    between atoms: C_15  and  C_16
REMARK    9  A    between atoms: C_25  and  C_26
REMARK                            x       y       z     vdW  Elec       q    Type
REMARK                         _______ _______ _______ _____ _____    ______ ____
ROOT
ATOM      1  C   UNL     1      48.368   4.563  17.245  0.00  0.00    +0.000 C 
ATOM      2  C   UNL     1      49.045   3.186  17.460  0.00  0.00    +0.000 C 
ATOM      3  C   UNL     1      47.850   5.085  18.600  0.00  0.00    +0.000 C 
ENDROOT
BRANCH   1   4
ATOM      4  C   UNL     1      49.401   5.550  16.656  0.00  0.00    +0.000 A 
ATOM      5  C   UNL     1      50.721   5.615  17.111  0.00  0.00    +0.000 A 
ATOM      6  C   UNL     1      51.620   6.538  16.581  0.00  0.00    +0.000 A 
ATOM      7  C   UNL     1      51.221   7.445  15.593  0.00  0.00    +0.000 A 
ATOM      8 CL   UNL     1      52.419   8.617  15.148  0.00  0.00    +0.000 Cl
ATOM      9  C   UNL     1      49.911   7.415  15.067  0.00  0.00    +0.000 A 
ATOM     10  C   UNL     1      49.033   6.448  15.624  0.00  0.00    +0.000 A 
BRANCH   9  11
ATOM     11  C   UNL     1      49.407   8.332  14.003  0.00  0.00    +0.000 A 
ATOM     12  C   UNL     1      48.971   9.637  14.272  0.00  0.00    +0.000 A 
ATOM     13  C   UNL     1      48.465  10.424  13.246  0.00  0.00    +0.000 A 
ATOM     14  N   UNL     1      48.413  10.036  11.958  0.00  0.00    +0.000 NA
ATOM     15  C   UNL     1      48.876   8.801  11.691  0.00  0.00    +0.000 A 
ATOM     16  C   UNL     1      49.361   7.929  12.658  0.00  0.00    +0.000 A 
ENDBRANCH   9  11
ENDBRANCH   1   4
BRANCH   1  17
ATOM     17  C   UNL     1      47.137   4.296  16.322  0.00  0.00    +0.000 C 
BRANCH  17  18
ATOM     18  O   UNL     1      47.552   3.825  15.033  0.00  0.00    +0.000 OA
BRANCH  18  22
ATOM     19  C   UNL     1      45.563   7.226  12.026  0.00  0.00    +0.000 C 
ATOM     20  C   UNL     1      45.758   5.786  12.416  0.00  0.00    +0.000 A 
ATOM     21  C   UNL     1      46.544   5.507  13.552  0.00  0.00    +0.000 A 
ATOM     22  C   UNL     1      46.783   4.196  13.965  0.00  0.00    +0.000 A 
ATOM     23  C   UNL     1      46.213   3.145  13.250  0.00  0.00    +0.000 A 
ATOM     24  C   UNL     1      45.424   3.398  12.123  0.00  0.00    +0.000 A 
ATOM     25  C   UNL     1      45.204   4.714  11.685  0.00  0.00    +0.000 A 
BRANCH  25  26
ATOM     26  C   UNL     1      44.371   4.952  10.467  0.00  0.00    +0.000 C 
ATOM     27  N   UNL     1      45.014   4.959   9.260  0.00  0.00    +0.000 N 
ATOM     28  O   UNL     1      43.165   5.161  10.517  0.00  0.00    +0.000 OA
ATOM     29  H   UNL     1      46.018   4.997   9.170  0.00  0.00    +0.000 HD
ATOM     30  H   UNL     1      44.455   5.211   8.455  0.00  0.00    +0.000 HD
ENDBRANCH  25  26
ENDBRANCH  18  22
ENDBRANCH  17  18
ENDBRANCH   1  17
TORSDOF 6
ENDMDL
