MODEL 1
REMARK VINA RESULT:    -8.308      0.000      0.000
REMARK INTER + INTRA:         -12.620
REMARK INTER:                 -12.193
REMARK INTRA:                  -0.427
REMARK UNBOUND:                -0.427
REMARK  Name = 
REMARK  9 active torsions:
REMARK  status: ('A' for Active; 'I' for Inactive)
REMARK    1  A    between atoms: C_1  and  C_2
REMARK    2  A    between atoms: C_2  and  N_3
REMARK    3  A    between atoms: C_2  and  C_20
REMARK    4  A    between atoms: N_3  and  C_4
REMARK    5  A    between atoms: C_4  and  C_5
REMARK    6  A    between atoms: C_8  and  C_9
REMARK    7  A    between atoms: C_9  and  O_10
REMARK    8  A    between atoms: O_10  and  C_11
REMARK    9  A    between atoms: C_11  and  C_12
REMARK                            x       y       z     vdW  Elec       q    Type
REMARK                         _______ _______ _______ _____ _____    ______ ____
ROOT
ATOM      1  C   UNL     1      46.789   4.424  14.802  0.00  0.00    +0.000 C 
ENDROOT
BRANCH   1   2
ATOM      2  C   UNL     1      46.967   4.554  13.275  0.00  0.00    +0.000 C 
ATOM      3  C   UNL     1      46.295   3.405  12.503  0.00  0.00    +0.000 C 
ATOM      4  C   UNL     1      44.770   3.460  12.590  0.00  0.00    +0.000 C 
ATOM      5  C   UNL     1      44.208   4.823  12.149  0.00  0.00    +0.000 C 
ATOM      6  C   UNL     1      44.884   5.983  12.883  0.00  0.00    +0.000 C 
ATOM      7  C   UNL     1      46.409   5.913  12.806  0.00  0.00    +0.000 C 
BRANCH   5   8
ATOM      8  C   UNL     1      44.295   5.003  10.622  0.00  0.00    +0.000 C 
BRANCH   8   9
ATOM      9  O   UNL     1      44.505   3.767   9.942  0.00  0.00    +0.000 OA
BRANCH   9  10
ATOM     10  C   UNL     1      44.575   3.919   8.529  0.00  0.00    +0.000 C 
BRANCH  10  11
ATOM     11  C   UNL     1      45.645   3.012   7.999  0.00  0.00    +0.000 A 
ATOM     12  C   UNL     1      46.654   3.512   7.170  0.00  0.00    +0.000 A 
ATOM     13  C   UNL     1      47.651   2.652   6.750  0.00  0.00    +0.000 A 
ATOM     14  N   UNL     1      47.709   1.347   7.097  0.00  0.00    +0.000 NA
ATOM     15  C   UNL     1      46.717   0.886   7.888  0.00  0.00    +0.000 A 
ATOM     16  C   UNL     1      45.678   1.666   8.361  0.00  0.00    +0.000 A 
ENDBRANCH  10  11
ENDBRANCH   9  10
ENDBRANCH   8   9
ENDBRANCH   5   8
ENDBRANCH   1   2
BRANCH   1  17
ATOM     17  N   UNL     1      48.055   4.260  15.519  0.00  0.00    +0.000 NA
ATOM     18  H   UNL     1      48.689   5.012  15.241  0.00  0.00    +0.000 HD
BRANCH  17  20
ATOM     19  C   UNL     1      47.011   3.191  17.542  0.00  0.00    +0.000 C 
ATOM     20  C   UNL     1      47.861   4.336  16.977  0.00  0.00    +0.000 C 
BRANCH  20  21
ATOM     21  C   UNL     1      49.229   4.351  17.629  0.00  0.00    +0.000 A 
ATOM     22  C   UNL     1      49.745   5.402  18.372  0.00  0.00    +0.000 A 
ATOM     23  S   UNL     1      51.308   5.087  18.987  0.00  0.00    +0.000 S 
ATOM     24  C   UNL     1      51.360   3.556  18.240  0.00  0.00    +0.000 A 
ATOM     25  N   UNL     1      52.447   2.748  18.356  0.00  0.00    +0.000 NA
ATOM     26  C   UNL     1      52.353   1.637  17.705  0.00  0.00    +0.000 A 
ATOM     27  N   UNL     1      51.272   1.263  16.943  0.00  0.00    +0.000 N 
ATOM     28  C   UNL     1      50.155   2.047  16.790  0.00  0.00    +0.000 A 
ATOM     29  O   UNL     1      49.224   1.692  16.075  0.00  0.00    +0.000 OA
ATOM     30  C   UNL     1      50.205   3.298  17.524  0.00  0.00    +0.000 A 
ATOM     31  H   UNL     1      51.274   0.389  16.437  0.00  0.00    +0.000 HD
ENDBRANCH  20  21
ENDBRANCH  17  20
ENDBRANCH   1  17
TORSDOF 8
ENDMDL
MODEL 2
REMARK VINA RESULT:    -8.209      2.134      2.940
REMARK INTER + INTRA:         -12.475
REMARK INTER:                 -11.115
REMARK INTRA:                  -1.360
REMARK UNBOUND:                -0.427
REMARK  Name = 
REMARK  9 active torsions:
REMARK  status: ('A' for Active; 'I' for Inactive)
REMARK    1  A    between atoms: C_1  and  C_2
REMARK    2  A    between atoms: C_2  and  N_3
REMARK    3  A    between atoms: C_2  and  C_20
REMARK    4  A    between atoms: N_3  and  C_4
REMARK    5  A    between atoms: C_4  and  C_5
REMARK    6  A    between atoms: C_8  and  C_9
REMARK    7  A    between atoms: C_9  and  O_10
REMARK    8  A    between atoms: O_10  and  C_11
REMARK    9  A    between atoms: C_11  and  C_12
REMARK                            x       y       z     vdW  Elec       q    Type
REMARK                         _______ _______ _______ _____ _____    ______ ____
ROOT
ATOM      1  C   UNL     1      46.090   7.217  12.959  0.00  0.00    +0.000 C 
ENDROOT
BRANCH   1   2
ATOM      2  C   UNL     1      46.030   5.701  12.676  0.00  0.00    +0.000 C 
ATOM      3  C   UNL     1      44.849   5.014  13.383  0.00  0.00    +0.000 C 
ATOM      4  C   UNL     1      43.499   5.438  12.804  0.00  0.00    +0.000 C 
ATOM      5  C   UNL     1      43.426   5.231  11.281  0.00  0.00    +0.000 C 
ATOM      6  C   UNL     1      44.609   5.880  10.559  0.00  0.00    +0.000 C 
ATOM      7  C   UNL     1      45.954   5.465  11.154  0.00  0.00    +0.000 C 
BRANCH   5   8
ATOM      8  C   UNL     1      43.302   3.739  10.919  0.00  0.00    +0.000 C 
BRANCH   8   9
ATOM      9  O   UNL     1      43.808   3.455   9.616  0.00  0.00    +0.000 OA
BRANCH   9  10
ATOM     10  C   UNL     1      44.550   2.242   9.563  0.00  0.00    +0.000 C 
BRANCH  10  11
ATOM     11  C   UNL     1      45.629   2.380   8.531  0.00  0.00    +0.000 A 
ATOM     12  C   UNL     1      46.377   1.269   8.131  0.00  0.00    +0.000 A 
ATOM     13  C   UNL     1      47.323   1.432   7.137  0.00  0.00    +0.000 A 
ATOM     14  N   UNL     1      47.570   2.611   6.525  0.00  0.00    +0.000 NA
ATOM     15  C   UNL     1      46.842   3.672   6.936  0.00  0.00    +0.000 A 
ATOM     16  C   UNL     1      45.872   3.610   7.921  0.00  0.00    +0.000 A 
ENDBRANCH  10  11
ENDBRANCH   9  10
ENDBRANCH   8   9
ENDBRANCH   5   8
ENDBRANCH   1   2
BRANCH   1  17
ATOM     17  N   UNL     1      47.002   7.564  14.052  0.00  0.00    +0.000 NA
ATOM     18  H   UNL     1      46.481   7.547  14.930  0.00  0.00    +0.000 HD
BRANCH  17  20
ATOM     19  C   UNL     1      49.362   7.018  13.375  0.00  0.00    +0.000 C 
ATOM     20  C   UNL     1      48.109   6.598  14.154  0.00  0.00    +0.000 C 
BRANCH  20  21
ATOM     21  C   UNL     1      48.436   6.418  15.622  0.00  0.00    +0.000 A 
ATOM     22  C   UNL     1      49.020   7.380  16.433  0.00  0.00    +0.000 A 
ATOM     23  S   UNL     1      49.233   6.862  18.047  0.00  0.00    +0.000 S 
ATOM     24  C   UNL     1      48.593   5.321  17.701  0.00  0.00    +0.000 A 
ATOM     25  N   UNL     1      48.497   4.362  18.661  0.00  0.00    +0.000 NA
ATOM     26  C   UNL     1      48.026   3.236  18.238  0.00  0.00    +0.000 A 
ATOM     27  N   UNL     1      47.648   2.980  16.942  0.00  0.00    +0.000 N 
ATOM     28  C   UNL     1      47.732   3.912  15.937  0.00  0.00    +0.000 A 
ATOM     29  O   UNL     1      47.415   3.635  14.786  0.00  0.00    +0.000 OA
ATOM     30  C   UNL     1      48.234   5.204  16.370  0.00  0.00    +0.000 A 
ATOM     31  H   UNL     1      47.312   2.067  16.673  0.00  0.00    +0.000 HD
ENDBRANCH  20  21
ENDBRANCH  17  20
ENDBRANCH   1  17
TORSDOF 8
ENDMDL
MODEL 3
REMARK VINA RESULT:    -7.405      2.302      2.928
REMARK INTER + INTRA:         -11.295
REMARK INTER:                 -10.305
REMARK INTRA:                  -0.990
REMARK UNBOUND:                -0.427
REMARK  Name = 
REMARK  9 active torsions:
REMARK  status: ('A' for Active; 'I' for Inactive)
REMARK    1  A    between atoms: C_1  and  C_2
REMARK    2  A    between atoms: C_2  and  N_3
REMARK    3  A    between atoms: C_2  and  C_20
REMARK    4  A    between atoms: N_3  and  C_4
REMARK    5  A    between atoms: C_4  and  C_5
REMARK    6  A    between atoms: C_8  and  C_9
REMARK    7  A    between atoms: C_9  and  O_10
REMARK    8  A    between atoms: O_10  and  C_11
REMARK    9  A    between atoms: C_11  and  C_12
REMARK                            x       y       z     vdW  Elec       q    Type
REMARK                         _______ _______ _______ _____ _____    ______ ____
ROOT
ATOM      1  C   UNL     1      47.533   6.523  14.443  0.00  0.00    +0.000 C 
ENDROOT
BRANCH   1   2
ATOM      2  C   UNL     1      47.813   5.878  13.069  0.00  0.00    +0.000 C 
ATOM      3  C   UNL     1      47.021   4.576  12.856  0.00  0.00    +0.000 C 
ATOM      4  C   UNL     1      45.519   4.824  12.722  0.00  0.00    +0.000 C 
ATOM      5  C   UNL     1      45.193   5.854  11.626  0.00  0.00    +0.000 C 
ATOM      6  C   UNL     1      45.993   7.147  11.801  0.00  0.00    +0.000 C 
ATOM      7  C   UNL     1      47.492   6.890  11.951  0.00  0.00    +0.000 C 
BRANCH   5   8
ATOM      8  C   UNL     1      45.390   5.263  10.218  0.00  0.00    +0.000 C 
BRANCH   8   9
ATOM      9  O   UNL     1      45.088   3.870  10.169  0.00  0.00    +0.000 OA
BRANCH   9  10
ATOM     10  C   UNL     1      44.600   3.455   8.898  0.00  0.00    +0.000 C 
BRANCH  10  11
ATOM     11  C   UNL     1      45.698   2.742   8.168  0.00  0.00    +0.000 A 
ATOM     12  C   UNL     1      46.594   3.451   7.362  0.00  0.00    +0.000 A 
ATOM     13  C   UNL     1      47.624   2.761   6.753  0.00  0.00    +0.000 A 
ATOM     14  N   UNL     1      47.819   1.431   6.892  0.00  0.00    +0.000 NA
ATOM     15  C   UNL     1      46.935   0.766   7.666  0.00  0.00    +0.000 A 
ATOM     16  C   UNL     1      45.873   1.367   8.318  0.00  0.00    +0.000 A 
ENDBRANCH  10  11
ENDBRANCH   9  10
ENDBRANCH   8   9
ENDBRANCH   5   8
ENDBRANCH   1   2
BRANCH   1  17
ATOM     17  N   UNL     1      48.293   5.909  15.534  0.00  0.00    +0.000 NA
ATOM     18  H   UNL     1      48.868   5.157  15.150  0.00  0.00    +0.000 HD
BRANCH  17  20
ATOM     19  C   UNL     1      49.239   8.238  15.463  0.00  0.00    +0.000 C 
ATOM     20  C   UNL     1      49.185   6.885  16.183  0.00  0.00    +0.000 C 
BRANCH  20  21
ATOM     21  C   UNL     1      48.717   7.065  17.612  0.00  0.00    +0.000 A 
ATOM     22  C   UNL     1      48.202   8.240  18.140  0.00  0.00    +0.000 A 
ATOM     23  S   UNL     1      47.748   8.099  19.781  0.00  0.00    +0.000 S 
ATOM     24  C   UNL     1      48.270   6.479  19.849  0.00  0.00    +0.000 A 
ATOM     25  N   UNL     1      48.176   5.751  20.995  0.00  0.00    +0.000 NA
ATOM     26  C   UNL     1      48.646   4.552  20.901  0.00  0.00    +0.000 A 
ATOM     27  N   UNL     1      49.205   4.016  19.766  0.00  0.00    +0.000 N 
ATOM     28  C   UNL     1      49.329   4.711  18.588  0.00  0.00    +0.000 A 
ATOM     29  O   UNL     1      49.864   4.208  17.607  0.00  0.00    +0.000 OA
ATOM     30  C   UNL     1      48.792   6.058  18.639  0.00  0.00    +0.000 A 
ATOM     31  H   UNL     1      49.578   3.077  19.768  0.00  0.00    +0.000 HD
ENDBRANCH  20  21
ENDBRANCH  17  20
ENDBRANCH   1  17
TORSDOF 8
ENDMDL
MODEL 4
REMARK VINA RESULT:    -7.125      1.978      2.505
REMARK INTER + INTRA:         -10.883
REMARK INTER:                  -9.719
REMARK INTRA:                  -1.165
REMARK UNBOUND:                -0.427
REMARK  Name = 
REMARK  9 active torsions:
REMARK  status: ('A' for Active; 'I' for Inactive)
REMARK    1  A    between atoms: C_1  and  C_2
REMARK    2  A    between atoms: C_2  and  N_3
REMARK    3  A    between atoms: C_2  and  C_20
REMARK    4  A    between atoms: N_3  and  C_4
REMARK    5  A    between atoms: C_4  and  C_5
REMARK    6  A    between atoms: C_8  and  C_9
REMARK    7  A    between atoms: C_9  and  O_10
REMARK    8  A    between atoms: O_10  and  C_11
REMARK    9  A    between atoms: C_11  and  C_12
REMARK                            x       y       z     vdW  Elec       q    Type
REMARK                         _______ _______ _______ _____ _____    ______ ____
ROOT
ATOM      1  C   UNL     1      48.587   7.284  14.704  0.00  0.00    +0.000 C 
ENDROOT
BRANCH   1   2
ATOM      2  C   UNL     1      48.553   6.601  13.321  0.00  0.00    +0.000 C 
ATOM      3  C   UNL     1      47.618   5.378  13.289  0.00  0.00    +0.000 C 
ATOM      4  C   UNL     1      46.146   5.768  13.420  0.00  0.00    +0.000 C 
ATOM      5  C   UNL     1      45.724   6.813  12.372  0.00  0.00    +0.000 C 
ATOM      6  C   UNL     1      46.658   8.025  12.365  0.00  0.00    +0.000 C 
ATOM      7  C   UNL     1      48.129   7.627  12.251  0.00  0.00    +0.000 C 
BRANCH   5   8
ATOM      8  C   UNL     1      45.608   6.190  10.968  0.00  0.00    +0.000 C 
BRANCH   8   9
ATOM      9  O   UNL     1      45.236   4.814  11.016  0.00  0.00    +0.000 OA
BRANCH   9  10
ATOM     10  C   UNL     1      44.395   4.431   9.933  0.00  0.00    +0.000 C 
BRANCH  10  11
ATOM     11  C   UNL     1      45.182   3.570   8.992  0.00  0.00    +0.000 A 
ATOM     12  C   UNL     1      45.915   4.142   7.948  0.00  0.00    +0.000 A 
ATOM     13  C   UNL     1      46.671   3.315   7.139  0.00  0.00    +0.000 A 
ATOM     14  N   UNL     1      46.744   1.975   7.299  0.00  0.00    +0.000 NA
ATOM     15  C   UNL     1      46.019   1.445   8.308  0.00  0.00    +0.000 A 
ATOM     16  C   UNL     1      45.234   2.188   9.171  0.00  0.00    +0.000 A 
ENDBRANCH  10  11
ENDBRANCH   9  10
ENDBRANCH   8   9
ENDBRANCH   5   8
ENDBRANCH   1   2
BRANCH   1  17
ATOM     17  N   UNL     1      49.764   6.923  15.497  0.00  0.00    +0.000 NA
ATOM     18  H   UNL     1      50.422   7.704  15.481  0.00  0.00    +0.000 HD
BRANCH  17  20
ATOM     19  C   UNL     1      48.234   7.505  17.407  0.00  0.00    +0.000 C 
ATOM     20  C   UNL     1      49.403   6.653  16.900  0.00  0.00    +0.000 C 
BRANCH  20  21
ATOM     21  C   UNL     1      49.075   5.179  17.021  0.00  0.00    +0.000 A 
ATOM     22  C   UNL     1      47.794   4.646  17.025  0.00  0.00    +0.000 A 
ATOM     23  S   UNL     1      47.774   2.943  17.155  0.00  0.00    +0.000 S 
ATOM     24  C   UNL     1      49.473   2.869  17.255  0.00  0.00    +0.000 A 
ATOM     25  N   UNL     1      50.124   1.683  17.394  0.00  0.00    +0.000 NA
ATOM     26  C   UNL     1      51.407   1.792  17.494  0.00  0.00    +0.000 A 
ATOM     27  N   UNL     1      52.097   2.980  17.472  0.00  0.00    +0.000 N 
ATOM     28  C   UNL     1      51.486   4.202  17.341  0.00  0.00    +0.000 A 
ATOM     29  O   UNL     1      52.135   5.243  17.360  0.00  0.00    +0.000 OA
ATOM     30  C   UNL     1      50.043   4.128  17.202  0.00  0.00    +0.000 A 
ATOM     31  H   UNL     1      53.101   2.996  17.581  0.00  0.00    +0.000 HD
ENDBRANCH  20  21
ENDBRANCH  17  20
ENDBRANCH   1  17
TORSDOF 8
ENDMDL
MODEL 5
REMARK VINA RESULT:    -7.116      3.166      4.133
REMARK INTER + INTRA:         -10.870
REMARK INTER:                  -9.919
REMARK INTRA:                  -0.951
REMARK UNBOUND:                -0.427
REMARK  Name = 
REMARK  9 active torsions:
REMARK  status: ('A' for Active; 'I' for Inactive)
REMARK    1  A    between atoms: C_1  and  C_2
REMARK    2  A    between atoms: C_2  and  N_3
REMARK    3  A    between atoms: C_2  and  C_20
REMARK    4  A    between atoms: N_3  and  C_4
REMARK    5  A    between atoms: C_4  and  C_5
REMARK    6  A    between atoms: C_8  and  C_9
REMARK    7  A    between atoms: C_9  and  O_10
REMARK    8  A    between atoms: O_10  and  C_11
REMARK    9  A    between atoms: C_11  and  C_12
REMARK                            x       y       z     vdW  Elec       q    Type
REMARK                         _______ _______ _______ _____ _____    ______ ____
ROOT
ATOM      1  C   UNL     1      47.134   7.476  13.845  0.00  0.00    +0.000 C 
ENDROOT
BRANCH   1   2
ATOM      2  C   UNL     1      47.487   6.278  12.940  0.00  0.00    +0.000 C 
ATOM      3  C   UNL     1      46.732   4.996  13.335  0.00  0.00    +0.000 C 
ATOM      4  C   UNL     1      45.232   5.096  13.056  0.00  0.00    +0.000 C 
ATOM      5  C   UNL     1      44.934   5.484  11.597  0.00  0.00    +0.000 C 
ATOM      6  C   UNL     1      45.700   6.739  11.173  0.00  0.00    +0.000 C 
ATOM      7  C   UNL     1      47.195   6.640  11.470  0.00  0.00    +0.000 C 
BRANCH   5   8
ATOM      8  C   UNL     1      45.206   4.314  10.634  0.00  0.00    +0.000 C 
BRANCH   8   9
ATOM      9  O   UNL     1      45.024   4.683   9.268  0.00  0.00    +0.000 OA
BRANCH   9  10
ATOM     10  C   UNL     1      44.603   3.596   8.453  0.00  0.00    +0.000 C 
BRANCH  10  11
ATOM     11  C   UNL     1      45.816   2.879   7.941  0.00  0.00    +0.000 A 
ATOM     12  C   UNL     1      45.972   1.505   8.149  0.00  0.00    +0.000 A 
ATOM     13  C   UNL     1      47.078   0.876   7.612  0.00  0.00    +0.000 A 
ATOM     14  N   UNL     1      48.026   1.515   6.891  0.00  0.00    +0.000 NA
ATOM     15  C   UNL     1      47.860   2.842   6.712  0.00  0.00    +0.000 A 
ATOM     16  C   UNL     1      46.787   3.562   7.208  0.00  0.00    +0.000 A 
ENDBRANCH  10  11
ENDBRANCH   9  10
ENDBRANCH   8   9
ENDBRANCH   5   8
ENDBRANCH   1   2
BRANCH   1  17
ATOM     17  N   UNL     1      48.307   8.097  14.464  0.00  0.00    +0.000 NA
ATOM     18  H   UNL     1      47.999   8.659  15.259  0.00  0.00    +0.000 HD
BRANCH  17  20
ATOM     19  C   UNL     1      50.705   7.578  15.014  0.00  0.00    +0.000 C 
ATOM     20  C   UNL     1      49.255   7.083  14.956  0.00  0.00    +0.000 C 
BRANCH  20  21
ATOM     21  C   UNL     1      48.792   6.639  16.328  0.00  0.00    +0.000 A 
ATOM     22  C   UNL     1      48.437   5.342  16.669  0.00  0.00    +0.000 A 
ATOM     23  S   UNL     1      47.982   5.177  18.307  0.00  0.00    +0.000 S 
ATOM     24  C   UNL     1      48.201   6.841  18.599  0.00  0.00    +0.000 A 
ATOM     25  N   UNL     1      47.967   7.383  19.825  0.00  0.00    +0.000 NA
ATOM     26  C   UNL     1      48.141   8.661  19.882  0.00  0.00    +0.000 A 
ATOM     27  N   UNL     1      48.524   9.448  18.822  0.00  0.00    +0.000 N 
ATOM     28  C   UNL     1      48.765   8.950  17.565  0.00  0.00    +0.000 A 
ATOM     29  O   UNL     1      49.073   9.690  16.637  0.00  0.00    +0.000 OA
ATOM     30  C   UNL     1      48.604   7.512  17.459  0.00  0.00    +0.000 A 
ATOM     31  H   UNL     1      48.617  10.448  18.928  0.00  0.00    +0.000 HD
ENDBRANCH  20  21
ENDBRANCH  17  20
ENDBRANCH   1  17
TORSDOF 8
ENDMDL
MODEL 6
REMARK VINA RESULT:    -7.002      3.889      8.777
REMARK INTER + INTRA:         -10.703
REMARK INTER:                  -9.136
REMARK INTRA:                  -1.567
REMARK UNBOUND:                -0.427
REMARK  Name = 
REMARK  9 active torsions:
REMARK  status: ('A' for Active; 'I' for Inactive)
REMARK    1  A    between atoms: C_1  and  C_2
REMARK    2  A    between atoms: C_2  and  N_3
REMARK    3  A    between atoms: C_2  and  C_20
REMARK    4  A    between atoms: N_3  and  C_4
REMARK    5  A    between atoms: C_4  and  C_5
REMARK    6  A    between atoms: C_8  and  C_9
REMARK    7  A    between atoms: C_9  and  O_10
REMARK    8  A    between atoms: O_10  and  C_11
REMARK    9  A    between atoms: C_11  and  C_12
REMARK                            x       y       z     vdW  Elec       q    Type
REMARK                         _______ _______ _______ _____ _____    ______ ____
ROOT
ATOM      1  C   UNL     1      48.630   9.395  13.995  0.00  0.00    +0.000 C 
ENDROOT
BRANCH   1   2
ATOM      2  C   UNL     1      48.982   9.427  15.496  0.00  0.00    +0.000 C 
ATOM      3  C   UNL     1      48.283   8.309  16.290  0.00  0.00    +0.000 C 
ATOM      4  C   UNL     1      48.814   6.921  15.930  0.00  0.00    +0.000 C 
ATOM      5  C   UNL     1      50.343   6.826  16.073  0.00  0.00    +0.000 C 
ATOM      6  C   UNL     1      51.058   7.947  15.316  0.00  0.00    +0.000 C 
ATOM      7  C   UNL     1      50.511   9.330  15.668  0.00  0.00    +0.000 C 
BRANCH   5   8
ATOM      8  C   UNL     1      50.772   6.790  17.552  0.00  0.00    +0.000 C 
BRANCH   8   9
ATOM      9  O   UNL     1      49.785   6.188  18.387  0.00  0.00    +0.000 OA
BRANCH   9  10
ATOM     10  C   UNL     1      50.235   4.980  18.991  0.00  0.00    +0.000 C 
BRANCH  10  11
ATOM     11  C   UNL     1      49.924   3.836  18.074  0.00  0.00    +0.000 A 
ATOM     12  C   UNL     1      48.646   3.692  17.525  0.00  0.00    +0.000 A 
ATOM     13  C   UNL     1      48.420   2.654  16.641  0.00  0.00    +0.000 A 
ATOM     14  N   UNL     1      49.368   1.765  16.272  0.00  0.00    +0.000 NA
ATOM     15  C   UNL     1      50.591   1.919  16.822  0.00  0.00    +0.000 A 
ATOM     16  C   UNL     1      50.916   2.925  17.715  0.00  0.00    +0.000 A 
ENDBRANCH  10  11
ENDBRANCH   9  10
ENDBRANCH   8   9
ENDBRANCH   5   8
ENDBRANCH   1   2
BRANCH   1  17
ATOM     17  N   UNL     1      47.284   8.883  13.728  0.00  0.00    +0.000 NA
ATOM     18  H   UNL     1      46.637   9.672  13.680  0.00  0.00    +0.000 HD
BRANCH  17  20
ATOM     19  C   UNL     1      48.609   7.891  11.834  0.00  0.00    +0.000 C 
ATOM     20  C   UNL     1      47.228   8.162  12.445  0.00  0.00    +0.000 C 
BRANCH  20  21
ATOM     21  C   UNL     1      46.486   6.861  12.673  0.00  0.00    +0.000 A 
ATOM     22  C   UNL     1      47.023   5.734  13.279  0.00  0.00    +0.000 A 
ATOM     23  S   UNL     1      45.911   4.443  13.401  0.00  0.00    +0.000 S 
ATOM     24  C   UNL     1      44.695   5.334  12.608  0.00  0.00    +0.000 A 
ATOM     25  N   UNL     1      43.466   4.801  12.371  0.00  0.00    +0.000 NA
ATOM     26  C   UNL     1      42.664   5.583  11.728  0.00  0.00    +0.000 A 
ATOM     27  N   UNL     1      42.982   6.849  11.298  0.00  0.00    +0.000 N 
ATOM     28  C   UNL     1      44.209   7.428  11.506  0.00  0.00    +0.000 A 
ATOM     29  O   UNL     1      44.465   8.548  11.077  0.00  0.00    +0.000 OA
ATOM     30  C   UNL     1      45.137   6.593  12.246  0.00  0.00    +0.000 A 
ATOM     31  H   UNL     1      42.315   7.400  10.776  0.00  0.00    +0.000 HD
ENDBRANCH  20  21
ENDBRANCH  17  20
ENDBRANCH   1  17
TORSDOF 8
ENDMDL
MODEL 7
REMARK VINA RESULT:    -6.867      3.715      8.702
REMARK INTER + INTRA:         -10.506
REMARK INTER:                  -8.726
REMARK INTRA:                  -1.780
REMARK UNBOUND:                -0.427
REMARK  Name = 
REMARK  9 active torsions:
REMARK  status: ('A' for Active; 'I' for Inactive)
REMARK    1  A    between atoms: C_1  and  C_2
REMARK    2  A    between atoms: C_2  and  N_3
REMARK    3  A    between atoms: C_2  and  C_20
REMARK    4  A    between atoms: N_3  and  C_4
REMARK    5  A    between atoms: C_4  and  C_5
REMARK    6  A    between atoms: C_8  and  C_9
REMARK    7  A    between atoms: C_9  and  O_10
REMARK    8  A    between atoms: O_10  and  C_11
REMARK    9  A    between atoms: C_11  and  C_12
REMARK                            x       y       z     vdW  Elec       q    Type
REMARK                         _______ _______ _______ _____ _____    ______ ____
ROOT
ATOM      1  C   UNL     1      48.323   7.519  12.374  0.00  0.00    +0.000 C 
ENDROOT
BRANCH   1   2
ATOM      2  C   UNL     1      47.599   7.364  13.728  0.00  0.00    +0.000 C 
ATOM      3  C   UNL     1      48.310   6.372  14.666  0.00  0.00    +0.000 C 
ATOM      4  C   UNL     1      49.659   6.898  15.154  0.00  0.00    +0.000 C 
ATOM      5  C   UNL     1      49.544   8.287  15.805  0.00  0.00    +0.000 C 
ATOM      6  C   UNL     1      48.813   9.282  14.901  0.00  0.00    +0.000 C 
ATOM      7  C   UNL     1      47.472   8.743  14.404  0.00  0.00    +0.000 C 
BRANCH   5   8
ATOM      8  C   UNL     1      48.884   8.207  17.194  0.00  0.00    +0.000 C 
BRANCH   8   9
ATOM      9  O   UNL     1      49.579   7.325  18.073  0.00  0.00    +0.000 OA
BRANCH   9  10
ATOM     10  C   UNL     1      48.702   6.541  18.876  0.00  0.00    +0.000 C 
BRANCH  10  11
ATOM     11  C   UNL     1      48.547   5.191  18.244  0.00  0.00    +0.000 A 
ATOM     12  C   UNL     1      47.292   4.743  17.820  0.00  0.00    +0.000 A 
ATOM     13  C   UNL     1      47.205   3.515  17.193  0.00  0.00    +0.000 A 
ATOM     14  N   UNL     1      48.270   2.715  16.963  0.00  0.00    +0.000 NA
ATOM     15  C   UNL     1      49.469   3.164  17.392  0.00  0.00    +0.000 A 
ATOM     16  C   UNL     1      49.659   4.378  18.027  0.00  0.00    +0.000 A 
ENDBRANCH  10  11
ENDBRANCH   9  10
ENDBRANCH   8   9
ENDBRANCH   5   8
ENDBRANCH   1   2
BRANCH   1  17
ATOM     17  N   UNL     1      47.517   7.072  11.235  0.00  0.00    +0.000 NA
ATOM     18  H   UNL     1      47.887   6.180  10.902  0.00  0.00    +0.000 HD
BRANCH  17  20
ATOM     19  C   UNL     1      45.233   8.111  11.398  0.00  0.00    +0.000 C 
ATOM     20  C   UNL     1      46.109   6.872  11.619  0.00  0.00    +0.000 C 
BRANCH  20  21
ATOM     21  C   UNL     1      45.573   5.697  10.828  0.00  0.00    +0.000 A 
ATOM     22  C   UNL     1      45.753   5.504   9.466  0.00  0.00    +0.000 A 
ATOM     23  S   UNL     1      45.037   4.065   8.889  0.00  0.00    +0.000 S 
ATOM     24  C   UNL     1      44.426   3.678  10.431  0.00  0.00    +0.000 A 
ATOM     25  N   UNL     1      43.690   2.553  10.641  0.00  0.00    +0.000 NA
ATOM     26  C   UNL     1      43.266   2.416  11.853  0.00  0.00    +0.000 A 
ATOM     27  N   UNL     1      43.506   3.304  12.873  0.00  0.00    +0.000 N 
ATOM     28  C   UNL     1      44.236   4.456  12.711  0.00  0.00    +0.000 A 
ATOM     29  O   UNL     1      44.401   5.240  13.639  0.00  0.00    +0.000 OA
ATOM     30  C   UNL     1      44.755   4.641  11.368  0.00  0.00    +0.000 A 
ATOM     31  H   UNL     1      43.122   3.149  13.794  0.00  0.00    +0.000 HD
ENDBRANCH  20  21
ENDBRANCH  17  20
ENDBRANCH   1  17
TORSDOF 8
ENDMDL
MODEL 8
REMARK VINA RESULT:    -6.603      5.926      7.848
REMARK INTER + INTRA:         -10.118
REMARK INTER:                  -8.383
REMARK INTRA:                  -1.735
REMARK UNBOUND:                -0.427
REMARK  Name = 
REMARK  9 active torsions:
REMARK  status: ('A' for Active; 'I' for Inactive)
REMARK    1  A    between atoms: C_1  and  C_2
REMARK    2  A    between atoms: C_2  and  N_3
REMARK    3  A    between atoms: C_2  and  C_20
REMARK    4  A    between atoms: N_3  and  C_4
REMARK    5  A    between atoms: C_4  and  C_5
REMARK    6  A    between atoms: C_8  and  C_9
REMARK    7  A    between atoms: C_9  and  O_10
REMARK    8  A    between atoms: O_10  and  C_11
REMARK    9  A    between atoms: C_11  and  C_12
REMARK                            x       y       z     vdW  Elec       q    Type
REMARK                         _______ _______ _______ _____ _____    ______ ____
ROOT
ATOM      1  C   UNL     1      49.935   7.572  12.979  0.00  0.00    +0.000 C 
ENDROOT
BRANCH   1   2
ATOM      2  C   UNL     1      49.865   8.021  11.504  0.00  0.00    +0.000 C 
ATOM      3  C   UNL     1      49.768   9.550  11.357  0.00  0.00    +0.000 C 
ATOM      4  C   UNL     1      51.054  10.258  11.780  0.00  0.00    +0.000 C 
ATOM      5  C   UNL     1      52.291   9.710  11.046  0.00  0.00    +0.000 C 
ATOM      6  C   UNL     1      52.391   8.187  11.154  0.00  0.00    +0.000 C 
ATOM      7  C   UNL     1      51.096   7.487  10.745  0.00  0.00    +0.000 C 
BRANCH   5   8
ATOM      8  C   UNL     1      52.325  10.168   9.576  0.00  0.00    +0.000 C 
BRANCH   8   9
ATOM      9  O   UNL     1      53.591   9.932   8.965  0.00  0.00    +0.000 OA
BRANCH   9  10
ATOM     10  C   UNL     1      53.480   9.395   7.652  0.00  0.00    +0.000 C 
BRANCH  10  11
ATOM     11  C   UNL     1      53.628   7.905   7.726  0.00  0.00    +0.000 A 
ATOM     12  C   UNL     1      54.699   7.330   8.417  0.00  0.00    +0.000 A 
ATOM     13  C   UNL     1      54.766   5.953   8.506  0.00  0.00    +0.000 A 
ATOM     14  N   UNL     1      53.850   5.123   7.962  0.00  0.00    +0.000 NA
ATOM     15  C   UNL     1      52.831   5.700   7.291  0.00  0.00    +0.000 A 
ATOM     16  C   UNL     1      52.675   7.068   7.147  0.00  0.00    +0.000 A 
ENDBRANCH  10  11
ENDBRANCH   9  10
ENDBRANCH   8   9
ENDBRANCH   5   8
ENDBRANCH   1   2
BRANCH   1  17
ATOM     17  N   UNL     1      49.163   6.357  13.249  0.00  0.00    +0.000 NA
ATOM     18  H   UNL     1      49.750   5.705  13.772  0.00  0.00    +0.000 HD
BRANCH  17  20
ATOM     19  C   UNL     1      47.981   8.050  14.686  0.00  0.00    +0.000 C 
ATOM     20  C   UNL     1      47.968   6.650  14.059  0.00  0.00    +0.000 C 
BRANCH  20  21
ATOM     21  C   UNL     1      46.751   6.479  13.173  0.00  0.00    +0.000 A 
ATOM     22  C   UNL     1      46.019   7.518  12.615  0.00  0.00    +0.000 A 
ATOM     23  S   UNL     1      44.718   6.980  11.647  0.00  0.00    +0.000 S 
ATOM     24  C   UNL     1      45.065   5.346  11.981  0.00  0.00    +0.000 A 
ATOM     25  N   UNL     1      44.310   4.340  11.462  0.00  0.00    +0.000 NA
ATOM     26  C   UNL     1      44.673   3.159  11.835  0.00  0.00    +0.000 A 
ATOM     27  N   UNL     1      45.721   2.891  12.683  0.00  0.00    +0.000 N 
ATOM     28  C   UNL     1      46.508   3.870  13.237  0.00  0.00    +0.000 A 
ATOM     29  O   UNL     1      47.413   3.593  14.016  0.00  0.00    +0.000 OA
ATOM     30  C   UNL     1      46.151   5.216  12.828  0.00  0.00    +0.000 A 
ATOM     31  H   UNL     1      45.936   1.943  12.955  0.00  0.00    +0.000 HD
ENDBRANCH  20  21
ENDBRANCH  17  20
ENDBRANCH   1  17
TORSDOF 8
ENDMDL
MODEL 9
REMARK VINA RESULT:    -6.435      3.361      8.864
REMARK INTER + INTRA:          -9.871
REMARK INTER:                  -8.958
REMARK INTRA:                  -0.913
REMARK UNBOUND:                -0.427
REMARK  Name = 
REMARK  9 active torsions:
REMARK  status: ('A' for Active; 'I' for Inactive)
REMARK    1  A    between atoms: C_1  and  C_2
REMARK    2  A    between atoms: C_2  and  N_3
REMARK    3  A    between atoms: C_2  and  C_20
REMARK    4  A    between atoms: N_3  and  C_4
REMARK    5  A    between atoms: C_4  and  C_5
REMARK    6  A    between atoms: C_8  and  C_9
REMARK    7  A    between atoms: C_9  and  O_10
REMARK    8  A    between atoms: O_10  and  C_11
REMARK    9  A    between atoms: C_11  and  C_12
REMARK                            x       y       z     vdW  Elec       q    Type
REMARK                         _______ _______ _______ _____ _____    ______ ____
ROOT
ATOM      1  C   UNL     1      47.260   8.011  11.749  0.00  0.00    +0.000 C 
ENDROOT
BRANCH   1   2
ATOM      2  C   UNL     1      48.750   7.951  12.143  0.00  0.00    +0.000 C 
ATOM      3  C   UNL     1      49.185   9.157  12.994  0.00  0.00    +0.000 C 
ATOM      4  C   UNL     1      48.550   9.146  14.385  0.00  0.00    +0.000 C 
ATOM      5  C   UNL     1      48.802   7.824  15.131  0.00  0.00    +0.000 C 
ATOM      6  C   UNL     1      48.405   6.609  14.290  0.00  0.00    +0.000 C 
ATOM      7  C   UNL     1      49.030   6.635  12.896  0.00  0.00    +0.000 C 
BRANCH   5   8
ATOM      8  C   UNL     1      50.261   7.716  15.613  0.00  0.00    +0.000 C 
BRANCH   8   9
ATOM      9  O   UNL     1      50.640   6.370  15.892  0.00  0.00    +0.000 OA
BRANCH   9  10
ATOM     10  C   UNL     1      50.602   6.061  17.281  0.00  0.00    +0.000 C 
BRANCH  10  11
ATOM     11  C   UNL     1      49.275   5.442  17.600  0.00  0.00    +0.000 A 
ATOM     12  C   UNL     1      48.361   6.103  18.426  0.00  0.00    +0.000 A 
ATOM     13  C   UNL     1      47.128   5.520  18.649  0.00  0.00    +0.000 A 
ATOM     14  N   UNL     1      46.750   4.340  18.111  0.00  0.00    +0.000 NA
ATOM     15  C   UNL     1      47.653   3.715  17.325  0.00  0.00    +0.000 A 
ATOM     16  C   UNL     1      48.911   4.217  17.041  0.00  0.00    +0.000 A 
ENDBRANCH  10  11
ENDBRANCH   9  10
ENDBRANCH   8   9
ENDBRANCH   5   8
ENDBRANCH   1   2
BRANCH   1  17
ATOM     17  N   UNL     1      46.658   6.688  11.567  0.00  0.00    +0.000 NA
ATOM     18  H   UNL     1      47.172   6.013  12.135  0.00  0.00    +0.000 HD
BRANCH  17  20
ATOM     19  C   UNL     1      44.369   7.681  11.247  0.00  0.00    +0.000 C 
ATOM     20  C   UNL     1      45.249   6.676  12.000  0.00  0.00    +0.000 C 
BRANCH  20  21
ATOM     21  C   UNL     1      44.719   5.268  11.818  0.00  0.00    +0.000 A 
ATOM     22  C   UNL     1      44.107   4.513  12.808  0.00  0.00    +0.000 A 
ATOM     23  S   UNL     1      43.604   2.973  12.266  0.00  0.00    +0.000 S 
ATOM     24  C   UNL     1      44.230   3.251  10.705  0.00  0.00    +0.000 A 
ATOM     25  N   UNL     1      44.143   2.308   9.729  0.00  0.00    +0.000 NA
ATOM     26  C   UNL     1      44.695   2.649   8.612  0.00  0.00    +0.000 A 
ATOM     27  N   UNL     1      45.330   3.846   8.385  0.00  0.00    +0.000 N 
ATOM     28  C   UNL     1      45.450   4.826   9.340  0.00  0.00    +0.000 A 
ATOM     29  O   UNL     1      46.053   5.868   9.108  0.00  0.00    +0.000 OA
ATOM     30  C   UNL     1      44.823   4.496  10.607  0.00  0.00    +0.000 A 
ATOM     31  H   UNL     1      45.764   4.040   7.494  0.00  0.00    +0.000 HD
ENDBRANCH  20  21
ENDBRANCH  17  20
ENDBRANCH   1  17
TORSDOF 8
ENDMDL
