MODEL 1
REMARK VINA RESULT:    -8.030      0.000      0.000
REMARK INTER + INTRA:         -11.999
REMARK INTER:                 -10.846
REMARK INTRA:                  -1.153
REMARK UNBOUND:                -1.153
REMARK  Name = 
REMARK  6 active torsions:
REMARK  status: ('A' for Active; 'I' for Inactive)
REMARK    1  A    between atoms: C_2  and  C_25
REMARK    2  A    between atoms: N_3  and  C_4
REMARK    3  A    between atoms: C_4  and  C_5
REMARK    4  A    between atoms: C_8  and  C_9
REMARK    5  A    between atoms: C_9  and  N_10
REMARK    6  A    between atoms: C_11  and  C_13
REMARK                            x       y       z     vdW  Elec       q    Type
REMARK                         _______ _______ _______ _____ _____    ______ ____
ROOT
ATOM      1  C   UNL     1      44.865   5.684  10.882  0.00  0.00    +0.000 A 
ATOM      2  C   UNL     1      44.240   6.186  12.023  0.00  0.00    +0.000 A 
ATOM      3  C   UNL     1      44.960   7.014  12.885  0.00  0.00    +0.000 A 
ATOM      4  C   UNL     1      46.284   7.338  12.589  0.00  0.00    +0.000 A 
ATOM      5  C   UNL     1      46.830   6.778  11.440  0.00  0.00    +0.000 A 
ATOM      6  N   UNL     1      46.156   5.974  10.583  0.00  0.00    +0.000 NA
ENDROOT
BRANCH   1   7
ATOM      7  C   UNL     1      44.116   4.782   9.927  0.00  0.00    +0.000 C 
BRANCH   7  10
ATOM      8  O   UNL     1      45.089   2.184   9.661  0.00  0.00    +0.000 OA
ATOM      9  C   UNL     1      45.368   2.995   8.779  0.00  0.00    +0.000 C 
ATOM     10  N   UNL     1      44.935   4.297   8.832  0.00  0.00    +0.000 N 
ATOM     11  H   UNL     1      45.106   4.900   8.035  0.00  0.00    +0.000 HD
BRANCH   9  12
ATOM     12  C   UNL     1      46.180   2.647   7.631  0.00  0.00    +0.000 A 
ATOM     13  C   UNL     1      46.365   3.323   6.438  0.00  0.00    +0.000 A 
ATOM     14  C   UNL     1      47.225   2.532   5.644  0.00  0.00    +0.000 A 
ATOM     15  C   UNL     1      47.520   1.419   6.398  0.00  0.00    +0.000 A 
ATOM     16  O   UNL     1      46.900   1.480   7.608  0.00  0.00    +0.000 OA
ENDBRANCH   9  12
ENDBRANCH   7  10
ENDBRANCH   1   7
BRANCH   4  17
ATOM     17  C   UNL     1      47.104   8.223  13.479  0.00  0.00    +0.000 C 
BRANCH  17  18
ATOM     18  N   UNL     1      47.546   7.527  14.661  0.00  0.00    +0.000 N 
ATOM     19  C   UNL     1      48.757   6.884  14.704  0.00  0.00    +0.000 C 
ATOM     20  O   UNL     1      49.547   6.921  13.765  0.00  0.00    +0.000 OA
ATOM     21  H   UNL     1      46.838   7.293  15.350  0.00  0.00    +0.000 HD
BRANCH  19  22
ATOM     22  C   UNL     1      49.086   6.197  15.960  0.00  0.00    +0.000 A 
ATOM     23  C   UNL     1      50.161   6.633  16.724  0.00  0.00    +0.000 A 
ATOM     24  S   UNL     1      50.369   5.757  18.173  0.00  0.00    +0.000 S 
ATOM     25  C   UNL     1      49.067   4.728  17.804  0.00  0.00    +0.000 A 
ATOM     26  N   UNL     1      48.717   3.712  18.639  0.00  0.00    +0.000 NA
ATOM     27  C   UNL     1      47.734   2.988  18.217  0.00  0.00    +0.000 A 
ATOM     28  N   UNL     1      47.063   3.192  17.040  0.00  0.00    +0.000 N 
ATOM     29  C   UNL     1      47.357   4.226  16.183  0.00  0.00    +0.000 A 
ATOM     30  O   UNL     1      46.703   4.416  15.163  0.00  0.00    +0.000 OA
ATOM     31  C   UNL     1      48.468   5.060  16.601  0.00  0.00    +0.000 A 
ATOM     32  H   UNL     1      46.293   2.597  16.773  0.00  0.00    +0.000 HD
ENDBRANCH  19  22
ENDBRANCH  17  18
ENDBRANCH   4  17
TORSDOF 6
ENDMDL
MODEL 2
REMARK VINA RESULT:    -7.624      1.137      1.209
REMARK INTER + INTRA:         -11.451
REMARK INTER:                 -10.840
REMARK INTRA:                  -0.611
REMARK UNBOUND:                -1.153
REMARK  Name = 
REMARK  6 active torsions:
REMARK  status: ('A' for Active; 'I' for Inactive)
REMARK    1  A    between atoms: C_2  and  C_25
REMARK    2  A    between atoms: N_3  and  C_4
REMARK    3  A    between atoms: C_4  and  C_5
REMARK    4  A    between atoms: C_8  and  C_9
REMARK    5  A    between atoms: C_9  and  N_10
REMARK    6  A    between atoms: C_11  and  C_13
REMARK                            x       y       z     vdW  Elec       q    Type
REMARK                         _______ _______ _______ _____ _____    ______ ____
ROOT
ATOM      1  C   UNL     1      44.828   5.145  11.404  0.00  0.00    +0.000 A 
ATOM      2  C   UNL     1      45.654   4.675  12.425  0.00  0.00    +0.000 A 
ATOM      3  C   UNL     1      46.453   5.579  13.125  0.00  0.00    +0.000 A 
ATOM      4  C   UNL     1      46.406   6.936  12.806  0.00  0.00    +0.000 A 
ATOM      5  C   UNL     1      45.567   7.312  11.763  0.00  0.00    +0.000 A 
ATOM      6  N   UNL     1      44.777   6.458  11.067  0.00  0.00    +0.000 NA
ENDROOT
BRANCH   1   7
ATOM      7  C   UNL     1      43.950   4.193  10.623  0.00  0.00    +0.000 C 
BRANCH   7  10
ATOM      8  O   UNL     1      45.321   4.705   8.251  0.00  0.00    +0.000 OA
ATOM      9  C   UNL     1      45.351   3.558   8.696  0.00  0.00    +0.000 C 
ATOM     10  N   UNL     1      44.701   3.216   9.856  0.00  0.00    +0.000 N 
ATOM     11  H   UNL     1      44.836   2.286  10.235  0.00  0.00    +0.000 HD
BRANCH   9  12
ATOM     12  C   UNL     1      46.059   2.484   8.031  0.00  0.00    +0.000 A 
ATOM     13  C   UNL     1      46.843   2.510   6.891  0.00  0.00    +0.000 A 
ATOM     14  C   UNL     1      47.267   1.185   6.651  0.00  0.00    +0.000 A 
ATOM     15  C   UNL     1      46.721   0.423   7.657  0.00  0.00    +0.000 A 
ATOM     16  O   UNL     1      45.993   1.199   8.507  0.00  0.00    +0.000 OA
ENDBRANCH   9  12
ENDBRANCH   7  10
ENDBRANCH   1   7
BRANCH   4  17
ATOM     17  C   UNL     1      47.242   7.952  13.525  0.00  0.00    +0.000 C 
BRANCH  17  18
ATOM     18  N   UNL     1      47.720   7.450  14.787  0.00  0.00    +0.000 N 
ATOM     19  C   UNL     1      49.016   7.031  14.948  0.00  0.00    +0.000 C 
ATOM     20  O   UNL     1      49.845   7.120  14.047  0.00  0.00    +0.000 OA
ATOM     21  H   UNL     1      47.020   7.160  15.464  0.00  0.00    +0.000 HD
BRANCH  19  22
ATOM     22  C   UNL     1      49.378   6.524  16.279  0.00  0.00    +0.000 A 
ATOM     23  C   UNL     1      50.269   7.239  17.070  0.00  0.00    +0.000 A 
ATOM     24  S   UNL     1      50.537   6.537  18.602  0.00  0.00    +0.000 S 
ATOM     25  C   UNL     1      49.518   5.224  18.240  0.00  0.00    +0.000 A 
ATOM     26  N   UNL     1      49.323   4.220  19.138  0.00  0.00    +0.000 NA
ATOM     27  C   UNL     1      48.554   3.271  18.718  0.00  0.00    +0.000 A 
ATOM     28  N   UNL     1      47.955   3.238  17.485  0.00  0.00    +0.000 N 
ATOM     29  C   UNL     1      48.093   4.246  16.562  0.00  0.00    +0.000 A 
ATOM     30  O   UNL     1      47.501   4.215  15.489  0.00  0.00    +0.000 OA
ATOM     31  C   UNL     1      48.964   5.330  16.976  0.00  0.00    +0.000 A 
ATOM     32  H   UNL     1      47.353   2.472  17.223  0.00  0.00    +0.000 HD
ENDBRANCH  19  22
ENDBRANCH  17  18
ENDBRANCH   4  17
TORSDOF 6
ENDMDL
MODEL 3
REMARK VINA RESULT:    -7.165      2.126      2.464
REMARK INTER + INTRA:         -10.831
REMARK INTER:                  -9.926
REMARK INTRA:                  -0.905
REMARK UNBOUND:                -1.153
REMARK  Name = 
REMARK  6 active torsions:
REMARK  status: ('A' for Active; 'I' for Inactive)
REMARK    1  A    between atoms: C_2  and  C_25
REMARK    2  A    between atoms: N_3  and  C_4
REMARK    3  A    between atoms: C_4  and  C_5
REMARK    4  A    between atoms: C_8  and  C_9
REMARK    5  A    between atoms: C_9  and  N_10
REMARK    6  A    between atoms: C_11  and  C_13
REMARK                            x       y       z     vdW  Elec       q    Type
REMARK                         _______ _______ _______ _____ _____    ______ ____
ROOT
ATOM      1  C   UNL     1      45.335   6.190  11.409  0.00  0.00    +0.000 A 
ATOM      2  C   UNL     1      45.089   7.529  11.713  0.00  0.00    +0.000 A 
ATOM      3  C   UNL     1      45.938   8.193  12.599  0.00  0.00    +0.000 A 
ATOM      4  C   UNL     1      47.023   7.517  13.156  0.00  0.00    +0.000 A 
ATOM      5  C   UNL     1      47.181   6.180  12.810  0.00  0.00    +0.000 A 
ATOM      6  N   UNL     1      46.376   5.509  11.950  0.00  0.00    +0.000 NA
ENDROOT
BRANCH   1   7
ATOM      7  C   UNL     1      44.435   5.438  10.455  0.00  0.00    +0.000 C 
BRANCH   7  10
ATOM      8  O   UNL     1      44.274   2.674  10.134  0.00  0.00    +0.000 OA
ATOM      9  C   UNL     1      45.019   3.298   9.379  0.00  0.00    +0.000 C 
ATOM     10  N   UNL     1      45.162   4.661   9.469  0.00  0.00    +0.000 N 
ATOM     11  H   UNL     1      45.708   5.142   8.763  0.00  0.00    +0.000 HD
BRANCH   9  12
ATOM     12  C   UNL     1      45.806   2.649   8.351  0.00  0.00    +0.000 A 
ATOM     13  C   UNL     1      46.297   3.152   7.159  0.00  0.00    +0.000 A 
ATOM     14  C   UNL     1      46.967   2.092   6.509  0.00  0.00    +0.000 A 
ATOM     15  C   UNL     1      46.849   1.002   7.339  0.00  0.00    +0.000 A 
ATOM     16  O   UNL     1      46.156   1.327   8.464  0.00  0.00    +0.000 OA
ENDBRANCH   9  12
ENDBRANCH   7  10
ENDBRANCH   1   7
BRANCH   4  17
ATOM     17  C   UNL     1      47.968   8.181  14.112  0.00  0.00    +0.000 C 
BRANCH  17  18
ATOM     18  N   UNL     1      47.919   7.572  15.417  0.00  0.00    +0.000 N 
ATOM     19  C   UNL     1      48.966   6.828  15.900  0.00  0.00    +0.000 C 
ATOM     20  O   UNL     1      50.014   6.696  15.275  0.00  0.00    +0.000 OA
ATOM     21  H   UNL     1      47.005   7.475  15.848  0.00  0.00    +0.000 HD
BRANCH  19  22
ATOM     22  C   UNL     1      48.789   6.244  17.236  0.00  0.00    +0.000 A 
ATOM     23  C   UNL     1      49.088   4.904  17.449  0.00  0.00    +0.000 A 
ATOM     24  S   UNL     1      48.876   4.405  19.067  0.00  0.00    +0.000 S 
ATOM     25  C   UNL     1      48.323   5.946  19.528  0.00  0.00    +0.000 A 
ATOM     26  N   UNL     1      47.940   6.198  20.809  0.00  0.00    +0.000 NA
ATOM     27  C   UNL     1      47.509   7.399  21.010  0.00  0.00    +0.000 A 
ATOM     28  N   UNL     1      47.434   8.373  20.049  0.00  0.00    +0.000 N 
ATOM     29  C   UNL     1      47.844   8.175  18.753  0.00  0.00    +0.000 A 
ATOM     30  O   UNL     1      47.815   9.083  17.928  0.00  0.00    +0.000 OA
ATOM     31  C   UNL     1      48.320   6.835  18.467  0.00  0.00    +0.000 A 
ATOM     32  H   UNL     1      47.099   9.298  20.275  0.00  0.00    +0.000 HD
ENDBRANCH  19  22
ENDBRANCH  17  18
ENDBRANCH   4  17
TORSDOF 6
ENDMDL
MODEL 4
REMARK VINA RESULT:    -7.008      2.389      2.664
REMARK INTER + INTRA:         -10.619
REMARK INTER:                  -9.743
REMARK INTRA:                  -0.877
REMARK UNBOUND:                -1.153
REMARK  Name = 
REMARK  6 active torsions:
REMARK  status: ('A' for Active; 'I' for Inactive)
REMARK    1  A    between atoms: C_2  and  C_25
REMARK    2  A    between atoms: N_3  and  C_4
REMARK    3  A    between atoms: C_4  and  C_5
REMARK    4  A    between atoms: C_8  and  C_9
REMARK    5  A    between atoms: C_9  and  N_10
REMARK    6  A    between atoms: C_11  and  C_13
REMARK                            x       y       z     vdW  Elec       q    Type
REMARK                         _______ _______ _______ _____ _____    ______ ____
ROOT
ATOM      1  C   UNL     1      45.307   6.373  11.469  0.00  0.00    +0.000 A 
ATOM      2  C   UNL     1      46.543   5.952  11.960  0.00  0.00    +0.000 A 
ATOM      3  C   UNL     1      47.305   6.831  12.729  0.00  0.00    +0.000 A 
ATOM      4  C   UNL     1      46.819   8.108  13.007  0.00  0.00    +0.000 A 
ATOM      5  C   UNL     1      45.586   8.448  12.462  0.00  0.00    +0.000 A 
ATOM      6  N   UNL     1      44.821   7.616  11.715  0.00  0.00    +0.000 NA
ENDROOT
BRANCH   1   7
ATOM      7  C   UNL     1      44.455   5.448  10.630  0.00  0.00    +0.000 C 
BRANCH   7  10
ATOM      8  O   UNL     1      44.021   2.859   9.694  0.00  0.00    +0.000 OA
ATOM      9  C   UNL     1      44.904   3.525   9.154  0.00  0.00    +0.000 C 
ATOM     10  N   UNL     1      45.188   4.807   9.554  0.00  0.00    +0.000 N 
ATOM     11  H   UNL     1      45.854   5.350   9.016  0.00  0.00    +0.000 HD
BRANCH   9  12
ATOM     12  C   UNL     1      45.715   3.009   8.071  0.00  0.00    +0.000 A 
ATOM     13  C   UNL     1      46.368   1.795   7.951  0.00  0.00    +0.000 A 
ATOM     14  C   UNL     1      47.047   1.811   6.713  0.00  0.00    +0.000 A 
ATOM     15  C   UNL     1      46.770   3.033   6.144  0.00  0.00    +0.000 A 
ATOM     16  O   UNL     1      45.956   3.766   6.952  0.00  0.00    +0.000 OA
ENDBRANCH   9  12
ENDBRANCH   7  10
ENDBRANCH   1   7
BRANCH   4  17
ATOM     17  C   UNL     1      47.595   9.094  13.829  0.00  0.00    +0.000 C 
BRANCH  17  18
ATOM     18  N   UNL     1      47.452   8.840  15.239  0.00  0.00    +0.000 N 
ATOM     19  C   UNL     1      48.314   9.385  16.157  0.00  0.00    +0.000 C 
ATOM     20  O   UNL     1      49.208  10.160  15.830  0.00  0.00    +0.000 OA
ATOM     21  H   UNL     1      46.880   8.046  15.510  0.00  0.00    +0.000 HD
BRANCH  19  22
ATOM     22  C   UNL     1      48.073   9.038  17.564  0.00  0.00    +0.000 A 
ATOM     23  C   UNL     1      47.760  10.037  18.477  0.00  0.00    +0.000 A 
ATOM     24  S   UNL     1      47.461   9.455  20.052  0.00  0.00    +0.000 S 
ATOM     25  C   UNL     1      47.795   7.854  19.584  0.00  0.00    +0.000 A 
ATOM     26  N   UNL     1      47.745   6.835  20.484  0.00  0.00    +0.000 NA
ATOM     27  C   UNL     1      48.057   5.679  20.000  0.00  0.00    +0.000 A 
ATOM     28  N   UNL     1      48.406   5.447  18.695  0.00  0.00    +0.000 N 
ATOM     29  C   UNL     1      48.435   6.438  17.744  0.00  0.00    +0.000 A 
ATOM     30  O   UNL     1      48.698   6.190  16.571  0.00  0.00    +0.000 OA
ATOM     31  C   UNL     1      48.111   7.762  18.239  0.00  0.00    +0.000 A 
ATOM     32  H   UNL     1      48.626   4.515  18.376  0.00  0.00    +0.000 HD
ENDBRANCH  19  22
ENDBRANCH  17  18
ENDBRANCH   4  17
TORSDOF 6
ENDMDL
MODEL 5
REMARK VINA RESULT:    -6.945      4.775      9.385
REMARK INTER + INTRA:         -10.533
REMARK INTER:                  -9.719
REMARK INTRA:                  -0.815
REMARK UNBOUND:                -1.153
REMARK  Name = 
REMARK  6 active torsions:
REMARK  status: ('A' for Active; 'I' for Inactive)
REMARK    1  A    between atoms: C_2  and  C_25
REMARK    2  A    between atoms: N_3  and  C_4
REMARK    3  A    between atoms: C_4  and  C_5
REMARK    4  A    between atoms: C_8  and  C_9
REMARK    5  A    between atoms: C_9  and  N_10
REMARK    6  A    between atoms: C_11  and  C_13
REMARK                            x       y       z     vdW  Elec       q    Type
REMARK                         _______ _______ _______ _____ _____    ______ ____
ROOT
ATOM      1  C   UNL     1      51.349   3.017  17.733  0.00  0.00    +0.000 A 
ATOM      2  C   UNL     1      50.740   4.236  18.028  0.00  0.00    +0.000 A 
ATOM      3  C   UNL     1      49.380   4.399  17.765  0.00  0.00    +0.000 A 
ATOM      4  C   UNL     1      48.647   3.341  17.227  0.00  0.00    +0.000 A 
ATOM      5  C   UNL     1      49.340   2.169  16.949  0.00  0.00    +0.000 A 
ATOM      6  N   UNL     1      50.659   1.980  17.195  0.00  0.00    +0.000 NA
ENDROOT
BRANCH   1   7
ATOM      7  C   UNL     1      52.822   2.806  18.002  0.00  0.00    +0.000 C 
BRANCH   7  10
ATOM      8  O   UNL     1      54.684   1.207  16.682  0.00  0.00    +0.000 OA
ATOM      9  C   UNL     1      54.090   0.722  17.644  0.00  0.00    +0.000 C 
ATOM     10  N   UNL     1      53.153   1.436  18.349  0.00  0.00    +0.000 N 
ATOM     11  H   UNL     1      52.763   1.031  19.192  0.00  0.00    +0.000 HD
BRANCH   9  12
ATOM     12  C   UNL     1      54.320  -0.634  18.098  0.00  0.00    +0.000 A 
ATOM     13  C   UNL     1      55.026  -1.662  17.499  0.00  0.00    +0.000 A 
ATOM     14  C   UNL     1      54.909  -2.790  18.342  0.00  0.00    +0.000 A 
ATOM     15  C   UNL     1      54.139  -2.387  19.409  0.00  0.00    +0.000 A 
ATOM     16  O   UNL     1      53.783  -1.080  19.279  0.00  0.00    +0.000 OA
ENDBRANCH   9  12
ENDBRANCH   7  10
ENDBRANCH   1   7
BRANCH   4  17
ATOM     17  C   UNL     1      47.183   3.460  16.925  0.00  0.00    +0.000 C 
BRANCH  17  18
ATOM     18  N   UNL     1      46.924   4.470  15.932  0.00  0.00    +0.000 N 
ATOM     19  C   UNL     1      47.019   4.197  14.590  0.00  0.00    +0.000 C 
ATOM     20  O   UNL     1      47.267   3.070  14.172  0.00  0.00    +0.000 OA
ATOM     21  H   UNL     1      46.941   5.437  16.241  0.00  0.00    +0.000 HD
BRANCH  19  22
ATOM     22  C   UNL     1      46.748   5.315  13.677  0.00  0.00    +0.000 A 
ATOM     23  C   UNL     1      47.751   6.235  13.396  0.00  0.00    +0.000 A 
ATOM     24  S   UNL     1      47.283   7.436  12.278  0.00  0.00    +0.000 S 
ATOM     25  C   UNL     1      45.708   6.803  12.172  0.00  0.00    +0.000 A 
ATOM     26  N   UNL     1      44.767   7.391  11.385  0.00  0.00    +0.000 NA
ATOM     27  C   UNL     1      43.606   6.827  11.428  0.00  0.00    +0.000 A 
ATOM     28  N   UNL     1      43.302   5.722  12.180  0.00  0.00    +0.000 N 
ATOM     29  C   UNL     1      44.228   5.073  12.960  0.00  0.00    +0.000 A 
ATOM     30  O   UNL     1      43.940   4.054  13.579  0.00  0.00    +0.000 OA
ATOM     31  C   UNL     1      45.547   5.678  12.963  0.00  0.00    +0.000 A 
ATOM     32  H   UNL     1      42.377   5.320  12.158  0.00  0.00    +0.000 HD
ENDBRANCH  19  22
ENDBRANCH  17  18
ENDBRANCH   4  17
TORSDOF 6
ENDMDL
MODEL 6
REMARK VINA RESULT:    -6.859      1.983      2.659
REMARK INTER + INTRA:         -10.419
REMARK INTER:                  -9.908
REMARK INTRA:                  -0.511
REMARK UNBOUND:                -1.153
REMARK  Name = 
REMARK  6 active torsions:
REMARK  status: ('A' for Active; 'I' for Inactive)
REMARK    1  A    between atoms: C_2  and  C_25
REMARK    2  A    between atoms: N_3  and  C_4
REMARK    3  A    between atoms: C_4  and  C_5
REMARK    4  A    between atoms: C_8  and  C_9
REMARK    5  A    between atoms: C_9  and  N_10
REMARK    6  A    between atoms: C_11  and  C_13
REMARK                            x       y       z     vdW  Elec       q    Type
REMARK                         _______ _______ _______ _____ _____    ______ ____
ROOT
ATOM      1  C   UNL     1      45.016   5.198  11.316  0.00  0.00    +0.000 A 
ATOM      2  C   UNL     1      45.576   4.508  12.391  0.00  0.00    +0.000 A 
ATOM      3  C   UNL     1      46.427   5.185  13.265  0.00  0.00    +0.000 A 
ATOM      4  C   UNL     1      46.695   6.539  13.062  0.00  0.00    +0.000 A 
ATOM      5  C   UNL     1      46.107   7.140  11.954  0.00  0.00    +0.000 A 
ATOM      6  N   UNL     1      45.274   6.510  11.090  0.00  0.00    +0.000 NA
ENDROOT
BRANCH   1   7
ATOM      7  C   UNL     1      44.092   4.495  10.347  0.00  0.00    +0.000 C 
BRANCH   7  10
ATOM      8  O   UNL     1      45.909   5.123   8.329  0.00  0.00    +0.000 OA
ATOM      9  C   UNL     1      45.657   3.935   8.526  0.00  0.00    +0.000 C 
ATOM     10  N   UNL     1      44.771   3.535   9.497  0.00  0.00    +0.000 N 
ATOM     11  H   UNL     1      44.671   2.545   9.688  0.00  0.00    +0.000 HD
BRANCH   9  12
ATOM     12  C   UNL     1      46.260   2.872   7.749  0.00  0.00    +0.000 A 
ATOM     13  C   UNL     1      46.764   2.891   6.461  0.00  0.00    +0.000 A 
ATOM     14  C   UNL     1      47.202   1.580   6.169  0.00  0.00    +0.000 A 
ATOM     15  C   UNL     1      46.943   0.834   7.295  0.00  0.00    +0.000 A 
ATOM     16  O   UNL     1      46.380   1.606   8.264  0.00  0.00    +0.000 OA
ENDBRANCH   9  12
ENDBRANCH   7  10
ENDBRANCH   1   7
BRANCH   4  17
ATOM     17  C   UNL     1      47.600   7.316  13.969  0.00  0.00    +0.000 C 
BRANCH  17  18
ATOM     18  N   UNL     1      48.132   6.492  15.023  0.00  0.00    +0.000 N 
ATOM     19  C   UNL     1      48.822   7.033  16.079  0.00  0.00    +0.000 C 
ATOM     20  O   UNL     1      48.966   8.245  16.208  0.00  0.00    +0.000 OA
ATOM     21  H   UNL     1      48.224   5.499  14.831  0.00  0.00    +0.000 HD
BRANCH  19  22
ATOM     22  C   UNL     1      49.330   6.086  17.080  0.00  0.00    +0.000 A 
ATOM     23  C   UNL     1      48.443   5.452  17.942  0.00  0.00    +0.000 A 
ATOM     24  S   UNL     1      49.193   4.349  19.005  0.00  0.00    +0.000 S 
ATOM     25  C   UNL     1      50.736   4.720  18.391  0.00  0.00    +0.000 A 
ATOM     26  N   UNL     1      51.853   4.128  18.895  0.00  0.00    +0.000 NA
ATOM     27  C   UNL     1      52.957   4.530  18.360  0.00  0.00    +0.000 A 
ATOM     28  N   UNL     1      53.047   5.464  17.361  0.00  0.00    +0.000 N 
ATOM     29  C   UNL     1      51.945   6.061  16.797  0.00  0.00    +0.000 A 
ATOM     30  O   UNL     1      52.054   6.853  15.866  0.00  0.00    +0.000 OA
ATOM     31  C   UNL     1      50.677   5.658  17.375  0.00  0.00    +0.000 A 
ATOM     32  H   UNL     1      53.942   5.726  16.976  0.00  0.00    +0.000 HD
ENDBRANCH  19  22
ENDBRANCH  17  18
ENDBRANCH   4  17
TORSDOF 6
ENDMDL
MODEL 7
REMARK VINA RESULT:    -6.824      4.795      9.390
REMARK INTER + INTRA:         -10.371
REMARK INTER:                  -9.288
REMARK INTRA:                  -1.083
REMARK UNBOUND:                -1.153
REMARK  Name = 
REMARK  6 active torsions:
REMARK  status: ('A' for Active; 'I' for Inactive)
REMARK    1  A    between atoms: C_2  and  C_25
REMARK    2  A    between atoms: N_3  and  C_4
REMARK    3  A    between atoms: C_4  and  C_5
REMARK    4  A    between atoms: C_8  and  C_9
REMARK    5  A    between atoms: C_9  and  N_10
REMARK    6  A    between atoms: C_11  and  C_13
REMARK                            x       y       z     vdW  Elec       q    Type
REMARK                         _______ _______ _______ _____ _____    ______ ____
ROOT
ATOM      1  C   UNL     1      51.279   2.966  17.779  0.00  0.00    +0.000 A 
ATOM      2  C   UNL     1      50.546   1.965  17.141  0.00  0.00    +0.000 A 
ATOM      3  C   UNL     1      49.203   2.191  16.841  0.00  0.00    +0.000 A 
ATOM      4  C   UNL     1      48.616   3.414  17.169  0.00  0.00    +0.000 A 
ATOM      5  C   UNL     1      49.417   4.346  17.818  0.00  0.00    +0.000 A 
ATOM      6  N   UNL     1      50.725   4.157  18.120  0.00  0.00    +0.000 NA
ENDROOT
BRANCH   1   7
ATOM      7  C   UNL     1      52.736   2.755  18.121  0.00  0.00    +0.000 C 
BRANCH   7  10
ATOM      8  O   UNL     1      54.572   1.124  16.804  0.00  0.00    +0.000 OA
ATOM      9  C   UNL     1      53.975   0.653  17.772  0.00  0.00    +0.000 C 
ATOM     10  N   UNL     1      53.051   1.384  18.477  0.00  0.00    +0.000 N 
ATOM     11  H   UNL     1      52.660   0.989  19.324  0.00  0.00    +0.000 HD
BRANCH   9  12
ATOM     12  C   UNL     1      54.190  -0.703  18.233  0.00  0.00    +0.000 A 
ATOM     13  C   UNL     1      55.118  -1.644  17.822  0.00  0.00    +0.000 A 
ATOM     14  C   UNL     1      54.874  -2.818  18.569  0.00  0.00    +0.000 A 
ATOM     15  C   UNL     1      53.814  -2.528  19.396  0.00  0.00    +0.000 A 
ATOM     16  O   UNL     1      53.395  -1.247  19.210  0.00  0.00    +0.000 OA
ENDBRANCH   9  12
ENDBRANCH   7  10
ENDBRANCH   1   7
BRANCH   4  17
ATOM     17  C   UNL     1      47.177   3.711  16.869  0.00  0.00    +0.000 C 
BRANCH  17  18
ATOM     18  N   UNL     1      47.044   4.700  15.831  0.00  0.00    +0.000 N 
ATOM     19  C   UNL     1      47.094   4.358  14.503  0.00  0.00    +0.000 C 
ATOM     20  O   UNL     1      47.193   3.190  14.136  0.00  0.00    +0.000 OA
ATOM     21  H   UNL     1      47.186   5.670  16.095  0.00  0.00    +0.000 HD
BRANCH  19  22
ATOM     22  C   UNL     1      46.962   5.458  13.540  0.00  0.00    +0.000 A 
ATOM     23  C   UNL     1      45.922   5.448  12.618  0.00  0.00    +0.000 A 
ATOM     24  S   UNL     1      45.887   6.824  11.611  0.00  0.00    +0.000 S 
ATOM     25  C   UNL     1      47.293   7.456  12.332  0.00  0.00    +0.000 A 
ATOM     26  N   UNL     1      47.831   8.632  11.907  0.00  0.00    +0.000 NA
ATOM     27  C   UNL     1      48.917   8.973  12.518  0.00  0.00    +0.000 A 
ATOM     28  N   UNL     1      49.509   8.250  13.520  0.00  0.00    +0.000 N 
ATOM     29  C   UNL     1      48.983   7.078  14.006  0.00  0.00    +0.000 A 
ATOM     30  O   UNL     1      49.507   6.481  14.941  0.00  0.00    +0.000 OA
ATOM     31  C   UNL     1      47.771   6.638  13.341  0.00  0.00    +0.000 A 
ATOM     32  H   UNL     1      50.352   8.579  13.967  0.00  0.00    +0.000 HD
ENDBRANCH  19  22
ENDBRANCH  17  18
ENDBRANCH   4  17
TORSDOF 6
ENDMDL
MODEL 8
REMARK VINA RESULT:    -6.760      3.277      8.555
REMARK INTER + INTRA:         -10.285
REMARK INTER:                  -9.424
REMARK INTRA:                  -0.861
REMARK UNBOUND:                -1.153
REMARK  Name = 
REMARK  6 active torsions:
REMARK  status: ('A' for Active; 'I' for Inactive)
REMARK    1  A    between atoms: C_2  and  C_25
REMARK    2  A    between atoms: N_3  and  C_4
REMARK    3  A    between atoms: C_4  and  C_5
REMARK    4  A    between atoms: C_8  and  C_9
REMARK    5  A    between atoms: C_9  and  N_10
REMARK    6  A    between atoms: C_11  and  C_13
REMARK                            x       y       z     vdW  Elec       q    Type
REMARK                         _______ _______ _______ _____ _____    ______ ____
ROOT
ATOM      1  C   UNL     1      49.547   7.078  15.866  0.00  0.00    +0.000 A 
ATOM      2  C   UNL     1      49.610   8.320  15.232  0.00  0.00    +0.000 A 
ATOM      3  C   UNL     1      48.877   8.525  14.063  0.00  0.00    +0.000 A 
ATOM      4  C   UNL     1      48.084   7.497  13.553  0.00  0.00    +0.000 A 
ATOM      5  C   UNL     1      48.096   6.289  14.241  0.00  0.00    +0.000 A 
ATOM      6  N   UNL     1      48.795   6.060  15.379  0.00  0.00    +0.000 NA
ENDROOT
BRANCH   1   7
ATOM      7  C   UNL     1      50.330   6.819  17.133  0.00  0.00    +0.000 C 
BRANCH   7  10
ATOM      8  O   UNL     1      49.420   4.538  18.449  0.00  0.00    +0.000 OA
ATOM      9  C   UNL     1      50.473   4.456  17.819  0.00  0.00    +0.000 C 
ATOM     10  N   UNL     1      50.997   5.531  17.144  0.00  0.00    +0.000 N 
ATOM     11  H   UNL     1      51.812   5.389  16.559  0.00  0.00    +0.000 HD
BRANCH   9  12
ATOM     12  C   UNL     1      51.244   3.231  17.748  0.00  0.00    +0.000 A 
ATOM     13  C   UNL     1      50.875   1.976  17.301  0.00  0.00    +0.000 A 
ATOM     14  C   UNL     1      51.990   1.128  17.482  0.00  0.00    +0.000 A 
ATOM     15  C   UNL     1      52.979   1.914  18.029  0.00  0.00    +0.000 A 
ATOM     16  O   UNL     1      52.543   3.193  18.187  0.00  0.00    +0.000 OA
ENDBRANCH   9  12
ENDBRANCH   7  10
ENDBRANCH   1   7
BRANCH   4  17
ATOM     17  C   UNL     1      47.275   7.662  12.302  0.00  0.00    +0.000 C 
BRANCH  17  18
ATOM     18  N   UNL     1      46.629   6.433  11.920  0.00  0.00    +0.000 N 
ATOM     19  C   UNL     1      45.268   6.357  11.762  0.00  0.00    +0.000 C 
ATOM     20  O   UNL     1      44.544   7.342  11.876  0.00  0.00    +0.000 OA
ATOM     21  H   UNL     1      47.160   5.576  12.038  0.00  0.00    +0.000 HD
BRANCH  19  22
ATOM     22  C   UNL     1      44.727   5.044  11.387  0.00  0.00    +0.000 A 
ATOM     23  C   UNL     1      43.936   4.341  12.288  0.00  0.00    +0.000 A 
ATOM     24  S   UNL     1      43.349   2.862  11.673  0.00  0.00    +0.000 S 
ATOM     25  C   UNL     1      44.177   3.080  10.203  0.00  0.00    +0.000 A 
ATOM     26  N   UNL     1      44.118   2.142   9.219  0.00  0.00    +0.000 NA
ATOM     27  C   UNL     1      44.823   2.421   8.174  0.00  0.00    +0.000 A 
ATOM     28  N   UNL     1      45.575   3.556   8.018  0.00  0.00    +0.000 N 
ATOM     29  C   UNL     1      45.635   4.547   8.968  0.00  0.00    +0.000 A 
ATOM     30  O   UNL     1      46.273   5.577   8.778  0.00  0.00    +0.000 OA
ATOM     31  C   UNL     1      44.875   4.275  10.174  0.00  0.00    +0.000 A 
ATOM     32  H   UNL     1      46.094   3.721   7.168  0.00  0.00    +0.000 HD
ENDBRANCH  19  22
ENDBRANCH  17  18
ENDBRANCH   4  17
TORSDOF 6
ENDMDL
MODEL 9
REMARK VINA RESULT:    -6.627      4.087      8.428
REMARK INTER + INTRA:         -10.105
REMARK INTER:                  -9.018
REMARK INTRA:                  -1.086
REMARK UNBOUND:                -1.153
REMARK  Name = 
REMARK  6 active torsions:
REMARK  status: ('A' for Active; 'I' for Inactive)
REMARK    1  A    between atoms: C_2  and  C_25
REMARK    2  A    between atoms: N_3  and  C_4
REMARK    3  A    between atoms: C_4  and  C_5
REMARK    4  A    between atoms: C_8  and  C_9
REMARK    5  A    between atoms: C_9  and  N_10
REMARK    6  A    between atoms: C_11  and  C_13
REMARK                            x       y       z     vdW  Elec       q    Type
REMARK                         _______ _______ _______ _____ _____    ______ ____
ROOT
ATOM      1  C   UNL     1      49.801   4.463  17.606  0.00  0.00    +0.000 A 
ATOM      2  C   UNL     1      48.501   4.254  17.146  0.00  0.00    +0.000 A 
ATOM      3  C   UNL     1      47.979   5.103  16.170  0.00  0.00    +0.000 A 
ATOM      4  C   UNL     1      48.765   6.136  15.659  0.00  0.00    +0.000 A 
ATOM      5  C   UNL     1      50.043   6.280  16.188  0.00  0.00    +0.000 A 
ATOM      6  N   UNL     1      50.578   5.470  17.134  0.00  0.00    +0.000 NA
ENDROOT
BRANCH   1   7
ATOM      7  C   UNL     1      50.398   3.563  18.665  0.00  0.00    +0.000 C 
BRANCH   7  10
ATOM      8  O   UNL     1      50.972   1.171  17.356  0.00  0.00    +0.000 OA
ATOM      9  C   UNL     1      51.917   1.890  17.679  0.00  0.00    +0.000 C 
ATOM     10  N   UNL     1      51.726   3.083  18.330  0.00  0.00    +0.000 N 
ATOM     11  H   UNL     1      52.525   3.687  18.487  0.00  0.00    +0.000 HD
BRANCH   9  12
ATOM     12  C   UNL     1      53.294   1.532  17.410  0.00  0.00    +0.000 A 
ATOM     13  C   UNL     1      54.447   2.286  17.536  0.00  0.00    +0.000 A 
ATOM     14  C   UNL     1      55.521   1.474  17.108  0.00  0.00    +0.000 A 
ATOM     15  C   UNL     1      54.964   0.269  16.746  0.00  0.00    +0.000 A 
ATOM     16  O   UNL     1      53.616   0.287  16.933  0.00  0.00    +0.000 OA
ENDBRANCH   9  12
ENDBRANCH   7  10
ENDBRANCH   1   7
BRANCH   4  17
ATOM     17  C   UNL     1      48.257   7.078  14.609  0.00  0.00    +0.000 C 
BRANCH  17  18
ATOM     18  N   UNL     1      47.039   6.597  14.008  0.00  0.00    +0.000 N 
ATOM     19  C   UNL     1      46.805   6.724  12.662  0.00  0.00    +0.000 C 
ATOM     20  O   UNL     1      47.642   7.195  11.898  0.00  0.00    +0.000 OA
ATOM     21  H   UNL     1      46.257   6.417  14.630  0.00  0.00    +0.000 HD
BRANCH  19  22
ATOM     22  C   UNL     1      45.519   6.210  12.173  0.00  0.00    +0.000 A 
ATOM     23  C   UNL     1      44.604   7.080  11.592  0.00  0.00    +0.000 A 
ATOM     24  S   UNL     1      43.188   6.310  11.032  0.00  0.00    +0.000 S 
ATOM     25  C   UNL     1      43.722   4.796  11.598  0.00  0.00    +0.000 A 
ATOM     26  N   UNL     1      42.950   3.684  11.457  0.00  0.00    +0.000 NA
ATOM     27  C   UNL     1      43.463   2.612  11.963  0.00  0.00    +0.000 A 
ATOM     28  N   UNL     1      44.680   2.549  12.590  0.00  0.00    +0.000 N 
ATOM     29  C   UNL     1      45.508   3.637  12.722  0.00  0.00    +0.000 A 
ATOM     30  O   UNL     1      46.616   3.537  13.240  0.00  0.00    +0.000 OA
ATOM     31  C   UNL     1      44.972   4.874  12.187  0.00  0.00    +0.000 A 
ATOM     32  H   UNL     1      45.030   1.675  12.953  0.00  0.00    +0.000 HD
ENDBRANCH  19  22
ENDBRANCH  17  18
ENDBRANCH   4  17
TORSDOF 6
ENDMDL
