MODEL 1
REMARK VINA RESULT:    -8.516      0.000      0.000
REMARK INTER + INTRA:         -13.106
REMARK INTER:                 -12.000
REMARK INTRA:                  -1.106
REMARK UNBOUND:                -1.106
REMARK  Name = 
REMARK  8 active torsions:
REMARK  status: ('A' for Active; 'I' for Inactive)
REMARK    1  A    between atoms: C_1  and  O_2
REMARK    2  A    between atoms: O_2  and  C_3
REMARK    3  A    between atoms: C_10  and  C_11
REMARK    4  A    between atoms: N_13  and  C_14
REMARK    5  A    between atoms: C_14  and  C_15
REMARK    6  A    between atoms: C_18  and  S_19
REMARK    7  A    between atoms: S_19  and  C_20
REMARK    8  A    between atoms: C_20  and  C_21
REMARK                            x       y       z     vdW  Elec       q    Type
REMARK                         _______ _______ _______ _____ _____    ______ ____
ROOT
ATOM      1  C   UNL     1      48.017   7.295  13.494  0.00  0.00    +0.000 C 
ENDROOT
BRANCH   1   2
ATOM      2  C   UNL     1      47.016   6.395  12.816  0.00  0.00    +0.000 A 
ATOM      3  C   UNL     1      46.519   6.698  11.541  0.00  0.00    +0.000 A 
ATOM      4  C   UNL     1      45.683   5.797  10.865  0.00  0.00    +0.000 A 
ATOM      5  C   UNL     1      45.328   4.577  11.446  0.00  0.00    +0.000 A 
ATOM      6  C   UNL     1      45.760   4.312  12.752  0.00  0.00    +0.000 A 
ATOM      7  C   UNL     1      46.591   5.212  13.432  0.00  0.00    +0.000 A 
BRANCH   5   8
ATOM      8  S   UNL     1      44.307   3.350  10.629  0.00  0.00    +0.000 S 
BRANCH   8   9
ATOM      9  C   UNL     1      44.479   3.814   8.871  0.00  0.00    +0.000 C 
BRANCH   9  10
ATOM     10  C   UNL     1      45.560   3.023   8.167  0.00  0.00    +0.000 A 
ATOM     11  C   UNL     1      46.491   3.672   7.339  0.00  0.00    +0.000 A 
ATOM     12  C   UNL     1      47.526   2.960   6.725  0.00  0.00    +0.000 A 
ATOM     13  C   UNL     1      47.641   1.587   6.926  0.00  0.00    +0.000 A 
ATOM     14  C   UNL     1      46.712   0.937   7.727  0.00  0.00    +0.000 A 
ATOM     15  F   UNL     1      46.821  -0.385   7.919  0.00  0.00    +0.000 F 
ATOM     16  C   UNL     1      45.673   1.636   8.341  0.00  0.00    +0.000 A 
ENDBRANCH   9  10
ENDBRANCH   8   9
ENDBRANCH   5   8
ENDBRANCH   1   2
BRANCH   1  19
ATOM     17  C   UNL     1      48.987   6.983  15.712  0.00  0.00    +0.000 C 
ATOM     18  O   UNL     1      50.066   6.691  15.203  0.00  0.00    +0.000 OA
ATOM     19  N   UNL     1      47.903   7.297  14.931  0.00  0.00    +0.000 N 
ATOM     20  H   UNL     1      47.015   7.540  15.348  0.00  0.00    +0.000 HD
BRANCH  17  28
ATOM     21  C   UNL     1      48.918   4.540  18.148  0.00  0.00    +0.000 A 
ATOM     22  N   UNL     1      48.807   3.810  19.277  0.00  0.00    +0.000 NA
ATOM     23  C   UNL     1      48.593   4.454  20.426  0.00  0.00    +0.000 A 
ATOM     24  N   UNL     1      48.476   5.767  20.597  0.00  0.00    +0.000 NA
ATOM     25  C   UNL     1      48.577   6.456  19.448  0.00  0.00    +0.000 A 
ATOM     26  S   UNL     1      48.459   8.149  19.479  0.00  0.00    +0.000 S 
ATOM     27  C   UNL     1      48.660   8.242  17.796  0.00  0.00    +0.000 A 
ATOM     28  C   UNL     1      48.818   7.006  17.175  0.00  0.00    +0.000 A 
ATOM     29  C   UNL     1      48.783   5.939  18.171  0.00  0.00    +0.000 A 
BRANCH  21  31
ATOM     30  C   UNL     1      47.949   3.369  16.376  0.00  0.00    +0.000 C 
ATOM     31  O   UNL     1      49.150   3.871  16.964  0.00  0.00    +0.000 OA
ENDBRANCH  21  31
ENDBRANCH  17  28
ENDBRANCH   1  19
TORSDOF 7
ENDMDL
MODEL 2
REMARK VINA RESULT:    -8.147      1.665      2.771
REMARK INTER + INTRA:         -12.586
REMARK INTER:                 -11.296
REMARK INTRA:                  -1.290
REMARK UNBOUND:                -1.106
REMARK  Name = 
REMARK  8 active torsions:
REMARK  status: ('A' for Active; 'I' for Inactive)
REMARK    1  A    between atoms: C_1  and  O_2
REMARK    2  A    between atoms: O_2  and  C_3
REMARK    3  A    between atoms: C_10  and  C_11
REMARK    4  A    between atoms: N_13  and  C_14
REMARK    5  A    between atoms: C_14  and  C_15
REMARK    6  A    between atoms: C_18  and  S_19
REMARK    7  A    between atoms: S_19  and  C_20
REMARK    8  A    between atoms: C_20  and  C_21
REMARK                            x       y       z     vdW  Elec       q    Type
REMARK                         _______ _______ _______ _____ _____    ______ ____
ROOT
ATOM      1  C   UNL     1      48.554   6.694  14.078  0.00  0.00    +0.000 C 
ENDROOT
BRANCH   1   2
ATOM      2  C   UNL     1      47.463   6.151  13.190  0.00  0.00    +0.000 A 
ATOM      3  C   UNL     1      46.702   5.040  13.579  0.00  0.00    +0.000 A 
ATOM      4  C   UNL     1      45.610   4.613  12.809  0.00  0.00    +0.000 A 
ATOM      5  C   UNL     1      45.255   5.288  11.637  0.00  0.00    +0.000 A 
ATOM      6  C   UNL     1      46.065   6.347  11.209  0.00  0.00    +0.000 A 
ATOM      7  C   UNL     1      47.159   6.773  11.974  0.00  0.00    +0.000 A 
BRANCH   5   8
ATOM      8  S   UNL     1      43.846   4.840  10.624  0.00  0.00    +0.000 S 
BRANCH   8   9
ATOM      9  C   UNL     1      44.171   3.078  10.268  0.00  0.00    +0.000 C 
BRANCH   9  10
ATOM     10  C   UNL     1      45.116   2.889   9.102  0.00  0.00    +0.000 A 
ATOM     11  C   UNL     1      45.531   3.991   8.335  0.00  0.00    +0.000 A 
ATOM     12  C   UNL     1      46.445   3.836   7.288  0.00  0.00    +0.000 A 
ATOM     13  C   UNL     1      46.954   2.576   6.990  0.00  0.00    +0.000 A 
ATOM     14  C   UNL     1      46.533   1.479   7.731  0.00  0.00    +0.000 A 
ATOM     15  F   UNL     1      47.021   0.265   7.443  0.00  0.00    +0.000 F 
ATOM     16  C   UNL     1      45.619   1.621   8.775  0.00  0.00    +0.000 A 
ENDBRANCH   9  10
ENDBRANCH   8   9
ENDBRANCH   5   8
ENDBRANCH   1   2
BRANCH   1  19
ATOM     17  C   UNL     1      49.057   6.343  16.440  0.00  0.00    +0.000 C 
ATOM     18  O   UNL     1      50.167   5.910  16.142  0.00  0.00    +0.000 OA
ATOM     19  N   UNL     1      48.181   6.757  15.469  0.00  0.00    +0.000 N 
ATOM     20  H   UNL     1      47.268   7.116  15.711  0.00  0.00    +0.000 HD
BRANCH  17  28
ATOM     21  C   UNL     1      47.728   8.876  18.371  0.00  0.00    +0.000 A 
ATOM     22  N   UNL     1      47.252   9.673  19.349  0.00  0.00    +0.000 NA
ATOM     23  C   UNL     1      47.097   9.152  20.568  0.00  0.00    +0.000 A 
ATOM     24  N   UNL     1      47.359   7.904  20.943  0.00  0.00    +0.000 NA
ATOM     25  C   UNL     1      47.844   7.147  19.945  0.00  0.00    +0.000 A 
ATOM     26  S   UNL     1      48.228   5.521  20.243  0.00  0.00    +0.000 S 
ATOM     27  C   UNL     1      48.735   5.296  18.639  0.00  0.00    +0.000 A 
ATOM     28  C   UNL     1      48.629   6.435  17.846  0.00  0.00    +0.000 A 
ATOM     29  C   UNL     1      48.080   7.539  18.630  0.00  0.00    +0.000 A 
BRANCH  21  31
ATOM     30  C   UNL     1      49.135  10.071  16.942  0.00  0.00    +0.000 C 
ATOM     31  O   UNL     1      47.878   9.415  17.110  0.00  0.00    +0.000 OA
ENDBRANCH  21  31
ENDBRANCH  17  28
ENDBRANCH   1  19
TORSDOF 7
ENDMDL
MODEL 3
REMARK VINA RESULT:    -8.121      1.739      1.999
REMARK INTER + INTRA:         -12.550
REMARK INTER:                 -11.386
REMARK INTRA:                  -1.164
REMARK UNBOUND:                -1.106
REMARK  Name = 
REMARK  8 active torsions:
REMARK  status: ('A' for Active; 'I' for Inactive)
REMARK    1  A    between atoms: C_1  and  O_2
REMARK    2  A    between atoms: O_2  and  C_3
REMARK    3  A    between atoms: C_10  and  C_11
REMARK    4  A    between atoms: N_13  and  C_14
REMARK    5  A    between atoms: C_14  and  C_15
REMARK    6  A    between atoms: C_18  and  S_19
REMARK    7  A    between atoms: S_19  and  C_20
REMARK    8  A    between atoms: C_20  and  C_21
REMARK                            x       y       z     vdW  Elec       q    Type
REMARK                         _______ _______ _______ _____ _____    ______ ____
ROOT
ATOM      1  C   UNL     1      47.506   7.594  13.630  0.00  0.00    +0.000 C 
ENDROOT
BRANCH   1   2
ATOM      2  C   UNL     1      46.618   6.625  12.892  0.00  0.00    +0.000 A 
ATOM      3  C   UNL     1      46.154   6.911  11.601  0.00  0.00    +0.000 A 
ATOM      4  C   UNL     1      45.430   5.956  10.871  0.00  0.00    +0.000 A 
ATOM      5  C   UNL     1      45.158   4.697  11.414  0.00  0.00    +0.000 A 
ATOM      6  C   UNL     1      45.553   4.444  12.734  0.00  0.00    +0.000 A 
ATOM      7  C   UNL     1      46.271   5.397  13.467  0.00  0.00    +0.000 A 
BRANCH   5   8
ATOM      8  S   UNL     1      44.286   3.405  10.530  0.00  0.00    +0.000 S 
BRANCH   8   9
ATOM      9  C   UNL     1      44.529   3.897   8.788  0.00  0.00    +0.000 C 
BRANCH   9  10
ATOM     10  C   UNL     1      45.582   3.062   8.093  0.00  0.00    +0.000 A 
ATOM     11  C   UNL     1      46.491   3.661   7.204  0.00  0.00    +0.000 A 
ATOM     12  C   UNL     1      47.502   2.909   6.595  0.00  0.00    +0.000 A 
ATOM     13  C   UNL     1      47.615   1.549   6.864  0.00  0.00    +0.000 A 
ATOM     14  C   UNL     1      46.707   0.947   7.726  0.00  0.00    +0.000 A 
ATOM     15  F   UNL     1      46.815  -0.363   7.983  0.00  0.00    +0.000 F 
ATOM     16  C   UNL     1      45.693   1.685   8.335  0.00  0.00    +0.000 A 
ENDBRANCH   9  10
ENDBRANCH   8   9
ENDBRANCH   5   8
ENDBRANCH   1   2
BRANCH   1  19
ATOM     17  C   UNL     1      49.506   7.701  15.024  0.00  0.00    +0.000 C 
ATOM     18  O   UNL     1      49.480   8.928  14.975  0.00  0.00    +0.000 OA
ATOM     19  N   UNL     1      48.558   6.950  14.377  0.00  0.00    +0.000 N 
ATOM     20  H   UNL     1      48.576   5.941  14.418  0.00  0.00    +0.000 HD
BRANCH  17  28
ATOM     21  C   UNL     1      49.479   5.069  17.256  0.00  0.00    +0.000 A 
ATOM     22  N   UNL     1      49.754   4.113  18.167  0.00  0.00    +0.000 NA
ATOM     23  C   UNL     1      51.026   3.941  18.536  0.00  0.00    +0.000 A 
ATOM     24  N   UNL     1      52.083   4.617  18.098  0.00  0.00    +0.000 NA
ATOM     25  C   UNL     1      51.765   5.569  17.205  0.00  0.00    +0.000 A 
ATOM     26  S   UNL     1      52.995   6.526  16.533  0.00  0.00    +0.000 S 
ATOM     27  C   UNL     1      51.875   7.399  15.605  0.00  0.00    +0.000 A 
ATOM     28  C   UNL     1      50.555   6.993  15.779  0.00  0.00    +0.000 A 
ATOM     29  C   UNL     1      50.496   5.885  16.728  0.00  0.00    +0.000 A 
BRANCH  21  31
ATOM     30  C   UNL     1      47.476   3.994  16.724  0.00  0.00    +0.000 C 
ATOM     31  O   UNL     1      48.166   5.236  16.869  0.00  0.00    +0.000 OA
ENDBRANCH  21  31
ENDBRANCH  17  28
ENDBRANCH   1  19
TORSDOF 7
ENDMDL
MODEL 4
REMARK VINA RESULT:    -7.827      1.360      1.809
REMARK INTER + INTRA:         -12.135
REMARK INTER:                 -10.856
REMARK INTRA:                  -1.279
REMARK UNBOUND:                -1.106
REMARK  Name = 
REMARK  8 active torsions:
REMARK  status: ('A' for Active; 'I' for Inactive)
REMARK    1  A    between atoms: C_1  and  O_2
REMARK    2  A    between atoms: O_2  and  C_3
REMARK    3  A    between atoms: C_10  and  C_11
REMARK    4  A    between atoms: N_13  and  C_14
REMARK    5  A    between atoms: C_14  and  C_15
REMARK    6  A    between atoms: C_18  and  S_19
REMARK    7  A    between atoms: S_19  and  C_20
REMARK    8  A    between atoms: C_20  and  C_21
REMARK                            x       y       z     vdW  Elec       q    Type
REMARK                         _______ _______ _______ _____ _____    ______ ____
ROOT
ATOM      1  C   UNL     1      48.216   7.335  13.820  0.00  0.00    +0.000 C 
ENDROOT
BRANCH   1   2
ATOM      2  C   UNL     1      47.321   6.290  13.203  0.00  0.00    +0.000 A 
ATOM      3  C   UNL     1      47.225   5.005  13.755  0.00  0.00    +0.000 A 
ATOM      4  C   UNL     1      46.302   4.076  13.252  0.00  0.00    +0.000 A 
ATOM      5  C   UNL     1      45.457   4.411  12.190  0.00  0.00    +0.000 A 
ATOM      6  C   UNL     1      45.611   5.666  11.589  0.00  0.00    +0.000 A 
ATOM      7  C   UNL     1      46.535   6.595  12.086  0.00  0.00    +0.000 A 
BRANCH   5   8
ATOM      8  S   UNL     1      44.217   3.301  11.523  0.00  0.00    +0.000 S 
BRANCH   8   9
ATOM      9  C   UNL     1      44.042   3.905   9.808  0.00  0.00    +0.000 C 
BRANCH   9  10
ATOM     10  C   UNL     1      45.063   3.293   8.873  0.00  0.00    +0.000 A 
ATOM     11  C   UNL     1      45.816   4.109   8.011  0.00  0.00    +0.000 A 
ATOM     12  C   UNL     1      46.798   3.562   7.180  0.00  0.00    +0.000 A 
ATOM     13  C   UNL     1      47.039   2.191   7.195  0.00  0.00    +0.000 A 
ATOM     14  C   UNL     1      46.284   1.377   8.030  0.00  0.00    +0.000 A 
ATOM     15  F   UNL     1      46.514   0.057   8.044  0.00  0.00    +0.000 F 
ATOM     16  C   UNL     1      45.299   1.911   8.860  0.00  0.00    +0.000 A 
ENDBRANCH   9  10
ENDBRANCH   8   9
ENDBRANCH   5   8
ENDBRANCH   1   2
BRANCH   1  19
ATOM     17  C   UNL     1      48.621   8.549  15.898  0.00  0.00    +0.000 C 
ATOM     18  O   UNL     1      49.505   9.201  15.349  0.00  0.00    +0.000 OA
ATOM     19  N   UNL     1      47.923   7.589  15.208  0.00  0.00    +0.000 N 
ATOM     20  H   UNL     1      47.194   7.054  15.657  0.00  0.00    +0.000 HD
BRANCH  17  28
ATOM     21  C   UNL     1      48.073   6.455  18.586  0.00  0.00    +0.000 A 
ATOM     22  N   UNL     1      47.772   5.887  19.772  0.00  0.00    +0.000 NA
ATOM     23  C   UNL     1      47.467   6.688  20.795  0.00  0.00    +0.000 A 
ATOM     24  N   UNL     1      47.429   8.016  20.787  0.00  0.00    +0.000 NA
ATOM     25  C   UNL     1      47.720   8.542  19.585  0.00  0.00    +0.000 A 
ATOM     26  S   UNL     1      47.726  10.228  19.392  0.00  0.00    +0.000 S 
ATOM     27  C   UNL     1      48.137  10.087  17.751  0.00  0.00    +0.000 A 
ATOM     28  C   UNL     1      48.277   8.774  17.313  0.00  0.00    +0.000 A 
ATOM     29  C   UNL     1      48.042   7.851  18.419  0.00  0.00    +0.000 A 
BRANCH  21  31
ATOM     30  C   UNL     1      49.792   5.319  17.487  0.00  0.00    +0.000 C 
ATOM     31  O   UNL     1      48.397   5.625  17.533  0.00  0.00    +0.000 OA
ENDBRANCH  21  31
ENDBRANCH  17  28
ENDBRANCH   1  19
TORSDOF 7
ENDMDL
MODEL 5
REMARK VINA RESULT:    -7.542      1.926      2.804
REMARK INTER + INTRA:         -11.733
REMARK INTER:                 -10.480
REMARK INTRA:                  -1.254
REMARK UNBOUND:                -1.106
REMARK  Name = 
REMARK  8 active torsions:
REMARK  status: ('A' for Active; 'I' for Inactive)
REMARK    1  A    between atoms: C_1  and  O_2
REMARK    2  A    between atoms: O_2  and  C_3
REMARK    3  A    between atoms: C_10  and  C_11
REMARK    4  A    between atoms: N_13  and  C_14
REMARK    5  A    between atoms: C_14  and  C_15
REMARK    6  A    between atoms: C_18  and  S_19
REMARK    7  A    between atoms: S_19  and  C_20
REMARK    8  A    between atoms: C_20  and  C_21
REMARK                            x       y       z     vdW  Elec       q    Type
REMARK                         _______ _______ _______ _____ _____    ______ ____
ROOT
ATOM      1  C   UNL     1      47.790   4.783  15.380  0.00  0.00    +0.000 C 
ENDROOT
BRANCH   1   2
ATOM      2  C   UNL     1      46.997   4.760  14.099  0.00  0.00    +0.000 A 
ATOM      3  C   UNL     1      46.482   3.559  13.590  0.00  0.00    +0.000 A 
ATOM      4  C   UNL     1      45.644   3.558  12.464  0.00  0.00    +0.000 A 
ATOM      5  C   UNL     1      45.302   4.755  11.827  0.00  0.00    +0.000 A 
ATOM      6  C   UNL     1      45.881   5.943  12.289  0.00  0.00    +0.000 A 
ATOM      7  C   UNL     1      46.722   5.946  13.409  0.00  0.00    +0.000 A 
BRANCH   5   8
ATOM      8  S   UNL     1      44.198   4.845  10.418  0.00  0.00    +0.000 S 
BRANCH   8   9
ATOM      9  C   UNL     1      44.139   3.107   9.861  0.00  0.00    +0.000 C 
BRANCH   9  10
ATOM     10  C   UNL     1      45.180   2.803   8.804  0.00  0.00    +0.000 A 
ATOM     11  C   UNL     1      45.693   3.830   7.994  0.00  0.00    +0.000 A 
ATOM     12  C   UNL     1      46.692   3.571   7.051  0.00  0.00    +0.000 A 
ATOM     13  C   UNL     1      47.189   2.280   6.901  0.00  0.00    +0.000 A 
ATOM     14  C   UNL     1      46.672   1.256   7.685  0.00  0.00    +0.000 A 
ATOM     15  F   UNL     1      47.150   0.013   7.540  0.00  0.00    +0.000 F 
ATOM     16  C   UNL     1      45.673   1.502   8.626  0.00  0.00    +0.000 A 
ENDBRANCH   9  10
ENDBRANCH   8   9
ENDBRANCH   5   8
ENDBRANCH   1   2
BRANCH   1  19
ATOM     17  C   UNL     1      49.132   6.647  16.206  0.00  0.00    +0.000 C 
ATOM     18  O   UNL     1      50.159   6.029  15.941  0.00  0.00    +0.000 OA
ATOM     19  N   UNL     1      47.898   6.098  15.961  0.00  0.00    +0.000 N 
ATOM     20  H   UNL     1      47.051   6.606  16.175  0.00  0.00    +0.000 HD
BRANCH  17  28
ATOM     21  C   UNL     1      47.650   8.118  18.954  0.00  0.00    +0.000 A 
ATOM     22  N   UNL     1      47.187   8.944  19.915  0.00  0.00    +0.000 NA
ATOM     23  C   UNL     1      47.606  10.211  19.914  0.00  0.00    +0.000 A 
ATOM     24  N   UNL     1      48.453  10.772  19.056  0.00  0.00    +0.000 NA
ATOM     25  C   UNL     1      48.879   9.922  18.107  0.00  0.00    +0.000 A 
ATOM     26  S   UNL     1      49.973  10.467  16.930  0.00  0.00    +0.000 S 
ATOM     27  C   UNL     1      49.999   8.946  16.179  0.00  0.00    +0.000 A 
ATOM     28  C   UNL     1      49.186   7.997  16.793  0.00  0.00    +0.000 A 
ATOM     29  C   UNL     1      48.529   8.582  17.958  0.00  0.00    +0.000 A 
BRANCH  21  31
ATOM     30  C   UNL     1      47.805   6.051  20.026  0.00  0.00    +0.000 C 
ATOM     31  O   UNL     1      47.223   6.807  18.964  0.00  0.00    +0.000 OA
ENDBRANCH  21  31
ENDBRANCH  17  28
ENDBRANCH   1  19
TORSDOF 7
ENDMDL
MODEL 6
REMARK VINA RESULT:    -7.508      2.309      4.097
REMARK INTER + INTRA:         -11.686
REMARK INTER:                 -10.406
REMARK INTRA:                  -1.280
REMARK UNBOUND:                -1.106
REMARK  Name = 
REMARK  8 active torsions:
REMARK  status: ('A' for Active; 'I' for Inactive)
REMARK    1  A    between atoms: C_1  and  O_2
REMARK    2  A    between atoms: O_2  and  C_3
REMARK    3  A    between atoms: C_10  and  C_11
REMARK    4  A    between atoms: N_13  and  C_14
REMARK    5  A    between atoms: C_14  and  C_15
REMARK    6  A    between atoms: C_18  and  S_19
REMARK    7  A    between atoms: S_19  and  C_20
REMARK    8  A    between atoms: C_20  and  C_21
REMARK                            x       y       z     vdW  Elec       q    Type
REMARK                         _______ _______ _______ _____ _____    ______ ____
ROOT
ATOM      1  C   UNL     1      47.299   5.067  15.202  0.00  0.00    +0.000 C 
ENDROOT
BRANCH   1   2
ATOM      2  C   UNL     1      46.582   4.710  13.925  0.00  0.00    +0.000 A 
ATOM      3  C   UNL     1      46.506   3.381  13.486  0.00  0.00    +0.000 A 
ATOM      4  C   UNL     1      45.736   3.038  12.365  0.00  0.00    +0.000 A 
ATOM      5  C   UNL     1      45.025   4.015  11.661  0.00  0.00    +0.000 A 
ATOM      6  C   UNL     1      45.167   5.352  12.053  0.00  0.00    +0.000 A 
ATOM      7  C   UNL     1      45.939   5.697  13.169  0.00  0.00    +0.000 A 
BRANCH   5   8
ATOM      8  S   UNL     1      43.979   3.654  10.251  0.00  0.00    +0.000 S 
BRANCH   8   9
ATOM      9  C   UNL     1      44.927   4.384   8.870  0.00  0.00    +0.000 C 
BRANCH   9  10
ATOM     10  C   UNL     1      45.792   3.365   8.159  0.00  0.00    +0.000 A 
ATOM     11  C   UNL     1      46.733   3.777   7.201  0.00  0.00    +0.000 A 
ATOM     12  C   UNL     1      47.574   2.850   6.576  0.00  0.00    +0.000 A 
ATOM     13  C   UNL     1      47.483   1.499   6.897  0.00  0.00    +0.000 A 
ATOM     14  C   UNL     1      46.540   1.084   7.829  0.00  0.00    +0.000 A 
ATOM     15  F   UNL     1      46.451  -0.217   8.138  0.00  0.00    +0.000 F 
ATOM     16  C   UNL     1      45.694   1.998   8.456  0.00  0.00    +0.000 A 
ENDBRANCH   9  10
ENDBRANCH   8   9
ENDBRANCH   5   8
ENDBRANCH   1   2
BRANCH   1  19
ATOM     17  C   UNL     1      49.161   6.531  15.789  0.00  0.00    +0.000 C 
ATOM     18  O   UNL     1      49.682   5.618  16.426  0.00  0.00    +0.000 OA
ATOM     19  N   UNL     1      47.964   6.344  15.145  0.00  0.00    +0.000 N 
ATOM     20  H   UNL     1      47.535   7.093  14.618  0.00  0.00    +0.000 HD
BRANCH  17  28
ATOM     21  C   UNL     1      50.201   8.495  13.149  0.00  0.00    +0.000 A 
ATOM     22  N   UNL     1      50.730   9.429  12.332  0.00  0.00    +0.000 NA
ATOM     23  C   UNL     1      51.267  10.519  12.885  0.00  0.00    +0.000 A 
ATOM     24  N   UNL     1      51.343  10.803  14.181  0.00  0.00    +0.000 NA
ATOM     25  C   UNL     1      50.820   9.842  14.961  0.00  0.00    +0.000 A 
ATOM     26  S   UNL     1      50.825  10.042  16.646  0.00  0.00    +0.000 S 
ATOM     27  C   UNL     1      50.072   8.538  16.875  0.00  0.00    +0.000 A 
ATOM     28  C   UNL     1      49.803   7.853  15.693  0.00  0.00    +0.000 A 
ATOM     29  C   UNL     1      50.239   8.646  14.547  0.00  0.00    +0.000 A 
BRANCH  21  31
ATOM     30  C   UNL     1      48.574   7.698  11.677  0.00  0.00    +0.000 C 
ATOM     31  O   UNL     1      49.637   7.375  12.574  0.00  0.00    +0.000 OA
ENDBRANCH  21  31
ENDBRANCH  17  28
ENDBRANCH   1  19
TORSDOF 7
ENDMDL
MODEL 7
REMARK VINA RESULT:    -7.506      1.527      2.752
REMARK INTER + INTRA:         -11.684
REMARK INTER:                 -10.494
REMARK INTRA:                  -1.190
REMARK UNBOUND:                -1.106
REMARK  Name = 
REMARK  8 active torsions:
REMARK  status: ('A' for Active; 'I' for Inactive)
REMARK    1  A    between atoms: C_1  and  O_2
REMARK    2  A    between atoms: O_2  and  C_3
REMARK    3  A    between atoms: C_10  and  C_11
REMARK    4  A    between atoms: N_13  and  C_14
REMARK    5  A    between atoms: C_14  and  C_15
REMARK    6  A    between atoms: C_18  and  S_19
REMARK    7  A    between atoms: S_19  and  C_20
REMARK    8  A    between atoms: C_20  and  C_21
REMARK                            x       y       z     vdW  Elec       q    Type
REMARK                         _______ _______ _______ _____ _____    ______ ____
ROOT
ATOM      1  C   UNL     1      47.146   3.997  15.272  0.00  0.00    +0.000 C 
ENDROOT
BRANCH   1   2
ATOM      2  C   UNL     1      46.565   4.390  13.938  0.00  0.00    +0.000 A 
ATOM      3  C   UNL     1      46.827   5.647  13.378  0.00  0.00    +0.000 A 
ATOM      4  C   UNL     1      46.386   5.963  12.084  0.00  0.00    +0.000 A 
ATOM      5  C   UNL     1      45.676   5.029  11.324  0.00  0.00    +0.000 A 
ATOM      6  C   UNL     1      45.346   3.803  11.916  0.00  0.00    +0.000 A 
ATOM      7  C   UNL     1      45.781   3.487  13.209  0.00  0.00    +0.000 A 
BRANCH   5   8
ATOM      8  S   UNL     1      45.122   5.333   9.647  0.00  0.00    +0.000 S 
BRANCH   8   9
ATOM      9  C   UNL     1      44.530   3.684   9.130  0.00  0.00    +0.000 C 
BRANCH   9  10
ATOM     10  C   UNL     1      45.563   2.924   8.327  0.00  0.00    +0.000 A 
ATOM     11  C   UNL     1      46.457   3.610   7.488  0.00  0.00    +0.000 A 
ATOM     12  C   UNL     1      47.450   2.923   6.781  0.00  0.00    +0.000 A 
ATOM     13  C   UNL     1      47.559   1.541   6.901  0.00  0.00    +0.000 A 
ATOM     14  C   UNL     1      46.666   0.855   7.714  0.00  0.00    +0.000 A 
ATOM     15  F   UNL     1      46.770  -0.476   7.828  0.00  0.00    +0.000 F 
ATOM     16  C   UNL     1      45.669   1.529   8.420  0.00  0.00    +0.000 A 
ENDBRANCH   9  10
ENDBRANCH   8   9
ENDBRANCH   5   8
ENDBRANCH   1   2
BRANCH   1  19
ATOM     17  C   UNL     1      47.791   4.981  17.411  0.00  0.00    +0.000 C 
ATOM     18  O   UNL     1      47.626   3.896  17.964  0.00  0.00    +0.000 OA
ATOM     19  N   UNL     1      47.571   5.124  16.064  0.00  0.00    +0.000 N 
ATOM     20  H   UNL     1      47.709   6.015  15.607  0.00  0.00    +0.000 HD
BRANCH  17  28
ATOM     21  C   UNL     1      49.917   7.610  16.721  0.00  0.00    +0.000 A 
ATOM     22  N   UNL     1      50.709   8.702  16.740  0.00  0.00    +0.000 NA
ATOM     23  C   UNL     1      50.726   9.450  17.845  0.00  0.00    +0.000 A 
ATOM     24  N   UNL     1      50.031   9.245  18.960  0.00  0.00    +0.000 NA
ATOM     25  C   UNL     1      49.267   8.141  18.906  0.00  0.00    +0.000 A 
ATOM     26  S   UNL     1      48.305   7.729  20.242  0.00  0.00    +0.000 S 
ATOM     27  C   UNL     1      47.718   6.345  19.453  0.00  0.00    +0.000 A 
ATOM     28  C   UNL     1      48.231   6.162  18.172  0.00  0.00    +0.000 A 
ATOM     29  C   UNL     1      49.148   7.250  17.843  0.00  0.00    +0.000 A 
BRANCH  21  31
ATOM     30  C   UNL     1      50.174   7.611  14.401  0.00  0.00    +0.000 C 
ATOM     31  O   UNL     1      49.894   6.845  15.574  0.00  0.00    +0.000 OA
ENDBRANCH  21  31
ENDBRANCH  17  28
ENDBRANCH   1  19
TORSDOF 7
ENDMDL
MODEL 8
REMARK VINA RESULT:    -7.071      3.222      4.650
REMARK INTER + INTRA:         -11.071
REMARK INTER:                  -9.984
REMARK INTRA:                  -1.087
REMARK UNBOUND:                -1.106
REMARK  Name = 
REMARK  8 active torsions:
REMARK  status: ('A' for Active; 'I' for Inactive)
REMARK    1  A    between atoms: C_1  and  O_2
REMARK    2  A    between atoms: O_2  and  C_3
REMARK    3  A    between atoms: C_10  and  C_11
REMARK    4  A    between atoms: N_13  and  C_14
REMARK    5  A    between atoms: C_14  and  C_15
REMARK    6  A    between atoms: C_18  and  S_19
REMARK    7  A    between atoms: S_19  and  C_20
REMARK    8  A    between atoms: C_20  and  C_21
REMARK                            x       y       z     vdW  Elec       q    Type
REMARK                         _______ _______ _______ _____ _____    ______ ____
ROOT
ATOM      1  C   UNL     1      47.497   3.565  17.021  0.00  0.00    +0.000 C 
ENDROOT
BRANCH   1   2
ATOM      2  C   UNL     1      47.322   4.398  15.778  0.00  0.00    +0.000 A 
ATOM      3  C   UNL     1      48.057   5.577  15.590  0.00  0.00    +0.000 A 
ATOM      4  C   UNL     1      47.982   6.284  14.380  0.00  0.00    +0.000 A 
ATOM      5  C   UNL     1      47.174   5.827  13.334  0.00  0.00    +0.000 A 
ATOM      6  C   UNL     1      46.380   4.694  13.554  0.00  0.00    +0.000 A 
ATOM      7  C   UNL     1      46.449   3.989  14.763  0.00  0.00    +0.000 A 
BRANCH   5   8
ATOM      8  S   UNL     1      47.061   6.641  11.742  0.00  0.00    +0.000 S 
BRANCH   8   9
ATOM      9  C   UNL     1      45.323   6.334  11.273  0.00  0.00    +0.000 C 
BRANCH   9  10
ATOM     10  C   UNL     1      45.169   5.118  10.386  0.00  0.00    +0.000 A 
ATOM     11  C   UNL     1      44.414   4.014  10.818  0.00  0.00    +0.000 A 
ATOM     12  C   UNL     1      44.221   2.906   9.986  0.00  0.00    +0.000 A 
ATOM     13  C   UNL     1      44.784   2.885   8.713  0.00  0.00    +0.000 A 
ATOM     14  C   UNL     1      45.547   3.964   8.289  0.00  0.00    +0.000 A 
ATOM     15  F   UNL     1      46.091   3.944   7.064  0.00  0.00    +0.000 F 
ATOM     16  C   UNL     1      45.750   5.073   9.111  0.00  0.00    +0.000 A 
ENDBRANCH   9  10
ENDBRANCH   8   9
ENDBRANCH   5   8
ENDBRANCH   1   2
BRANCH   1  19
ATOM     17  C   UNL     1      49.681   2.482  16.905  0.00  0.00    +0.000 C 
ATOM     18  O   UNL     1      49.252   1.699  16.062  0.00  0.00    +0.000 OA
ATOM     19  N   UNL     1      48.870   3.449  17.444  0.00  0.00    +0.000 N 
ATOM     20  H   UNL     1      49.222   4.096  18.135  0.00  0.00    +0.000 HD
BRANCH  17  28
ATOM     21  C   UNL     1      51.996   4.849  17.880  0.00  0.00    +0.000 A 
ATOM     22  N   UNL     1      53.089   5.543  18.258  0.00  0.00    +0.000 NA
ATOM     23  C   UNL     1      54.202   4.862  18.541  0.00  0.00    +0.000 A 
ATOM     24  N   UNL     1      54.365   3.544  18.499  0.00  0.00    +0.000 NA
ATOM     25  C   UNL     1      53.259   2.890  18.104  0.00  0.00    +0.000 A 
ATOM     26  S   UNL     1      53.284   1.197  17.999  0.00  0.00    +0.000 S 
ATOM     27  C   UNL     1      51.670   1.157  17.475  0.00  0.00    +0.000 A 
ATOM     28  C   UNL     1      51.078   2.412  17.366  0.00  0.00    +0.000 A 
ATOM     29  C   UNL     1      52.030   3.448  17.759  0.00  0.00    +0.000 A 
BRANCH  21  31
ATOM     30  C   UNL     1      50.522   6.503  18.615  0.00  0.00    +0.000 C 
ATOM     31  O   UNL     1      50.845   5.554  17.598  0.00  0.00    +0.000 OA
ENDBRANCH  21  31
ENDBRANCH  17  28
ENDBRANCH   1  19
TORSDOF 7
ENDMDL
MODEL 9
REMARK VINA RESULT:    -6.996      4.081      8.108
REMARK INTER + INTRA:         -10.964
REMARK INTER:                  -9.177
REMARK INTRA:                  -1.787
REMARK UNBOUND:                -1.106
REMARK  Name = 
REMARK  8 active torsions:
REMARK  status: ('A' for Active; 'I' for Inactive)
REMARK    1  A    between atoms: C_1  and  O_2
REMARK    2  A    between atoms: O_2  and  C_3
REMARK    3  A    between atoms: C_10  and  C_11
REMARK    4  A    between atoms: N_13  and  C_14
REMARK    5  A    between atoms: C_14  and  C_15
REMARK    6  A    between atoms: C_18  and  S_19
REMARK    7  A    between atoms: S_19  and  C_20
REMARK    8  A    between atoms: C_20  and  C_21
REMARK                            x       y       z     vdW  Elec       q    Type
REMARK                         _______ _______ _______ _____ _____    ______ ____
ROOT
ATOM      1  C   UNL     1      48.030   8.982  14.139  0.00  0.00    +0.000 C 
ENDROOT
BRANCH   1   2
ATOM      2  C   UNL     1      48.827   8.304  15.224  0.00  0.00    +0.000 A 
ATOM      3  C   UNL     1      49.858   7.408  14.909  0.00  0.00    +0.000 A 
ATOM      4  C   UNL     1      50.676   6.874  15.917  0.00  0.00    +0.000 A 
ATOM      5  C   UNL     1      50.482   7.224  17.256  0.00  0.00    +0.000 A 
ATOM      6  C   UNL     1      49.401   8.056  17.575  0.00  0.00    +0.000 A 
ATOM      7  C   UNL     1      48.580   8.587  16.572  0.00  0.00    +0.000 A 
BRANCH   5   8
ATOM      8  S   UNL     1      51.513   6.628  18.595  0.00  0.00    +0.000 S 
BRANCH   8   9
ATOM      9  C   UNL     1      50.391   5.478  19.464  0.00  0.00    +0.000 C 
BRANCH   9  10
ATOM     10  C   UNL     1      49.926   4.342  18.578  0.00  0.00    +0.000 A 
ATOM     11  C   UNL     1      50.859   3.572  17.861  0.00  0.00    +0.000 A 
ATOM     12  C   UNL     1      50.447   2.487  17.081  0.00  0.00    +0.000 A 
ATOM     13  C   UNL     1      49.096   2.160  17.002  0.00  0.00    +0.000 A 
ATOM     14  C   UNL     1      48.168   2.929  17.692  0.00  0.00    +0.000 A 
ATOM     15  F   UNL     1      46.868   2.615  17.616  0.00  0.00    +0.000 F 
ATOM     16  C   UNL     1      48.567   4.016  18.470  0.00  0.00    +0.000 A 
ENDBRANCH   9  10
ENDBRANCH   8   9
ENDBRANCH   5   8
ENDBRANCH   1   2
BRANCH   1  19
ATOM     17  C   UNL     1      46.855   7.547  12.553  0.00  0.00    +0.000 C 
ATOM     18  O   UNL     1      47.836   7.556  11.813  0.00  0.00    +0.000 OA
ATOM     19  N   UNL     1      46.862   8.238  13.738  0.00  0.00    +0.000 N 
ATOM     20  H   UNL     1      46.057   8.230  14.349  0.00  0.00    +0.000 HD
BRANCH  17  28
ATOM     21  C   UNL     1      45.897   4.249  12.892  0.00  0.00    +0.000 A 
ATOM     22  N   UNL     1      45.291   3.044  12.855  0.00  0.00    +0.000 NA
ATOM     23  C   UNL     1      44.075   2.965  12.310  0.00  0.00    +0.000 A 
ATOM     24  N   UNL     1      43.367   3.962  11.788  0.00  0.00    +0.000 NA
ATOM     25  C   UNL     1      44.010   5.141  11.831  0.00  0.00    +0.000 A 
ATOM     26  S   UNL     1      43.250   6.527  11.213  0.00  0.00    +0.000 S 
ATOM     27  C   UNL     1      44.592   7.493  11.597  0.00  0.00    +0.000 A 
ATOM     28  C   UNL     1      45.639   6.797  12.194  0.00  0.00    +0.000 A 
ATOM     29  C   UNL     1      45.279   5.389  12.346  0.00  0.00    +0.000 A 
BRANCH  21  31
ATOM     30  C   UNL     1      47.093   4.611  14.863  0.00  0.00    +0.000 C 
ATOM     31  O   UNL     1      47.149   4.329  13.464  0.00  0.00    +0.000 OA
ENDBRANCH  21  31
ENDBRANCH  17  28
ENDBRANCH   1  19
TORSDOF 7
ENDMDL
