MODEL 1
REMARK VINA RESULT:    -7.808      0.000      0.000
REMARK INTER + INTRA:          -9.680
REMARK INTER:                  -9.405
REMARK INTRA:                  -0.274
REMARK UNBOUND:                -0.274
REMARK  Name = 
REMARK  4 active torsions:
REMARK  status: ('A' for Active; 'I' for Inactive)
REMARK    1  A    between atoms: N_1  and  C_2
REMARK    2  A    between atoms: C_2  and  C_3
REMARK    3  A    between atoms: N_5  and  C_6
REMARK    4  A    between atoms: C_6  and  C_7
REMARK                            x       y       z     vdW  Elec       q    Type
REMARK                         _______ _______ _______ _____ _____    ______ ____
ROOT
ATOM      1  C   UNL     1      44.304   3.968   8.936  0.00  0.00    +0.000 C 
ENDROOT
BRANCH   1   2
ATOM      2  C   UNL     1      44.239   4.018  10.439  0.00  0.00    +0.000 A 
ATOM      3  N   UNL     1      43.403   3.114  11.006  0.00  0.00    +0.000 NA
ATOM      4  C   UNL     1      43.420   3.045  12.344  0.00  0.00    +0.000 A 
ATOM      5  N   UNL     1      44.193   3.773  13.155  0.00  0.00    +0.000 NA
ATOM      6  C   UNL     1      45.006   4.668  12.584  0.00  0.00    +0.000 A 
ATOM      7  C   UNL     1      45.854   5.408  13.396  0.00  0.00    +0.000 A 
ATOM      8  C   UNL     1      46.733   6.363  12.881  0.00  0.00    +0.000 A 
ATOM      9  C   UNL     1      46.747   6.617  11.516  0.00  0.00    +0.000 A 
ATOM     10  C   UNL     1      45.910   5.885  10.681  0.00  0.00    +0.000 A 
ATOM     11  C   UNL     1      45.053   4.879  11.196  0.00  0.00    +0.000 A 
ENDBRANCH   1   2
BRANCH   1  14
ATOM     12  C   UNL     1      46.975   2.189   7.305  0.00  0.00    +0.000 A 
ATOM     13  C   UNL     1      46.352   3.388   7.585  0.00  0.00    +0.000 A 
ATOM     14  N   UNL     1      45.370   3.086   8.485  0.00  0.00    +0.000 N 
ATOM     15  C   UNL     1      45.480   1.758   8.784  0.00  0.00    +0.000 A 
ATOM     16  N   UNL     1      46.432   1.185   8.076  0.00  0.00    +0.000 NA
BRANCH  12  17
ATOM     17  C   UNL     1      48.044   1.906   6.302  0.00  0.00    +0.000 C 
BRANCH  17  18
ATOM     18  N   UNL     1      47.969   2.887   5.218  0.00  0.00    +0.000 NA
ATOM     19  H   UNL     1      48.765   3.521   5.308  0.00  0.00    +0.000 HD
ATOM     20  H   UNL     1      47.139   3.456   5.376  0.00  0.00    +0.000 HD
ENDBRANCH  17  18
ENDBRANCH  12  17
ENDBRANCH   1  14
TORSDOF 4
ENDMDL
MODEL 2
REMARK VINA RESULT:    -7.142      1.452      2.184
REMARK INTER + INTRA:          -8.878
REMARK INTER:                  -8.516
REMARK INTRA:                  -0.362
REMARK UNBOUND:                -0.274
REMARK  Name = 
REMARK  4 active torsions:
REMARK  status: ('A' for Active; 'I' for Inactive)
REMARK    1  A    between atoms: N_1  and  C_2
REMARK    2  A    between atoms: C_2  and  C_3
REMARK    3  A    between atoms: N_5  and  C_6
REMARK    4  A    between atoms: C_6  and  C_7
REMARK                            x       y       z     vdW  Elec       q    Type
REMARK                         _______ _______ _______ _____ _____    ______ ____
ROOT
ATOM      1  C   UNL     1      43.976   3.464  10.616  0.00  0.00    +0.000 C 
ENDROOT
BRANCH   1   2
ATOM      2  C   UNL     1      44.874   3.979  11.708  0.00  0.00    +0.000 A 
ATOM      3  N   UNL     1      45.534   3.022  12.404  0.00  0.00    +0.000 NA
ATOM      4  C   UNL     1      46.439   3.451  13.295  0.00  0.00    +0.000 A 
ATOM      5  N   UNL     1      46.750   4.727  13.540  0.00  0.00    +0.000 NA
ATOM      6  C   UNL     1      46.084   5.662  12.854  0.00  0.00    +0.000 A 
ATOM      7  C   UNL     1      46.417   6.994  13.053  0.00  0.00    +0.000 A 
ATOM      8  C   UNL     1      45.771   8.032  12.378  0.00  0.00    +0.000 A 
ATOM      9  C   UNL     1      44.736   7.740  11.499  0.00  0.00    +0.000 A 
ATOM     10  C   UNL     1      44.388   6.411  11.279  0.00  0.00    +0.000 A 
ATOM     11  C   UNL     1      45.077   5.353  11.925  0.00  0.00    +0.000 A 
ENDBRANCH   1   2
BRANCH   1  14
ATOM     12  C   UNL     1      46.119   2.202   8.012  0.00  0.00    +0.000 A 
ATOM     13  C   UNL     1      45.337   1.956   9.122  0.00  0.00    +0.000 A 
ATOM     14  N   UNL     1      44.736   3.146   9.416  0.00  0.00    +0.000 N 
ATOM     15  C   UNL     1      45.095   4.037   8.446  0.00  0.00    +0.000 A 
ATOM     16  N   UNL     1      45.941   3.500   7.591  0.00  0.00    +0.000 NA
BRANCH  12  17
ATOM     17  C   UNL     1      47.081   1.288   7.330  0.00  0.00    +0.000 C 
BRANCH  17  18
ATOM     18  N   UNL     1      46.835  -0.091   7.757  0.00  0.00    +0.000 NA
ATOM     19  H   UNL     1      46.342  -0.573   7.004  0.00  0.00    +0.000 HD
ATOM     20  H   UNL     1      46.184  -0.057   8.541  0.00  0.00    +0.000 HD
ENDBRANCH  17  18
ENDBRANCH  12  17
ENDBRANCH   1  14
TORSDOF 4
ENDMDL
MODEL 3
REMARK VINA RESULT:    -6.709      1.664      2.454
REMARK INTER + INTRA:          -8.357
REMARK INTER:                  -8.067
REMARK INTRA:                  -0.289
REMARK UNBOUND:                -0.274
REMARK  Name = 
REMARK  4 active torsions:
REMARK  status: ('A' for Active; 'I' for Inactive)
REMARK    1  A    between atoms: N_1  and  C_2
REMARK    2  A    between atoms: C_2  and  C_3
REMARK    3  A    between atoms: N_5  and  C_6
REMARK    4  A    between atoms: C_6  and  C_7
REMARK                            x       y       z     vdW  Elec       q    Type
REMARK                         _______ _______ _______ _____ _____    ______ ____
ROOT
ATOM      1  C   UNL     1      43.808   3.298  10.483  0.00  0.00    +0.000 C 
ENDROOT
BRANCH   1   2
ATOM      2  C   UNL     1      44.317   4.542  11.161  0.00  0.00    +0.000 A 
ATOM      3  N   UNL     1      43.709   5.691  10.780  0.00  0.00    +0.000 NA
ATOM      4  C   UNL     1      44.048   6.797  11.457  0.00  0.00    +0.000 A 
ATOM      5  N   UNL     1      44.913   6.857  12.473  0.00  0.00    +0.000 NA
ATOM      6  C   UNL     1      45.513   5.718  12.833  0.00  0.00    +0.000 A 
ATOM      7  C   UNL     1      46.383   5.738  13.915  0.00  0.00    +0.000 A 
ATOM      8  C   UNL     1      47.052   4.594  14.356  0.00  0.00    +0.000 A 
ATOM      9  C   UNL     1      46.877   3.394  13.679  0.00  0.00    +0.000 A 
ATOM     10  C   UNL     1      46.006   3.347  12.595  0.00  0.00    +0.000 A 
ATOM     11  C   UNL     1      45.287   4.497  12.178  0.00  0.00    +0.000 A 
ENDBRANCH   1   2
BRANCH   1  14
ATOM     12  C   UNL     1      46.069   2.066   7.967  0.00  0.00    +0.000 A 
ATOM     13  C   UNL     1      45.294   1.820   9.081  0.00  0.00    +0.000 A 
ATOM     14  N   UNL     1      44.604   2.976   9.307  0.00  0.00    +0.000 N 
ATOM     15  C   UNL     1      44.909   3.841   8.295  0.00  0.00    +0.000 A 
ATOM     16  N   UNL     1      45.802   3.325   7.477  0.00  0.00    +0.000 NA
BRANCH  12  17
ATOM     17  C   UNL     1      47.104   1.192   7.340  0.00  0.00    +0.000 C 
BRANCH  17  18
ATOM     18  N   UNL     1      46.863  -0.202   7.720  0.00  0.00    +0.000 NA
ATOM     19  H   UNL     1      45.889  -0.425   7.509  0.00  0.00    +0.000 HD
ATOM     20  H   UNL     1      46.950  -0.262   8.734  0.00  0.00    +0.000 HD
ENDBRANCH  17  18
ENDBRANCH  12  17
ENDBRANCH   1  14
TORSDOF 4
ENDMDL
MODEL 4
REMARK VINA RESULT:    -6.542      1.747      2.760
REMARK INTER + INTRA:          -8.155
REMARK INTER:                  -7.709
REMARK INTRA:                  -0.445
REMARK UNBOUND:                -0.274
REMARK  Name = 
REMARK  4 active torsions:
REMARK  status: ('A' for Active; 'I' for Inactive)
REMARK    1  A    between atoms: N_1  and  C_2
REMARK    2  A    between atoms: C_2  and  C_3
REMARK    3  A    between atoms: N_5  and  C_6
REMARK    4  A    between atoms: C_6  and  C_7
REMARK                            x       y       z     vdW  Elec       q    Type
REMARK                         _______ _______ _______ _____ _____    ______ ____
ROOT
ATOM      1  C   UNL     1      44.137   4.373  11.885  0.00  0.00    +0.000 C 
ENDROOT
BRANCH   1   2
ATOM      2  C   UNL     1      45.330   4.659  12.757  0.00  0.00    +0.000 A 
ATOM      3  N   UNL     1      45.944   3.562  13.263  0.00  0.00    +0.000 NA
ATOM      4  C   UNL     1      47.084   3.774  13.935  0.00  0.00    +0.000 A 
ATOM      5  N   UNL     1      47.665   4.961  14.133  0.00  0.00    +0.000 NA
ATOM      6  C   UNL     1      47.044   6.036  13.637  0.00  0.00    +0.000 A 
ATOM      7  C   UNL     1      47.646   7.278  13.786  0.00  0.00    +0.000 A 
ATOM      8  C   UNL     1      47.065   8.451  13.299  0.00  0.00    +0.000 A 
ATOM      9  C   UNL     1      45.827   8.394  12.671  0.00  0.00    +0.000 A 
ATOM     10  C   UNL     1      45.207   7.160  12.505  0.00  0.00    +0.000 A 
ATOM     11  C   UNL     1      45.820   5.962  12.954  0.00  0.00    +0.000 A 
ENDBRANCH   1   2
BRANCH   1  14
ATOM     12  C   UNL     1      45.209   3.318   8.614  0.00  0.00    +0.000 A 
ATOM     13  C   UNL     1      45.300   4.222   9.653  0.00  0.00    +0.000 A 
ATOM     14  N   UNL     1      44.533   3.702  10.655  0.00  0.00    +0.000 N 
ATOM     15  C   UNL     1      44.080   2.483  10.237  0.00  0.00    +0.000 A 
ATOM     16  N   UNL     1      44.461   2.229   9.002  0.00  0.00    +0.000 NA
BRANCH  12  17
ATOM     17  C   UNL     1      45.756   3.432   7.230  0.00  0.00    +0.000 C 
BRANCH  17  18
ATOM     18  N   UNL     1      46.854   4.401   7.215  0.00  0.00    +0.000 NA
ATOM     19  H   UNL     1      46.941   4.768   6.267  0.00  0.00    +0.000 HD
ATOM     20  H   UNL     1      47.716   3.889   7.397  0.00  0.00    +0.000 HD
ENDBRANCH  17  18
ENDBRANCH  12  17
ENDBRANCH   1  14
TORSDOF 4
ENDMDL
MODEL 5
REMARK VINA RESULT:    -6.465      2.519      5.957
REMARK INTER + INTRA:          -8.062
REMARK INTER:                  -7.790
REMARK INTRA:                  -0.272
REMARK UNBOUND:                -0.274
REMARK  Name = 
REMARK  4 active torsions:
REMARK  status: ('A' for Active; 'I' for Inactive)
REMARK    1  A    between atoms: N_1  and  C_2
REMARK    2  A    between atoms: C_2  and  C_3
REMARK    3  A    between atoms: N_5  and  C_6
REMARK    4  A    between atoms: C_6  and  C_7
REMARK                            x       y       z     vdW  Elec       q    Type
REMARK                         _______ _______ _______ _____ _____    ______ ____
ROOT
ATOM      1  C   UNL     1      44.751   6.695  11.354  0.00  0.00    +0.000 C 
ENDROOT
BRANCH   1   2
ATOM      2  C   UNL     1      44.435   5.227  11.246  0.00  0.00    +0.000 A 
ATOM      3  N   UNL     1      43.664   4.733  12.244  0.00  0.00    +0.000 NA
ATOM      4  C   UNL     1      43.257   3.463  12.109  0.00  0.00    +0.000 A 
ATOM      5  N   UNL     1      43.532   2.659  11.079  0.00  0.00    +0.000 NA
ATOM      6  C   UNL     1      44.302   3.156  10.105  0.00  0.00    +0.000 A 
ATOM      7  C   UNL     1      44.569   2.361   8.999  0.00  0.00    +0.000 A 
ATOM      8  C   UNL     1      45.363   2.802   7.938  0.00  0.00    +0.000 A 
ATOM      9  C   UNL     1      45.941   4.064   7.992  0.00  0.00    +0.000 A 
ATOM     10  C   UNL     1      45.684   4.881   9.088  0.00  0.00    +0.000 A 
ATOM     11  C   UNL     1      44.836   4.454  10.142  0.00  0.00    +0.000 A 
ENDBRANCH   1   2
BRANCH   1  14
ATOM     12  C   UNL     1      47.294   7.918  13.590  0.00  0.00    +0.000 A 
ATOM     13  C   UNL     1      46.075   8.106  12.970  0.00  0.00    +0.000 A 
ATOM     14  N   UNL     1      45.814   6.935  12.320  0.00  0.00    +0.000 N 
ATOM     15  C   UNL     1      46.817   6.060  12.627  0.00  0.00    +0.000 A 
ATOM     16  N   UNL     1      47.733   6.629  13.382  0.00  0.00    +0.000 NA
BRANCH  12  17
ATOM     17  C   UNL     1      48.117   8.907  14.346  0.00  0.00    +0.000 C 
BRANCH  17  18
ATOM     18  N   UNL     1      47.551   9.094  15.684  0.00  0.00    +0.000 NA
ATOM     19  H   UNL     1      47.661   8.219  16.200  0.00  0.00    +0.000 HD
ATOM     20  H   UNL     1      46.547   9.230  15.575  0.00  0.00    +0.000 HD
ENDBRANCH  17  18
ENDBRANCH  12  17
ENDBRANCH   1  14
TORSDOF 4
ENDMDL
MODEL 6
REMARK VINA RESULT:    -6.000      2.127      3.708
REMARK INTER + INTRA:          -7.502
REMARK INTER:                  -7.059
REMARK INTRA:                  -0.444
REMARK UNBOUND:                -0.274
REMARK  Name = 
REMARK  4 active torsions:
REMARK  status: ('A' for Active; 'I' for Inactive)
REMARK    1  A    between atoms: N_1  and  C_2
REMARK    2  A    between atoms: C_2  and  C_3
REMARK    3  A    between atoms: N_5  and  C_6
REMARK    4  A    between atoms: C_6  and  C_7
REMARK                            x       y       z     vdW  Elec       q    Type
REMARK                         _______ _______ _______ _____ _____    ______ ____
ROOT
ATOM      1  C   UNL     1      44.066   5.583  12.472  0.00  0.00    +0.000 C 
ENDROOT
BRANCH   1   2
ATOM      2  C   UNL     1      45.383   6.022  13.053  0.00  0.00    +0.000 A 
ATOM      3  N   UNL     1      46.074   5.052  13.700  0.00  0.00    +0.000 NA
ATOM      4  C   UNL     1      47.307   5.376  14.115  0.00  0.00    +0.000 A 
ATOM      5  N   UNL     1      47.909   6.555  13.934  0.00  0.00    +0.000 NA
ATOM      6  C   UNL     1      47.212   7.506  13.303  0.00  0.00    +0.000 A 
ATOM      7  C   UNL     1      47.826   8.727  13.059  0.00  0.00    +0.000 A 
ATOM      8  C   UNL     1      47.171   9.774  12.408  0.00  0.00    +0.000 A 
ATOM      9  C   UNL     1      45.848   9.615  12.014  0.00  0.00    +0.000 A 
ATOM     10  C   UNL     1      45.213   8.399  12.242  0.00  0.00    +0.000 A 
ATOM     11  C   UNL     1      45.894   7.318  12.858  0.00  0.00    +0.000 A 
ENDBRANCH   1   2
BRANCH   1  14
ATOM     12  C   UNL     1      44.646   3.783   9.408  0.00  0.00    +0.000 A 
ATOM     13  C   UNL     1      44.921   4.873  10.209  0.00  0.00    +0.000 A 
ATOM     14  N   UNL     1      44.261   4.639  11.381  0.00  0.00    +0.000 N 
ATOM     15  C   UNL     1      43.690   3.402  11.291  0.00  0.00    +0.000 A 
ATOM     16  N   UNL     1      43.893   2.866  10.106  0.00  0.00    +0.000 NA
BRANCH  12  17
ATOM     17  C   UNL     1      45.016   3.560   7.979  0.00  0.00    +0.000 C 
BRANCH  17  18
ATOM     18  N   UNL     1      46.207   4.347   7.653  0.00  0.00    +0.000 NA
ATOM     19  H   UNL     1      46.093   5.277   8.058  0.00  0.00    +0.000 HD
ATOM     20  H   UNL     1      46.217   4.482   6.643  0.00  0.00    +0.000 HD
ENDBRANCH  17  18
ENDBRANCH  12  17
ENDBRANCH   1  14
TORSDOF 4
ENDMDL
MODEL 7
REMARK VINA RESULT:    -5.941      2.142      3.062
REMARK INTER + INTRA:          -7.430
REMARK INTER:                  -7.171
REMARK INTRA:                  -0.259
REMARK UNBOUND:                -0.274
REMARK  Name = 
REMARK  4 active torsions:
REMARK  status: ('A' for Active; 'I' for Inactive)
REMARK    1  A    between atoms: N_1  and  C_2
REMARK    2  A    between atoms: C_2  and  C_3
REMARK    3  A    between atoms: N_5  and  C_6
REMARK    4  A    between atoms: C_6  and  C_7
REMARK                            x       y       z     vdW  Elec       q    Type
REMARK                         _______ _______ _______ _____ _____    ______ ____
ROOT
ATOM      1  C   UNL     1      43.624   5.112  11.227  0.00  0.00    +0.000 C 
ENDROOT
BRANCH   1   2
ATOM      2  C   UNL     1      44.477   6.314  11.533  0.00  0.00    +0.000 A 
ATOM      3  N   UNL     1      43.997   7.490  11.061  0.00  0.00    +0.000 NA
ATOM      4  C   UNL     1      44.663   8.594  11.427  0.00  0.00    +0.000 A 
ATOM      5  N   UNL     1      45.738   8.633  12.220  0.00  0.00    +0.000 NA
ATOM      6  C   UNL     1      46.206   7.464  12.671  0.00  0.00    +0.000 A 
ATOM      7  C   UNL     1      47.293   7.474  13.534  0.00  0.00    +0.000 A 
ATOM      8  C   UNL     1      47.845   6.299  14.050  0.00  0.00    +0.000 A 
ATOM      9  C   UNL     1      47.321   5.071  13.671  0.00  0.00    +0.000 A 
ATOM     10  C   UNL     1      46.228   5.036  12.811  0.00  0.00    +0.000 A 
ATOM     11  C   UNL     1      45.634   6.229  12.326  0.00  0.00    +0.000 A 
ENDBRANCH   1   2
BRANCH   1  14
ATOM     12  C   UNL     1      45.232   3.432   8.479  0.00  0.00    +0.000 A 
ATOM     13  C   UNL     1      45.007   4.597   9.183  0.00  0.00    +0.000 A 
ATOM     14  N   UNL     1      44.285   4.225  10.280  0.00  0.00    +0.000 N 
ATOM     15  C   UNL     1      44.170   2.865  10.255  0.00  0.00    +0.000 A 
ATOM     16  N   UNL     1      44.721   2.357   9.172  0.00  0.00    +0.000 NA
BRANCH  12  17
ATOM     17  C   UNL     1      45.874   3.260   7.142  0.00  0.00    +0.000 C 
BRANCH  17  18
ATOM     18  N   UNL     1      46.978   4.211   7.003  0.00  0.00    +0.000 NA
ATOM     19  H   UNL     1      47.468   4.004   6.131  0.00  0.00    +0.000 HD
ATOM     20  H   UNL     1      47.644   4.019   7.750  0.00  0.00    +0.000 HD
ENDBRANCH  17  18
ENDBRANCH  12  17
ENDBRANCH   1  14
TORSDOF 4
ENDMDL
MODEL 8
REMARK VINA RESULT:    -5.349      2.497      4.530
REMARK INTER + INTRA:          -6.717
REMARK INTER:                  -6.464
REMARK INTRA:                  -0.254
REMARK UNBOUND:                -0.274
REMARK  Name = 
REMARK  4 active torsions:
REMARK  status: ('A' for Active; 'I' for Inactive)
REMARK    1  A    between atoms: N_1  and  C_2
REMARK    2  A    between atoms: C_2  and  C_3
REMARK    3  A    between atoms: N_5  and  C_6
REMARK    4  A    between atoms: C_6  and  C_7
REMARK                            x       y       z     vdW  Elec       q    Type
REMARK                         _______ _______ _______ _____ _____    ______ ____
ROOT
ATOM      1  C   UNL     1      45.032   7.200  12.045  0.00  0.00    +0.000 C 
ENDROOT
BRANCH   1   2
ATOM      2  C   UNL     1      46.310   6.909  12.787  0.00  0.00    +0.000 A 
ATOM      3  N   UNL     1      46.266   5.825  13.598  0.00  0.00    +0.000 NA
ATOM      4  C   UNL     1      47.422   5.462  14.171  0.00  0.00    +0.000 A 
ATOM      5  N   UNL     1      48.602   6.065  13.999  0.00  0.00    +0.000 NA
ATOM      6  C   UNL     1      48.630   7.139  13.203  0.00  0.00    +0.000 A 
ATOM      7  C   UNL     1      49.849   7.760  12.968  0.00  0.00    +0.000 A 
ATOM      8  C   UNL     1      49.966   8.887  12.152  0.00  0.00    +0.000 A 
ATOM      9  C   UNL     1      48.829   9.437  11.575  0.00  0.00    +0.000 A 
ATOM     10  C   UNL     1      47.597   8.829  11.791  0.00  0.00    +0.000 A 
ATOM     11  C   UNL     1      47.483   7.655  12.579  0.00  0.00    +0.000 A 
ENDBRANCH   1   2
BRANCH   1  14
ATOM     12  C   UNL     1      44.279   4.341   9.990  0.00  0.00    +0.000 A 
ATOM     13  C   UNL     1      45.221   5.181  10.546  0.00  0.00    +0.000 A 
ATOM     14  N   UNL     1      44.526   6.007  11.382  0.00  0.00    +0.000 N 
ATOM     15  C   UNL     1      43.224   5.596  11.375  0.00  0.00    +0.000 A 
ATOM     16  N   UNL     1      43.040   4.601  10.533  0.00  0.00    +0.000 NA
BRANCH  12  17
ATOM     17  C   UNL     1      44.460   3.314   8.922  0.00  0.00    +0.000 C 
BRANCH  17  18
ATOM     18  N   UNL     1      44.561   1.987   9.532  0.00  0.00    +0.000 NA
ATOM     19  H   UNL     1      44.375   1.290   8.809  0.00  0.00    +0.000 HD
ATOM     20  H   UNL     1      43.801   1.901  10.206  0.00  0.00    +0.000 HD
ENDBRANCH  17  18
ENDBRANCH  12  17
ENDBRANCH   1  14
TORSDOF 4
ENDMDL
MODEL 9
REMARK VINA RESULT:    -5.329      3.271      5.684
REMARK INTER + INTRA:          -6.694
REMARK INTER:                  -6.366
REMARK INTRA:                  -0.328
REMARK UNBOUND:                -0.274
REMARK  Name = 
REMARK  4 active torsions:
REMARK  status: ('A' for Active; 'I' for Inactive)
REMARK    1  A    between atoms: N_1  and  C_2
REMARK    2  A    between atoms: C_2  and  C_3
REMARK    3  A    between atoms: N_5  and  C_6
REMARK    4  A    between atoms: C_6  and  C_7
REMARK                            x       y       z     vdW  Elec       q    Type
REMARK                         _______ _______ _______ _____ _____    ______ ____
ROOT
ATOM      1  C   UNL     1      46.569   6.448  12.967  0.00  0.00    +0.000 C 
ENDROOT
BRANCH   1   2
ATOM      2  C   UNL     1      46.685   7.863  12.469  0.00  0.00    +0.000 A 
ATOM      3  N   UNL     1      45.549   8.595  12.556  0.00  0.00    +0.000 NA
ATOM      4  C   UNL     1      45.652   9.895  12.243  0.00  0.00    +0.000 A 
ATOM      5  N   UNL     1      46.771  10.523  11.872  0.00  0.00    +0.000 NA
ATOM      6  C   UNL     1      47.884   9.787  11.780  0.00  0.00    +0.000 A 
ATOM      7  C   UNL     1      49.072  10.419  11.441  0.00  0.00    +0.000 A 
ATOM      8  C   UNL     1      50.278   9.725  11.323  0.00  0.00    +0.000 A 
ATOM      9  C   UNL     1      50.300   8.350  11.516  0.00  0.00    +0.000 A 
ATOM     10  C   UNL     1      49.122   7.695  11.862  0.00  0.00    +0.000 A 
ATOM     11  C   UNL     1      47.907   8.406  12.032  0.00  0.00    +0.000 A 
ENDBRANCH   1   2
BRANCH   1  14
ATOM     12  C   UNL     1      44.350   4.097  11.382  0.00  0.00    +0.000 A 
ATOM     13  C   UNL     1      44.779   4.725  12.533  0.00  0.00    +0.000 A 
ATOM     14  N   UNL     1      45.681   5.663  12.120  0.00  0.00    +0.000 N 
ATOM     15  C   UNL     1      45.707   5.637  10.755  0.00  0.00    +0.000 A 
ATOM     16  N   UNL     1      44.923   4.692  10.280  0.00  0.00    +0.000 NA
BRANCH  12  17
ATOM     17  C   UNL     1      43.447   2.916  11.247  0.00  0.00    +0.000 C 
BRANCH  17  18
ATOM     18  N   UNL     1      43.517   2.104  12.464  0.00  0.00    +0.000 NA
ATOM     19  H   UNL     1      44.166   1.334  12.294  0.00  0.00    +0.000 HD
ATOM     20  H   UNL     1      42.603   1.675  12.599  0.00  0.00    +0.000 HD
ENDBRANCH  17  18
ENDBRANCH  12  17
ENDBRANCH   1  14
TORSDOF 4
ENDMDL
