MODEL 1
REMARK VINA RESULT:    -7.824      0.000      0.000
REMARK INTER + INTRA:          -9.988
REMARK INTER:                  -9.425
REMARK INTRA:                  -0.563
REMARK UNBOUND:                -0.563
REMARK  Name = 
REMARK  4 active torsions:
REMARK  status: ('A' for Active; 'I' for Inactive)
REMARK    1  A    between atoms: N_1  and  C_2
REMARK    2  A    between atoms: C_2  and  C_3
REMARK    3  A    between atoms: C_6  and  C_7
REMARK    4  A    between atoms: C_7  and  C_8
REMARK                            x       y       z     vdW  Elec       q    Type
REMARK                         _______ _______ _______ _____ _____    ______ ____
ROOT
ATOM      1  C   UNL     1      46.490   2.426   7.623  0.00  0.00    +0.000 A 
ATOM      2  C   UNL     1      45.699   1.735   8.549  0.00  0.00    +0.000 A 
ATOM      3  C   UNL     1      44.859   2.439   9.406  0.00  0.00    +0.000 A 
ATOM      4  C   UNL     1      44.805   3.829   9.317  0.00  0.00    +0.000 A 
ATOM      5  N   UNL     1      45.532   4.510   8.395  0.00  0.00    +0.000 NA
ATOM      6  C   UNL     1      46.351   3.806   7.590  0.00  0.00    +0.000 A 
ENDROOT
BRANCH   1   7
ATOM      7  C   UNL     1      47.481   1.721   6.742  0.00  0.00    +0.000 C 
BRANCH   7   8
ATOM      8  N   UNL     1      48.602   2.571   6.365  0.00  0.00    +0.000 NA
ATOM      9  H   UNL     1      48.531   2.798   5.376  0.00  0.00    +0.000 HD
ATOM     10  H   UNL     1      49.470   2.045   6.476  0.00  0.00    +0.000 HD
ENDBRANCH   7   8
ENDBRANCH   1   7
BRANCH   4  11
ATOM     11  C   UNL     1      43.855   4.617  10.174  0.00  0.00    +0.000 C 
BRANCH  11  12
ATOM     12  C   UNL     1      44.614   5.390  11.199  0.00  0.00    +0.000 A 
ATOM     13  C   UNL     1      44.761   6.768  11.230  0.00  0.00    +0.000 A 
ATOM     14  O   UNL     1      45.743   7.137  12.092  0.00  0.00    +0.000 OA
ATOM     15  C   UNL     1      46.212   5.998  12.671  0.00  0.00    +0.000 A 
ATOM     16  C   UNL     1      47.273   5.902  13.555  0.00  0.00    +0.000 A 
ATOM     17  N   UNL     1      47.579   4.685  14.075  0.00  0.00    +0.000 NA
ATOM     18  C   UNL     1      46.829   3.617  13.712  0.00  0.00    +0.000 A 
ATOM     19  C   UNL     1      45.788   3.650  12.791  0.00  0.00    +0.000 A 
ATOM     20  C   UNL     1      45.483   4.900  12.230  0.00  0.00    +0.000 A 
ENDBRANCH  11  12
ENDBRANCH   4  11
TORSDOF 4
ENDMDL
MODEL 2
REMARK VINA RESULT:    -7.292      2.075      5.976
REMARK INTER + INTRA:          -9.347
REMARK INTER:                  -8.927
REMARK INTRA:                  -0.420
REMARK UNBOUND:                -0.563
REMARK  Name = 
REMARK  4 active torsions:
REMARK  status: ('A' for Active; 'I' for Inactive)
REMARK    1  A    between atoms: N_1  and  C_2
REMARK    2  A    between atoms: C_2  and  C_3
REMARK    3  A    between atoms: C_6  and  C_7
REMARK    4  A    between atoms: C_7  and  C_8
REMARK                            x       y       z     vdW  Elec       q    Type
REMARK                         _______ _______ _______ _____ _____    ______ ____
ROOT
ATOM      1  C   UNL     1      46.482   5.544  12.822  0.00  0.00    +0.000 A 
ATOM      2  C   UNL     1      46.649   6.297  11.654  0.00  0.00    +0.000 A 
ATOM      3  C   UNL     1      45.990   5.924  10.487  0.00  0.00    +0.000 A 
ATOM      4  C   UNL     1      45.154   4.809  10.505  0.00  0.00    +0.000 A 
ATOM      5  N   UNL     1      44.946   4.095  11.640  0.00  0.00    +0.000 NA
ATOM      6  C   UNL     1      45.612   4.467  12.751  0.00  0.00    +0.000 A 
ENDROOT
BRANCH   1   7
ATOM      7  C   UNL     1      47.243   5.850  14.080  0.00  0.00    +0.000 C 
BRANCH   7   8
ATOM      8  N   UNL     1      47.566   4.653  14.845  0.00  0.00    +0.000 NA
ATOM      9  H   UNL     1      48.550   4.677  15.103  0.00  0.00    +0.000 HD
ATOM     10  H   UNL     1      47.448   3.834  14.247  0.00  0.00    +0.000 HD
ENDBRANCH   7   8
ENDBRANCH   1   7
BRANCH   4  11
ATOM     11  C   UNL     1      44.367   4.420   9.285  0.00  0.00    +0.000 C 
BRANCH  11  12
ATOM     12  C   UNL     1      44.846   3.105   8.766  0.00  0.00    +0.000 A 
ATOM     13  C   UNL     1      44.396   1.860   9.175  0.00  0.00    +0.000 A 
ATOM     14  O   UNL     1      45.227   0.874   8.750  0.00  0.00    +0.000 OA
ATOM     15  C   UNL     1      46.203   1.469   8.011  0.00  0.00    +0.000 A 
ATOM     16  C   UNL     1      47.305   0.846   7.452  0.00  0.00    +0.000 A 
ATOM     17  N   UNL     1      48.162   1.587   6.701  0.00  0.00    +0.000 NA
ATOM     18  C   UNL     1      47.898   2.904   6.528  0.00  0.00    +0.000 A 
ATOM     19  C   UNL     1      46.837   3.589   7.109  0.00  0.00    +0.000 A 
ATOM     20  C   UNL     1      45.962   2.834   7.906  0.00  0.00    +0.000 A 
ENDBRANCH  11  12
ENDBRANCH   4  11
TORSDOF 4
ENDMDL
MODEL 3
REMARK VINA RESULT:    -7.258      1.301      1.747
REMARK INTER + INTRA:          -9.306
REMARK INTER:                  -9.205
REMARK INTRA:                  -0.102
REMARK UNBOUND:                -0.563
REMARK  Name = 
REMARK  4 active torsions:
REMARK  status: ('A' for Active; 'I' for Inactive)
REMARK    1  A    between atoms: N_1  and  C_2
REMARK    2  A    between atoms: C_2  and  C_3
REMARK    3  A    between atoms: C_6  and  C_7
REMARK    4  A    between atoms: C_7  and  C_8
REMARK                            x       y       z     vdW  Elec       q    Type
REMARK                         _______ _______ _______ _____ _____    ______ ____
ROOT
ATOM      1  C   UNL     1      46.611   2.642   6.901  0.00  0.00    +0.000 A 
ATOM      2  C   UNL     1      45.957   3.804   7.328  0.00  0.00    +0.000 A 
ATOM      3  C   UNL     1      45.136   3.767   8.450  0.00  0.00    +0.000 A 
ATOM      4  C   UNL     1      44.990   2.569   9.147  0.00  0.00    +0.000 A 
ATOM      5  N   UNL     1      45.651   1.445   8.773  0.00  0.00    +0.000 NA
ATOM      6  C   UNL     1      46.426   1.504   7.672  0.00  0.00    +0.000 A 
ENDROOT
BRANCH   1   7
ATOM      7  C   UNL     1      47.432   2.608   5.645  0.00  0.00    +0.000 C 
BRANCH   7   8
ATOM      8  N   UNL     1      48.624   1.780   5.775  0.00  0.00    +0.000 NA
ATOM      9  H   UNL     1      48.368   0.894   6.204  0.00  0.00    +0.000 HD
ATOM     10  H   UNL     1      49.273   2.233   6.420  0.00  0.00    +0.000 HD
ENDBRANCH   7   8
ENDBRANCH   1   7
BRANCH   4  11
ATOM     11  C   UNL     1      44.172   2.508  10.406  0.00  0.00    +0.000 C 
BRANCH  11  12
ATOM     12  C   UNL     1      44.211   3.826  11.105  0.00  0.00    +0.000 A 
ATOM     13  C   UNL     1      43.445   4.936  10.784  0.00  0.00    +0.000 A 
ATOM     14  O   UNL     1      43.922   6.053  11.391  0.00  0.00    +0.000 OA
ATOM     15  C   UNL     1      44.978   5.667  12.158  0.00  0.00    +0.000 A 
ATOM     16  C   UNL     1      45.811   6.498  12.888  0.00  0.00    +0.000 A 
ATOM     17  N   UNL     1      46.795   5.938  13.639  0.00  0.00    +0.000 NA
ATOM     18  C   UNL     1      46.916   4.589  13.647  0.00  0.00    +0.000 A 
ATOM     19  C   UNL     1      46.141   3.714  12.894  0.00  0.00    +0.000 A 
ATOM     20  C   UNL     1      45.139   4.288  12.096  0.00  0.00    +0.000 A 
ENDBRANCH  11  12
ENDBRANCH   4  11
TORSDOF 4
ENDMDL
MODEL 4
REMARK VINA RESULT:    -6.123      1.991      5.685
REMARK INTER + INTRA:          -7.939
REMARK INTER:                  -7.649
REMARK INTRA:                  -0.290
REMARK UNBOUND:                -0.563
REMARK  Name = 
REMARK  4 active torsions:
REMARK  status: ('A' for Active; 'I' for Inactive)
REMARK    1  A    between atoms: N_1  and  C_2
REMARK    2  A    between atoms: C_2  and  C_3
REMARK    3  A    between atoms: C_6  and  C_7
REMARK    4  A    between atoms: C_7  and  C_8
REMARK                            x       y       z     vdW  Elec       q    Type
REMARK                         _______ _______ _______ _____ _____    ______ ____
ROOT
ATOM      1  C   UNL     1      47.502   6.161  13.879  0.00  0.00    +0.000 A 
ATOM      2  C   UNL     1      46.600   5.096  13.993  0.00  0.00    +0.000 A 
ATOM      3  C   UNL     1      45.484   5.038  13.164  0.00  0.00    +0.000 A 
ATOM      4  C   UNL     1      45.290   6.040  12.214  0.00  0.00    +0.000 A 
ATOM      5  N   UNL     1      46.177   7.055  12.061  0.00  0.00    +0.000 NA
ATOM      6  C   UNL     1      47.239   7.097  12.889  0.00  0.00    +0.000 A 
ENDROOT
BRANCH   1   7
ATOM      7  C   UNL     1      48.668   6.318  14.811  0.00  0.00    +0.000 C 
BRANCH   7   8
ATOM      8  N   UNL     1      49.797   6.996  14.187  0.00  0.00    +0.000 NA
ATOM      9  H   UNL     1      50.557   6.330  14.061  0.00  0.00    +0.000 HD
ATOM     10  H   UNL     1      50.148   7.711  14.825  0.00  0.00    +0.000 HD
ENDBRANCH   7   8
ENDBRANCH   1   7
BRANCH   4  11
ATOM     11  C   UNL     1      44.137   5.972  11.252  0.00  0.00    +0.000 C 
BRANCH  11  12
ATOM     12  C   UNL     1      44.054   4.608  10.652  0.00  0.00    +0.000 A 
ATOM     13  C   UNL     1      43.354   3.533  11.176  0.00  0.00    +0.000 A 
ATOM     14  O   UNL     1      43.717   2.370  10.576  0.00  0.00    +0.000 OA
ATOM     15  C   UNL     1      44.626   2.688   9.614  0.00  0.00    +0.000 A 
ATOM     16  C   UNL     1      45.320   1.797   8.813  0.00  0.00    +0.000 A 
ATOM     17  N   UNL     1      46.160   2.291   7.867  0.00  0.00    +0.000 NA
ATOM     18  C   UNL     1      46.280   3.634   7.743  0.00  0.00    +0.000 A 
ATOM     19  C   UNL     1      45.648   4.570   8.554  0.00  0.00    +0.000 A 
ATOM     20  C   UNL     1      44.797   4.066   9.551  0.00  0.00    +0.000 A 
ENDBRANCH  11  12
ENDBRANCH   4  11
TORSDOF 4
ENDMDL
MODEL 5
REMARK VINA RESULT:    -5.485      1.972      2.997
REMARK INTER + INTRA:          -7.170
REMARK INTER:                  -6.782
REMARK INTRA:                  -0.388
REMARK UNBOUND:                -0.563
REMARK  Name = 
REMARK  4 active torsions:
REMARK  status: ('A' for Active; 'I' for Inactive)
REMARK    1  A    between atoms: N_1  and  C_2
REMARK    2  A    between atoms: C_2  and  C_3
REMARK    3  A    between atoms: C_6  and  C_7
REMARK    4  A    between atoms: C_7  and  C_8
REMARK                            x       y       z     vdW  Elec       q    Type
REMARK                         _______ _______ _______ _____ _____    ______ ____
ROOT
ATOM      1  C   UNL     1      45.314   3.708   8.666  0.00  0.00    +0.000 A 
ATOM      2  C   UNL     1      44.786   2.845   9.634  0.00  0.00    +0.000 A 
ATOM      3  C   UNL     1      44.661   3.272  10.952  0.00  0.00    +0.000 A 
ATOM      4  C   UNL     1      45.050   4.568  11.287  0.00  0.00    +0.000 A 
ATOM      5  N   UNL     1      45.523   5.432  10.353  0.00  0.00    +0.000 NA
ATOM      6  C   UNL     1      45.651   4.986   9.087  0.00  0.00    +0.000 A 
ENDROOT
BRANCH   1   7
ATOM      7  C   UNL     1      45.557   3.264   7.253  0.00  0.00    +0.000 C 
BRANCH   7   8
ATOM      8  N   UNL     1      46.955   2.945   6.996  0.00  0.00    +0.000 NA
ATOM      9  H   UNL     1      47.056   2.641   6.030  0.00  0.00    +0.000 HD
ATOM     10  H   UNL     1      47.226   2.150   7.575  0.00  0.00    +0.000 HD
ENDBRANCH   7   8
ENDBRANCH   1   7
BRANCH   4  11
ATOM     11  C   UNL     1      44.860   5.090  12.683  0.00  0.00    +0.000 C 
BRANCH  11  12
ATOM     12  C   UNL     1      46.186   5.299  13.335  0.00  0.00    +0.000 A 
ATOM     13  C   UNL     1      46.808   4.421  14.209  0.00  0.00    +0.000 A 
ATOM     14  O   UNL     1      47.838   5.021  14.858  0.00  0.00    +0.000 OA
ATOM     15  C   UNL     1      47.929   6.289  14.371  0.00  0.00    +0.000 A 
ATOM     16  C   UNL     1      48.791   7.278  14.810  0.00  0.00    +0.000 A 
ATOM     17  N   UNL     1      48.780   8.481  14.178  0.00  0.00    +0.000 NA
ATOM     18  C   UNL     1      47.929   8.659  13.140  0.00  0.00    +0.000 A 
ATOM     19  C   UNL     1      47.008   7.719  12.692  0.00  0.00    +0.000 A 
ATOM     20  C   UNL     1      46.997   6.483  13.358  0.00  0.00    +0.000 A 
ENDBRANCH  11  12
ENDBRANCH   4  11
TORSDOF 4
ENDMDL
MODEL 6
REMARK VINA RESULT:    -5.448      3.629      7.222
REMARK INTER + INTRA:          -7.126
REMARK INTER:                  -6.764
REMARK INTRA:                  -0.362
REMARK UNBOUND:                -0.563
REMARK  Name = 
REMARK  4 active torsions:
REMARK  status: ('A' for Active; 'I' for Inactive)
REMARK    1  A    between atoms: N_1  and  C_2
REMARK    2  A    between atoms: C_2  and  C_3
REMARK    3  A    between atoms: C_6  and  C_7
REMARK    4  A    between atoms: C_7  and  C_8
REMARK                            x       y       z     vdW  Elec       q    Type
REMARK                         _______ _______ _______ _____ _____    ______ ____
ROOT
ATOM      1  C   UNL     1      50.594   2.283  17.239  0.00  0.00    +0.000 A 
ATOM      2  C   UNL     1      50.261   3.520  17.803  0.00  0.00    +0.000 A 
ATOM      3  C   UNL     1      49.108   4.183  17.394  0.00  0.00    +0.000 A 
ATOM      4  C   UNL     1      48.288   3.592  16.435  0.00  0.00    +0.000 A 
ATOM      5  N   UNL     1      48.572   2.373  15.911  0.00  0.00    +0.000 NA
ATOM      6  C   UNL     1      49.705   1.761  16.310  0.00  0.00    +0.000 A 
ENDROOT
BRANCH   1   7
ATOM      7  C   UNL     1      51.873   1.573  17.576  0.00  0.00    +0.000 C 
BRANCH   7   8
ATOM      8  N   UNL     1      51.648   0.252  18.147  0.00  0.00    +0.000 NA
ATOM      9  H   UNL     1      51.912   0.264  19.130  0.00  0.00    +0.000 HD
ATOM     10  H   UNL     1      52.272  -0.417  17.693  0.00  0.00    +0.000 HD
ENDBRANCH   7   8
ENDBRANCH   1   7
BRANCH   4  11
ATOM     11  C   UNL     1      46.996   4.242  16.024  0.00  0.00    +0.000 C 
BRANCH  11  12
ATOM     12  C   UNL     1      47.163   4.919  14.705  0.00  0.00    +0.000 A 
ATOM     13  C   UNL     1      47.898   6.071  14.472  0.00  0.00    +0.000 A 
ATOM     14  O   UNL     1      47.608   6.599  13.255  0.00  0.00    +0.000 OA
ATOM     15  C   UNL     1      46.715   5.761  12.661  0.00  0.00    +0.000 A 
ATOM     16  C   UNL     1      46.090   5.958  11.442  0.00  0.00    +0.000 A 
ATOM     17  N   UNL     1      45.256   4.993  10.974  0.00  0.00    +0.000 NA
ATOM     18  C   UNL     1      45.076   3.875  11.718  0.00  0.00    +0.000 A 
ATOM     19  C   UNL     1      45.638   3.651  12.970  0.00  0.00    +0.000 A 
ATOM     20  C   UNL     1      46.480   4.656  13.470  0.00  0.00    +0.000 A 
ENDBRANCH  11  12
ENDBRANCH   4  11
TORSDOF 4
ENDMDL
MODEL 7
REMARK VINA RESULT:    -5.332      3.353      5.206
REMARK INTER + INTRA:          -6.986
REMARK INTER:                  -6.526
REMARK INTRA:                  -0.460
REMARK UNBOUND:                -0.563
REMARK  Name = 
REMARK  4 active torsions:
REMARK  status: ('A' for Active; 'I' for Inactive)
REMARK    1  A    between atoms: N_1  and  C_2
REMARK    2  A    between atoms: C_2  and  C_3
REMARK    3  A    between atoms: C_6  and  C_7
REMARK    4  A    between atoms: C_7  and  C_8
REMARK                            x       y       z     vdW  Elec       q    Type
REMARK                         _______ _______ _______ _____ _____    ______ ____
ROOT
ATOM      1  C   UNL     1      44.530   4.136  11.299  0.00  0.00    +0.000 A 
ATOM      2  C   UNL     1      45.251   5.026  10.495  0.00  0.00    +0.000 A 
ATOM      3  C   UNL     1      45.770   6.194  11.044  0.00  0.00    +0.000 A 
ATOM      4  C   UNL     1      45.578   6.452  12.400  0.00  0.00    +0.000 A 
ATOM      5  N   UNL     1      44.920   5.579  13.203  0.00  0.00    +0.000 NA
ATOM      6  C   UNL     1      44.411   4.464  12.642  0.00  0.00    +0.000 A 
ENDROOT
BRANCH   1   7
ATOM      7  C   UNL     1      43.870   2.911  10.735  0.00  0.00    +0.000 C 
BRANCH   7   8
ATOM      8  N   UNL     1      43.020   2.234  11.705  0.00  0.00    +0.000 NA
ATOM      9  H   UNL     1      42.389   2.912  12.127  0.00  0.00    +0.000 HD
ATOM     10  H   UNL     1      43.601   1.875  12.464  0.00  0.00    +0.000 HD
ENDBRANCH   7   8
ENDBRANCH   1   7
BRANCH   4  11
ATOM     11  C   UNL     1      46.188   7.665  13.045  0.00  0.00    +0.000 C 
BRANCH  11  12
ATOM     12  C   UNL     1      47.651   7.453  13.250  0.00  0.00    +0.000 A 
ATOM     13  C   UNL     1      48.224   6.619  14.197  0.00  0.00    +0.000 A 
ATOM     14  O   UNL     1      49.550   6.873  14.336  0.00  0.00    +0.000 OA
ATOM     15  C   UNL     1      49.864   7.846  13.437  0.00  0.00    +0.000 A 
ATOM     16  C   UNL     1      51.094   8.465  13.293  0.00  0.00    +0.000 A 
ATOM     17  N   UNL     1      51.246   9.389  12.308  0.00  0.00    +0.000 NA
ATOM     18  C   UNL     1      50.190   9.662  11.506  0.00  0.00    +0.000 A 
ATOM     19  C   UNL     1      48.922   9.108  11.641  0.00  0.00    +0.000 A 
ATOM     20  C   UNL     1      48.751   8.171  12.672  0.00  0.00    +0.000 A 
ENDBRANCH  11  12
ENDBRANCH   4  11
TORSDOF 4
ENDMDL
MODEL 8
REMARK VINA RESULT:    -4.968      3.615      6.075
REMARK INTER + INTRA:          -6.548
REMARK INTER:                  -6.232
REMARK INTRA:                  -0.316
REMARK UNBOUND:                -0.563
REMARK  Name = 
REMARK  4 active torsions:
REMARK  status: ('A' for Active; 'I' for Inactive)
REMARK    1  A    between atoms: N_1  and  C_2
REMARK    2  A    between atoms: C_2  and  C_3
REMARK    3  A    between atoms: C_6  and  C_7
REMARK    4  A    between atoms: C_7  and  C_8
REMARK                            x       y       z     vdW  Elec       q    Type
REMARK                         _______ _______ _______ _____ _____    ______ ____
ROOT
ATOM      1  C   UNL     1      50.266   8.255  12.562  0.00  0.00    +0.000 A 
ATOM      2  C   UNL     1      49.543   7.720  11.489  0.00  0.00    +0.000 A 
ATOM      3  C   UNL     1      48.180   7.475  11.622  0.00  0.00    +0.000 A 
ATOM      4  C   UNL     1      47.548   7.784  12.825  0.00  0.00    +0.000 A 
ATOM      5  N   UNL     1      48.224   8.344  13.859  0.00  0.00    +0.000 NA
ATOM      6  C   UNL     1      49.547   8.554  13.711  0.00  0.00    +0.000 A 
ENDROOT
BRANCH   1   7
ATOM      7  C   UNL     1      51.753   8.450  12.501  0.00  0.00    +0.000 C 
BRANCH   7   8
ATOM      8  N   UNL     1      52.432   7.969  13.696  0.00  0.00    +0.000 NA
ATOM      9  H   UNL     1      53.309   7.528  13.427  0.00  0.00    +0.000 HD
ATOM     10  H   UNL     1      51.866   7.237  14.128  0.00  0.00    +0.000 HD
ENDBRANCH   7   8
ENDBRANCH   1   7
BRANCH   4  11
ATOM     11  C   UNL     1      46.064   7.604  12.980  0.00  0.00    +0.000 C 
BRANCH  11  12
ATOM     12  C   UNL     1      45.738   6.154  13.123  0.00  0.00    +0.000 A 
ATOM     13  C   UNL     1      46.546   5.197  13.715  0.00  0.00    +0.000 A 
ATOM     14  O   UNL     1      46.118   3.943  13.420  0.00  0.00    +0.000 OA
ATOM     15  C   UNL     1      44.989   4.075  12.671  0.00  0.00    +0.000 A 
ATOM     16  C   UNL     1      44.267   3.050  12.085  0.00  0.00    +0.000 A 
ATOM     17  N   UNL     1      43.132   3.359  11.404  0.00  0.00    +0.000 NA
ATOM     18  C   UNL     1      42.752   4.657  11.332  0.00  0.00    +0.000 A 
ATOM     19  C   UNL     1      43.467   5.728  11.857  0.00  0.00    +0.000 A 
ATOM     20  C   UNL     1      44.654   5.418  12.540  0.00  0.00    +0.000 A 
ENDBRANCH  11  12
ENDBRANCH   4  11
TORSDOF 4
ENDMDL
MODEL 9
REMARK VINA RESULT:    -4.868      3.043      6.159
REMARK INTER + INTRA:          -6.428
REMARK INTER:                  -6.187
REMARK INTRA:                  -0.241
REMARK UNBOUND:                -0.563
REMARK  Name = 
REMARK  4 active torsions:
REMARK  status: ('A' for Active; 'I' for Inactive)
REMARK    1  A    between atoms: N_1  and  C_2
REMARK    2  A    between atoms: C_2  and  C_3
REMARK    3  A    between atoms: C_6  and  C_7
REMARK    4  A    between atoms: C_7  and  C_8
REMARK                            x       y       z     vdW  Elec       q    Type
REMARK                         _______ _______ _______ _____ _____    ______ ____
ROOT
ATOM      1  C   UNL     1      48.619   7.570  14.721  0.00  0.00    +0.000 A 
ATOM      2  C   UNL     1      47.978   8.767  14.380  0.00  0.00    +0.000 A 
ATOM      3  C   UNL     1      46.965   8.766  13.426  0.00  0.00    +0.000 A 
ATOM      4  C   UNL     1      46.590   7.561  12.834  0.00  0.00    +0.000 A 
ATOM      5  N   UNL     1      47.170   6.386  13.185  0.00  0.00    +0.000 NA
ATOM      6  C   UNL     1      48.161   6.418  14.098  0.00  0.00    +0.000 A 
ENDROOT
BRANCH   1   7
ATOM      7  C   UNL     1      49.779   7.533  15.673  0.00  0.00    +0.000 C 
BRANCH   7   8
ATOM      8  N   UNL     1      50.992   7.008  15.060  0.00  0.00    +0.000 NA
ATOM      9  H   UNL     1      51.761   7.649  15.240  0.00  0.00    +0.000 HD
ATOM     10  H   UNL     1      50.869   6.986  14.047  0.00  0.00    +0.000 HD
ENDBRANCH   7   8
ENDBRANCH   1   7
BRANCH   4  11
ATOM     11  C   UNL     1      45.450   7.510  11.856  0.00  0.00    +0.000 C 
BRANCH  11  12
ATOM     12  C   UNL     1      45.440   6.193  11.153  0.00  0.00    +0.000 A 
ATOM     13  C   UNL     1      45.989   5.937   9.906  0.00  0.00    +0.000 A 
ATOM     14  O   UNL     1      45.556   4.747   9.415  0.00  0.00    +0.000 OA
ATOM     15  C   UNL     1      44.757   4.192  10.367  0.00  0.00    +0.000 A 
ATOM     16  C   UNL     1      44.040   3.014  10.252  0.00  0.00    +0.000 A 
ATOM     17  N   UNL     1      43.325   2.580  11.323  0.00  0.00    +0.000 NA
ATOM     18  C   UNL     1      43.349   3.315  12.460  0.00  0.00    +0.000 A 
ATOM     19  C   UNL     1      44.010   4.529  12.612  0.00  0.00    +0.000 A 
ATOM     20  C   UNL     1      44.730   4.996  11.500  0.00  0.00    +0.000 A 
ENDBRANCH  11  12
ENDBRANCH   4  11
TORSDOF 4
ENDMDL
