MODEL 1
REMARK VINA RESULT:    -9.216      0.000      0.000
REMARK INTER + INTRA:         -11.435
REMARK INTER:                 -11.372
REMARK INTRA:                  -0.064
REMARK UNBOUND:                -0.064
REMARK  Name = 
REMARK  4 active torsions:
REMARK  status: ('A' for Active; 'I' for Inactive)
REMARK    1  A    between atoms: C_2  and  C_4
REMARK    2  A    between atoms: N_8  and  C_9
REMARK    3  A    between atoms: C_9  and  C_10
REMARK    4  A    between atoms: C_12  and  C_13
REMARK                            x       y       z     vdW  Elec       q    Type
REMARK                         _______ _______ _______ _____ _____    ______ ____
ROOT
ATOM      1  C   UNL     1      43.860   4.701  11.583  0.00  0.00    +0.000 C 
ATOM      2  C   UNL     1      42.531   5.163  12.161  0.00  0.00    +0.000 C 
ATOM      3  C   UNL     1      43.138   5.922  11.027  0.00  0.00    +0.000 C 
ENDROOT
BRANCH   1   8
ATOM      4  C   UNL     1      46.423   2.743   7.567  0.00  0.00    +0.000 A 
ATOM      5  C   UNL     1      46.123   4.065   7.884  0.00  0.00    +0.000 A 
ATOM      6  C   UNL     1      45.262   4.331   8.952  0.00  0.00    +0.000 A 
ATOM      7  C   UNL     1      44.732   3.274   9.689  0.00  0.00    +0.000 A 
ATOM      8  N   UNL     1      43.879   3.463  10.780  0.00  0.00    +0.000 N 
ATOM      9  N   UNL     1      44.998   1.989   9.375  0.00  0.00    +0.000 NA
ATOM     10  C   UNL     1      45.823   1.747   8.322  0.00  0.00    +0.000 A 
ATOM     11  H   UNL     1      43.733   2.565  11.230  0.00  0.00    +0.000 HD
BRANCH   4  13
ATOM     12  N   UNL     1      47.305   3.135   5.336  0.00  0.00    +0.000 N 
ATOM     13  C   UNL     1      47.329   2.360   6.464  0.00  0.00    +0.000 C 
ATOM     14  O   UNL     1      48.094   1.412   6.564  0.00  0.00    +0.000 OA
ATOM     15  H   UNL     1      47.999   2.924   4.631  0.00  0.00    +0.000 HD
ATOM     16  H   UNL     1      46.881   4.051   5.313  0.00  0.00    +0.000 HD
ENDBRANCH   4  13
ENDBRANCH   1   8
BRANCH   1  17
ATOM     17  C   UNL     1      45.173   5.013  12.323  0.00  0.00    +0.000 A 
ATOM     18  C   UNL     1      45.947   6.119  11.944  0.00  0.00    +0.000 A 
ATOM     19  C   UNL     1      47.126   6.456  12.628  0.00  0.00    +0.000 A 
ATOM     20  C   UNL     1      47.477   5.639  13.705  0.00  0.00    +0.000 A 
ATOM     21  C   UNL     1      46.670   4.561  14.033  0.00  0.00    +0.000 A 
ATOM     22  N   UNL     1      45.548   4.230  13.366  0.00  0.00    +0.000 NA
BRANCH  19  23
ATOM     23  C   UNL     1      47.947   7.624  12.234  0.00  0.00    +0.000 A 
ATOM     24  C   UNL     1      49.301   7.510  11.884  0.00  0.00    +0.000 A 
ATOM     25  C   UNL     1      50.043   8.635  11.515  0.00  0.00    +0.000 A 
ATOM     26  C   UNL     1      49.414   9.865  11.513  0.00  0.00    +0.000 A 
ATOM     27  N   UNL     1      48.120  10.037  11.842  0.00  0.00    +0.000 NA
ATOM     28  C   UNL     1      47.427   8.921  12.185  0.00  0.00    +0.000 A 
ENDBRANCH  19  23
ENDBRANCH   1  17
TORSDOF 4
ENDMDL
MODEL 2
REMARK VINA RESULT:    -7.703      3.305      7.493
REMARK INTER + INTRA:          -9.568
REMARK INTER:                  -9.178
REMARK INTRA:                  -0.391
REMARK UNBOUND:                -0.064
REMARK  Name = 
REMARK  4 active torsions:
REMARK  status: ('A' for Active; 'I' for Inactive)
REMARK    1  A    between atoms: C_2  and  C_4
REMARK    2  A    between atoms: N_8  and  C_9
REMARK    3  A    between atoms: C_9  and  C_10
REMARK    4  A    between atoms: C_12  and  C_13
REMARK                            x       y       z     vdW  Elec       q    Type
REMARK                         _______ _______ _______ _____ _____    ______ ____
ROOT
ATOM      1  C   UNL     1      48.488   7.727  12.844  0.00  0.00    +0.000 C 
ATOM      2  C   UNL     1      49.697   7.277  12.038  0.00  0.00    +0.000 C 
ATOM      3  C   UNL     1      49.344   8.727  12.077  0.00  0.00    +0.000 C 
ENDROOT
BRANCH   1   8
ATOM      4  C   UNL     1      47.909   4.338  16.679  0.00  0.00    +0.000 A 
ATOM      5  C   UNL     1      47.296   4.396  15.430  0.00  0.00    +0.000 A 
ATOM      6  C   UNL     1      47.498   5.519  14.624  0.00  0.00    +0.000 A 
ATOM      7  C   UNL     1      48.319   6.552  15.074  0.00  0.00    +0.000 A 
ATOM      8  N   UNL     1      48.580   7.697  14.316  0.00  0.00    +0.000 N 
ATOM      9  N   UNL     1      48.898   6.516  16.291  0.00  0.00    +0.000 NA
ATOM     10  C   UNL     1      48.677   5.424  17.071  0.00  0.00    +0.000 A 
ATOM     11  H   UNL     1      49.299   8.235  14.790  0.00  0.00    +0.000 HD
BRANCH   4  13
ATOM     12  N   UNL     1      48.837   2.891  18.398  0.00  0.00    +0.000 N 
ATOM     13  C   UNL     1      47.766   3.191  17.601  0.00  0.00    +0.000 C 
ATOM     14  O   UNL     1      46.723   2.558  17.676  0.00  0.00    +0.000 OA
ATOM     15  H   UNL     1      48.692   2.171  19.094  0.00  0.00    +0.000 HD
ATOM     16  H   UNL     1      49.606   3.530  18.541  0.00  0.00    +0.000 HD
ENDBRANCH   4  13
ENDBRANCH   1   8
BRANCH   1  17
ATOM     17  C   UNL     1      47.069   7.531  12.280  0.00  0.00    +0.000 A 
ATOM     18  C   UNL     1      46.767   6.397  11.514  0.00  0.00    +0.000 A 
ATOM     19  C   UNL     1      45.472   6.167  11.023  0.00  0.00    +0.000 A 
ATOM     20  C   UNL     1      44.505   7.123  11.346  0.00  0.00    +0.000 A 
ATOM     21  C   UNL     1      44.864   8.223  12.108  0.00  0.00    +0.000 A 
ATOM     22  N   UNL     1      46.110   8.449  12.565  0.00  0.00    +0.000 NA
BRANCH  19  23
ATOM     23  C   UNL     1      45.146   4.969  10.216  0.00  0.00    +0.000 A 
ATOM     24  C   UNL     1      45.581   4.811   8.892  0.00  0.00    +0.000 A 
ATOM     25  C   UNL     1      45.255   3.665   8.163  0.00  0.00    +0.000 A 
ATOM     26  C   UNL     1      44.486   2.693   8.774  0.00  0.00    +0.000 A 
ATOM     27  N   UNL     1      44.038   2.790  10.041  0.00  0.00    +0.000 NA
ATOM     28  C   UNL     1      44.381   3.913  10.722  0.00  0.00    +0.000 A 
ENDBRANCH  19  23
ENDBRANCH   1  17
TORSDOF 4
ENDMDL
MODEL 3
REMARK VINA RESULT:    -7.336      2.775      6.857
REMARK INTER + INTRA:          -9.115
REMARK INTER:                  -9.142
REMARK INTRA:                   0.027
REMARK UNBOUND:                -0.064
REMARK  Name = 
REMARK  4 active torsions:
REMARK  status: ('A' for Active; 'I' for Inactive)
REMARK    1  A    between atoms: C_2  and  C_4
REMARK    2  A    between atoms: N_8  and  C_9
REMARK    3  A    between atoms: C_9  and  C_10
REMARK    4  A    between atoms: C_12  and  C_13
REMARK                            x       y       z     vdW  Elec       q    Type
REMARK                         _______ _______ _______ _____ _____    ______ ____
ROOT
ATOM      1  C   UNL     1      45.175   5.708  12.211  0.00  0.00    +0.000 C 
ATOM      2  C   UNL     1      44.846   7.100  11.694  0.00  0.00    +0.000 C 
ATOM      3  C   UNL     1      43.993   6.497  12.762  0.00  0.00    +0.000 C 
ENDROOT
BRANCH   1   8
ATOM      4  C   UNL     1      49.783   7.918  12.852  0.00  0.00    +0.000 A 
ATOM      5  C   UNL     1      48.988   7.810  11.714  0.00  0.00    +0.000 A 
ATOM      6  C   UNL     1      47.844   7.009  11.756  0.00  0.00    +0.000 A 
ATOM      7  C   UNL     1      47.510   6.347  12.935  0.00  0.00    +0.000 A 
ATOM      8  N   UNL     1      46.373   5.543  13.057  0.00  0.00    +0.000 N 
ATOM      9  N   UNL     1      48.286   6.426  14.036  0.00  0.00    +0.000 NA
ATOM     10  C   UNL     1      49.406   7.195  13.973  0.00  0.00    +0.000 A 
ATOM     11  H   UNL     1      46.272   5.280  14.032  0.00  0.00    +0.000 HD
BRANCH   4  13
ATOM     12  N   UNL     1      52.185   8.104  13.179  0.00  0.00    +0.000 N 
ATOM     13  C   UNL     1      51.006   8.746  12.911  0.00  0.00    +0.000 C 
ATOM     14  O   UNL     1      50.976   9.949  12.695  0.00  0.00    +0.000 OA
ATOM     15  H   UNL     1      53.026   8.663  13.117  0.00  0.00    +0.000 HD
ATOM     16  H   UNL     1      52.286   7.101  13.116  0.00  0.00    +0.000 HD
ENDBRANCH   4  13
ENDBRANCH   1   8
BRANCH   1  17
ATOM     17  C   UNL     1      44.790   4.468  11.385  0.00  0.00    +0.000 A 
ATOM     18  C   UNL     1      45.488   4.163  10.208  0.00  0.00    +0.000 A 
ATOM     19  C   UNL     1      45.191   3.015   9.456  0.00  0.00    +0.000 A 
ATOM     20  C   UNL     1      44.172   2.194   9.949  0.00  0.00    +0.000 A 
ATOM     21  C   UNL     1      43.520   2.547  11.119  0.00  0.00    +0.000 A 
ATOM     22  N   UNL     1      43.796   3.657  11.830  0.00  0.00    +0.000 NA
BRANCH  19  23
ATOM     23  C   UNL     1      45.926   2.685   8.214  0.00  0.00    +0.000 A 
ATOM     24  C   UNL     1      46.126   3.619   7.186  0.00  0.00    +0.000 A 
ATOM     25  C   UNL     1      46.828   3.272   6.030  0.00  0.00    +0.000 A 
ATOM     26  C   UNL     1      47.313   1.984   5.917  0.00  0.00    +0.000 A 
ATOM     27  N   UNL     1      47.150   1.043   6.867  0.00  0.00    +0.000 NA
ATOM     28  C   UNL     1      46.472   1.419   7.982  0.00  0.00    +0.000 A 
ENDBRANCH  19  23
ENDBRANCH   1  17
TORSDOF 4
ENDMDL
MODEL 4
REMARK VINA RESULT:    -6.847      2.876      6.819
REMARK INTER + INTRA:          -8.512
REMARK INTER:                  -8.113
REMARK INTRA:                  -0.400
REMARK UNBOUND:                -0.064
REMARK  Name = 
REMARK  4 active torsions:
REMARK  status: ('A' for Active; 'I' for Inactive)
REMARK    1  A    between atoms: C_2  and  C_4
REMARK    2  A    between atoms: N_8  and  C_9
REMARK    3  A    between atoms: C_9  and  C_10
REMARK    4  A    between atoms: C_12  and  C_13
REMARK                            x       y       z     vdW  Elec       q    Type
REMARK                         _______ _______ _______ _____ _____    ______ ____
ROOT
ATOM      1  C   UNL     1      45.861   7.802  12.701  0.00  0.00    +0.000 C 
ATOM      2  C   UNL     1      45.836   8.966  11.722  0.00  0.00    +0.000 C 
ATOM      3  C   UNL     1      44.904   8.972  12.889  0.00  0.00    +0.000 C 
ENDROOT
BRANCH   1   8
ATOM      4  C   UNL     1      50.991   8.228  12.500  0.00  0.00    +0.000 A 
ATOM      5  C   UNL     1      50.081   7.845  11.518  0.00  0.00    +0.000 A 
ATOM      6  C   UNL     1      48.743   7.644  11.870  0.00  0.00    +0.000 A 
ATOM      7  C   UNL     1      48.340   7.844  13.188  0.00  0.00    +0.000 A 
ATOM      8  N   UNL     1      47.018   7.679  13.610  0.00  0.00    +0.000 N 
ATOM      9  N   UNL     1      49.218   8.192  14.151  0.00  0.00    +0.000 NA
ATOM     10  C   UNL     1      50.519   8.367  13.797  0.00  0.00    +0.000 A 
ATOM     11  H   UNL     1      46.946   8.005  14.568  0.00  0.00    +0.000 HD
BRANCH   4  13
ATOM     12  N   UNL     1      53.331   7.784  12.983  0.00  0.00    +0.000 N 
ATOM     13  C   UNL     1      52.422   8.474  12.228  0.00  0.00    +0.000 C 
ATOM     14  O   UNL     1      52.784   9.234  11.341  0.00  0.00    +0.000 OA
ATOM     15  H   UNL     1      54.303   7.884  12.720  0.00  0.00    +0.000 HD
ATOM     16  H   UNL     1      53.078   6.980  13.539  0.00  0.00    +0.000 HD
ENDBRANCH   4  13
ENDBRANCH   1   8
BRANCH   1  17
ATOM     17  C   UNL     1      45.183   6.470  12.334  0.00  0.00    +0.000 A 
ATOM     18  C   UNL     1      45.540   5.801  11.155  0.00  0.00    +0.000 A 
ATOM     19  C   UNL     1      44.972   4.563  10.814  0.00  0.00    +0.000 A 
ATOM     20  C   UNL     1      44.043   4.035  11.715  0.00  0.00    +0.000 A 
ATOM     21  C   UNL     1      43.732   4.742  12.865  0.00  0.00    +0.000 A 
ATOM     22  N   UNL     1      44.266   5.937  13.182  0.00  0.00    +0.000 NA
BRANCH  19  23
ATOM     23  C   UNL     1      45.347   3.850   9.572  0.00  0.00    +0.000 A 
ATOM     24  C   UNL     1      45.266   2.454   9.450  0.00  0.00    +0.000 A 
ATOM     25  C   UNL     1      45.626   1.817   8.261  0.00  0.00    +0.000 A 
ATOM     26  C   UNL     1      46.073   2.592   7.208  0.00  0.00    +0.000 A 
ATOM     27  N   UNL     1      46.175   3.934   7.267  0.00  0.00    +0.000 NA
ATOM     28  C   UNL     1      45.807   4.521   8.435  0.00  0.00    +0.000 A 
ENDBRANCH  19  23
ENDBRANCH   1  17
TORSDOF 4
ENDMDL
MODEL 5
REMARK VINA RESULT:    -6.786      3.022      6.989
REMARK INTER + INTRA:          -8.437
REMARK INTER:                  -7.979
REMARK INTRA:                  -0.458
REMARK UNBOUND:                -0.064
REMARK  Name = 
REMARK  4 active torsions:
REMARK  status: ('A' for Active; 'I' for Inactive)
REMARK    1  A    between atoms: C_2  and  C_4
REMARK    2  A    between atoms: N_8  and  C_9
REMARK    3  A    between atoms: C_9  and  C_10
REMARK    4  A    between atoms: C_12  and  C_13
REMARK                            x       y       z     vdW  Elec       q    Type
REMARK                         _______ _______ _______ _____ _____    ______ ____
ROOT
ATOM      1  C   UNL     1      46.263   4.582  13.053  0.00  0.00    +0.000 C 
ATOM      2  C   UNL     1      45.884   4.444  14.520  0.00  0.00    +0.000 C 
ATOM      3  C   UNL     1      47.030   3.650  13.984  0.00  0.00    +0.000 C 
ENDROOT
BRANCH   1   8
ATOM      4  C   UNL     1      44.895   9.349  11.664  0.00  0.00    +0.000 A 
ATOM      5  C   UNL     1      44.208   8.145  11.540  0.00  0.00    +0.000 A 
ATOM      6  C   UNL     1      44.867   6.950  11.843  0.00  0.00    +0.000 A 
ATOM      7  C   UNL     1      46.191   6.985  12.276  0.00  0.00    +0.000 A 
ATOM      8  N   UNL     1      46.909   5.834  12.613  0.00  0.00    +0.000 N 
ATOM      9  N   UNL     1      46.872   8.145  12.377  0.00  0.00    +0.000 NA
ATOM     10  C   UNL     1      46.222   9.297  12.062  0.00  0.00    +0.000 A 
ATOM     11  H   UNL     1      47.793   6.118  13.021  0.00  0.00    +0.000 HD
BRANCH   4  13
ATOM     12  N   UNL     1      43.084  10.940  11.974  0.00  0.00    +0.000 N 
ATOM     13  C   UNL     1      44.284  10.664  11.377  0.00  0.00    +0.000 C 
ATOM     14  O   UNL     1      44.842  11.488  10.667  0.00  0.00    +0.000 OA
ATOM     15  H   UNL     1      42.727  11.879  11.851  0.00  0.00    +0.000 HD
ATOM     16  H   UNL     1      42.722  10.401  12.747  0.00  0.00    +0.000 HD
ENDBRANCH   4  13
ENDBRANCH   1   8
BRANCH   1  17
ATOM     17  C   UNL     1      45.432   3.867  11.972  0.00  0.00    +0.000 A 
ATOM     18  C   UNL     1      46.001   3.580  10.724  0.00  0.00    +0.000 A 
ATOM     19  C   UNL     1      45.284   2.890   9.733  0.00  0.00    +0.000 A 
ATOM     20  C   UNL     1      43.983   2.500  10.063  0.00  0.00    +0.000 A 
ATOM     21  C   UNL     1      43.477   2.811  11.314  0.00  0.00    +0.000 A 
ATOM     22  N   UNL     1      44.161   3.486  12.258  0.00  0.00    +0.000 NA
BRANCH  19  23
ATOM     23  C   UNL     1      45.880   2.581   8.413  0.00  0.00    +0.000 A 
ATOM     24  C   UNL     1      45.991   3.539   7.393  0.00  0.00    +0.000 A 
ATOM     25  C   UNL     1      46.562   3.211   6.162  0.00  0.00    +0.000 A 
ATOM     26  C   UNL     1      47.008   1.918   5.967  0.00  0.00    +0.000 A 
ATOM     27  N   UNL     1      46.926   0.956   6.906  0.00  0.00    +0.000 NA
ATOM     28  C   UNL     1      46.374   1.313   8.094  0.00  0.00    +0.000 A 
ENDBRANCH  19  23
ENDBRANCH   1  17
TORSDOF 4
ENDMDL
MODEL 6
REMARK VINA RESULT:    -6.633      4.151      6.468
REMARK INTER + INTRA:          -8.248
REMARK INTER:                  -7.809
REMARK INTRA:                  -0.439
REMARK UNBOUND:                -0.064
REMARK  Name = 
REMARK  4 active torsions:
REMARK  status: ('A' for Active; 'I' for Inactive)
REMARK    1  A    between atoms: C_2  and  C_4
REMARK    2  A    between atoms: N_8  and  C_9
REMARK    3  A    between atoms: C_9  and  C_10
REMARK    4  A    between atoms: C_12  and  C_13
REMARK                            x       y       z     vdW  Elec       q    Type
REMARK                         _______ _______ _______ _____ _____    ______ ____
ROOT
ATOM      1  C   UNL     1      45.786   4.482  12.940  0.00  0.00    +0.000 C 
ATOM      2  C   UNL     1      44.357   4.049  13.227  0.00  0.00    +0.000 C 
ATOM      3  C   UNL     1      44.914   3.865  11.854  0.00  0.00    +0.000 C 
ENDROOT
BRANCH   1   8
ATOM      4  C   UNL     1      48.206   3.889  17.448  0.00  0.00    +0.000 A 
ATOM      5  C   UNL     1      47.578   5.006  16.905  0.00  0.00    +0.000 A 
ATOM      6  C   UNL     1      47.136   4.963  15.580  0.00  0.00    +0.000 A 
ATOM      7  C   UNL     1      47.317   3.802  14.831  0.00  0.00    +0.000 A 
ATOM      8  N   UNL     1      46.886   3.678  13.507  0.00  0.00    +0.000 N 
ATOM      9  N   UNL     1      47.945   2.722  15.341  0.00  0.00    +0.000 NA
ATOM     10  C   UNL     1      48.385   2.787  16.626  0.00  0.00    +0.000 A 
ATOM     11  H   UNL     1      47.008   2.712  13.221  0.00  0.00    +0.000 HD
BRANCH   4  13
ATOM     12  N   UNL     1      48.243   2.809  19.625  0.00  0.00    +0.000 N 
ATOM     13  C   UNL     1      48.700   3.832  18.840  0.00  0.00    +0.000 C 
ATOM     14  O   UNL     1      49.511   4.643  19.265  0.00  0.00    +0.000 OA
ATOM     15  H   UNL     1      48.665   2.722  20.541  0.00  0.00    +0.000 HD
ATOM     16  H   UNL     1      47.780   1.996  19.246  0.00  0.00    +0.000 HD
ENDBRANCH   4  13
ENDBRANCH   1   8
BRANCH   1  17
ATOM     17  C   UNL     1      46.113   5.972  12.731  0.00  0.00    +0.000 A 
ATOM     18  C   UNL     1      47.399   6.360  12.333  0.00  0.00    +0.000 A 
ATOM     19  C   UNL     1      47.717   7.706  12.090  0.00  0.00    +0.000 A 
ATOM     20  C   UNL     1      46.682   8.630  12.259  0.00  0.00    +0.000 A 
ATOM     21  C   UNL     1      45.430   8.185  12.653  0.00  0.00    +0.000 A 
ATOM     22  N   UNL     1      45.132   6.895  12.900  0.00  0.00    +0.000 NA
BRANCH  19  23
ATOM     23  C   UNL     1      49.073   8.122  11.667  0.00  0.00    +0.000 A 
ATOM     24  C   UNL     1      49.481   9.465  11.657  0.00  0.00    +0.000 A 
ATOM     25  C   UNL     1      50.770   9.819  11.253  0.00  0.00    +0.000 A 
ATOM     26  C   UNL     1      51.633   8.816  10.854  0.00  0.00    +0.000 A 
ATOM     27  N   UNL     1      51.298   7.511  10.839  0.00  0.00    +0.000 NA
ATOM     28  C   UNL     1      50.040   7.203  11.248  0.00  0.00    +0.000 A 
ENDBRANCH  19  23
ENDBRANCH   1  17
TORSDOF 4
ENDMDL
MODEL 7
REMARK VINA RESULT:    -6.369      3.111      5.925
REMARK INTER + INTRA:          -7.921
REMARK INTER:                  -8.150
REMARK INTRA:                   0.229
REMARK UNBOUND:                -0.064
REMARK  Name = 
REMARK  4 active torsions:
REMARK  status: ('A' for Active; 'I' for Inactive)
REMARK    1  A    between atoms: C_2  and  C_4
REMARK    2  A    between atoms: N_8  and  C_9
REMARK    3  A    between atoms: C_9  and  C_10
REMARK    4  A    between atoms: C_12  and  C_13
REMARK                            x       y       z     vdW  Elec       q    Type
REMARK                         _______ _______ _______ _____ _____    ______ ____
ROOT
ATOM      1  C   UNL     1      47.361   8.582  13.123  0.00  0.00    +0.000 C 
ATOM      2  C   UNL     1      47.507   9.983  12.549  0.00  0.00    +0.000 C 
ATOM      3  C   UNL     1      47.905   8.808  11.718  0.00  0.00    +0.000 C 
ENDROOT
BRANCH   1   8
ATOM      4  C   UNL     1      44.661   4.484  11.559  0.00  0.00    +0.000 A 
ATOM      5  C   UNL     1      45.714   5.156  10.944  0.00  0.00    +0.000 A 
ATOM      6  C   UNL     1      46.174   6.354  11.497  0.00  0.00    +0.000 A 
ATOM      7  C   UNL     1      45.584   6.848  12.658  0.00  0.00    +0.000 A 
ATOM      8  N   UNL     1      46.001   8.030  13.277  0.00  0.00    +0.000 N 
ATOM      9  N   UNL     1      44.548   6.217  13.249  0.00  0.00    +0.000 NA
ATOM     10  C   UNL     1      44.101   5.062  12.689  0.00  0.00    +0.000 A 
ATOM     11  H   UNL     1      45.518   8.112  14.165  0.00  0.00    +0.000 HD
BRANCH   4  13
ATOM     12  N   UNL     1      44.902   2.470  10.220  0.00  0.00    +0.000 N 
ATOM     13  C   UNL     1      44.110   3.207  11.059  0.00  0.00    +0.000 C 
ATOM     14  O   UNL     1      43.009   2.806  11.406  0.00  0.00    +0.000 OA
ATOM     15  H   UNL     1      44.556   1.553   9.967  0.00  0.00    +0.000 HD
ATOM     16  H   UNL     1      45.891   2.641  10.114  0.00  0.00    +0.000 HD
ENDBRANCH   4  13
ENDBRANCH   1   8
BRANCH   1  17
ATOM     17  C   UNL     1      48.393   8.052  14.134  0.00  0.00    +0.000 A 
ATOM     18  C   UNL     1      48.106   6.915  14.901  0.00  0.00    +0.000 A 
ATOM     19  C   UNL     1      49.044   6.380  15.798  0.00  0.00    +0.000 A 
ATOM     20  C   UNL     1      50.275   7.035  15.877  0.00  0.00    +0.000 A 
ATOM     21  C   UNL     1      50.502   8.154  15.091  0.00  0.00    +0.000 A 
ATOM     22  N   UNL     1      49.595   8.674  14.242  0.00  0.00    +0.000 NA
BRANCH  19  23
ATOM     23  C   UNL     1      48.747   5.177  16.610  0.00  0.00    +0.000 A 
ATOM     24  C   UNL     1      47.510   4.517  16.556  0.00  0.00    +0.000 A 
ATOM     25  C   UNL     1      47.268   3.383  17.335  0.00  0.00    +0.000 A 
ATOM     26  C   UNL     1      48.273   2.932  18.168  0.00  0.00    +0.000 A 
ATOM     27  N   UNL     1      49.479   3.524  18.265  0.00  0.00    +0.000 NA
ATOM     28  C   UNL     1      49.683   4.618  17.486  0.00  0.00    +0.000 A 
ENDBRANCH  19  23
ENDBRANCH   1  17
TORSDOF 4
ENDMDL
MODEL 8
REMARK VINA RESULT:    -6.368      2.797      5.476
REMARK INTER + INTRA:          -7.921
REMARK INTER:                  -7.263
REMARK INTRA:                  -0.659
REMARK UNBOUND:                -0.064
REMARK  Name = 
REMARK  4 active torsions:
REMARK  status: ('A' for Active; 'I' for Inactive)
REMARK    1  A    between atoms: C_2  and  C_4
REMARK    2  A    between atoms: N_8  and  C_9
REMARK    3  A    between atoms: C_9  and  C_10
REMARK    4  A    between atoms: C_12  and  C_13
REMARK                            x       y       z     vdW  Elec       q    Type
REMARK                         _______ _______ _______ _____ _____    ______ ____
ROOT
ATOM      1  C   UNL     1      47.850   8.151  13.852  0.00  0.00    +0.000 C 
ATOM      2  C   UNL     1      48.558   7.041  14.615  0.00  0.00    +0.000 C 
ATOM      3  C   UNL     1      48.325   8.355  15.285  0.00  0.00    +0.000 C 
ENDROOT
BRANCH   1   8
ATOM      4  C   UNL     1      44.698   5.269  10.973  0.00  0.00    +0.000 A 
ATOM      5  C   UNL     1      46.011   5.671  10.742  0.00  0.00    +0.000 A 
ATOM      6  C   UNL     1      46.601   6.599  11.604  0.00  0.00    +0.000 A 
ATOM      7  C   UNL     1      45.875   7.094  12.685  0.00  0.00    +0.000 A 
ATOM      8  N   UNL     1      46.403   8.010  13.598  0.00  0.00    +0.000 N 
ATOM      9  N   UNL     1      44.595   6.728  12.904  0.00  0.00    +0.000 NA
ATOM     10  C   UNL     1      44.029   5.838  12.046  0.00  0.00    +0.000 A 
ATOM     11  H   UNL     1      45.742   8.118  14.361  0.00  0.00    +0.000 HD
BRANCH   4  13
ATOM     12  N   UNL     1      44.096   4.438   8.770  0.00  0.00    +0.000 N 
ATOM     13  C   UNL     1      43.990   4.286  10.126  0.00  0.00    +0.000 C 
ATOM     14  O   UNL     1      43.365   3.355  10.612  0.00  0.00    +0.000 OA
ATOM     15  H   UNL     1      43.692   3.704   8.203  0.00  0.00    +0.000 HD
ATOM     16  H   UNL     1      44.791   5.030   8.340  0.00  0.00    +0.000 HD
ENDBRANCH   4  13
ENDBRANCH   1   8
BRANCH   1  17
ATOM     17  C   UNL     1      48.616   8.972  12.799  0.00  0.00    +0.000 A 
ATOM     18  C   UNL     1      49.812   8.481  12.258  0.00  0.00    +0.000 A 
ATOM     19  C   UNL     1      50.510   9.185  11.264  0.00  0.00    +0.000 A 
ATOM     20  C   UNL     1      49.945  10.391  10.841  0.00  0.00    +0.000 A 
ATOM     21  C   UNL     1      48.759  10.823  11.412  0.00  0.00    +0.000 A 
ATOM     22  N   UNL     1      48.099  10.154  12.376  0.00  0.00    +0.000 NA
BRANCH  19  23
ATOM     23  C   UNL     1      51.773   8.671  10.687  0.00  0.00    +0.000 A 
ATOM     24  C   UNL     1      52.915   9.473  10.536  0.00  0.00    +0.000 A 
ATOM     25  C   UNL     1      54.090   8.950   9.990  0.00  0.00    +0.000 A 
ATOM     26  C   UNL     1      54.099   7.627   9.592  0.00  0.00    +0.000 A 
ATOM     27  N   UNL     1      53.034   6.810   9.709  0.00  0.00    +0.000 NA
ATOM     28  C   UNL     1      51.913   7.348  10.254  0.00  0.00    +0.000 A 
ENDBRANCH  19  23
ENDBRANCH   1  17
TORSDOF 4
ENDMDL
MODEL 9
REMARK VINA RESULT:    -6.303      3.629      6.539
REMARK INTER + INTRA:          -7.841
REMARK INTER:                  -7.770
REMARK INTRA:                  -0.071
REMARK UNBOUND:                -0.064
REMARK  Name = 
REMARK  4 active torsions:
REMARK  status: ('A' for Active; 'I' for Inactive)
REMARK    1  A    between atoms: C_2  and  C_4
REMARK    2  A    between atoms: N_8  and  C_9
REMARK    3  A    between atoms: C_9  and  C_10
REMARK    4  A    between atoms: C_12  and  C_13
REMARK                            x       y       z     vdW  Elec       q    Type
REMARK                         _______ _______ _______ _____ _____    ______ ____
ROOT
ATOM      1  C   UNL     1      49.071   8.605  12.767  0.00  0.00    +0.000 C 
ATOM      2  C   UNL     1      50.355   9.126  12.141  0.00  0.00    +0.000 C 
ATOM      3  C   UNL     1      49.993   7.687  11.974  0.00  0.00    +0.000 C 
ENDROOT
BRANCH   1   8
ATOM      4  C   UNL     1      44.585   6.454  11.429  0.00  0.00    +0.000 A 
ATOM      5  C   UNL     1      45.865   5.908  11.482  0.00  0.00    +0.000 A 
ATOM      6  C   UNL     1      46.956   6.748  11.717  0.00  0.00    +0.000 A 
ATOM      7  C   UNL     1      46.746   8.112  11.909  0.00  0.00    +0.000 A 
ATOM      8  N   UNL     1      47.786   9.010  12.165  0.00  0.00    +0.000 N 
ATOM      9  N   UNL     1      45.514   8.655  11.836  0.00  0.00    +0.000 NA
ATOM     10  C   UNL     1      44.464   7.827  11.589  0.00  0.00    +0.000 A 
ATOM     11  H   UNL     1      47.379   9.910  12.398  0.00  0.00    +0.000 HD
BRANCH   4  13
ATOM     12  N   UNL     1      42.205   6.097  11.761  0.00  0.00    +0.000 N 
ATOM     13  C   UNL     1      43.368   5.650  11.196  0.00  0.00    +0.000 C 
ATOM     14  O   UNL     1      43.388   4.646  10.499  0.00  0.00    +0.000 OA
ATOM     15  H   UNL     1      41.362   5.595  11.512  0.00  0.00    +0.000 HD
ATOM     16  H   UNL     1      42.100   7.033  12.125  0.00  0.00    +0.000 HD
ENDBRANCH   4  13
ENDBRANCH   1   8
BRANCH   1  17
ATOM     17  C   UNL     1      49.014   8.308  14.276  0.00  0.00    +0.000 A 
ATOM     18  C   UNL     1      48.741   7.010  14.728  0.00  0.00    +0.000 A 
ATOM     19  C   UNL     1      48.726   6.698  16.097  0.00  0.00    +0.000 A 
ATOM     20  C   UNL     1      49.006   7.746  16.978  0.00  0.00    +0.000 A 
ATOM     21  C   UNL     1      49.272   9.008  16.471  0.00  0.00    +0.000 A 
ATOM     22  N   UNL     1      49.270   9.308  15.158  0.00  0.00    +0.000 NA
BRANCH  19  23
ATOM     23  C   UNL     1      48.440   5.328  16.581  0.00  0.00    +0.000 A 
ATOM     24  C   UNL     1      49.205   4.707  17.580  0.00  0.00    +0.000 A 
ATOM     25  C   UNL     1      48.903   3.413  18.012  0.00  0.00    +0.000 A 
ATOM     26  C   UNL     1      47.839   2.756  17.426  0.00  0.00    +0.000 A 
ATOM     27  N   UNL     1      47.071   3.299  16.461  0.00  0.00    +0.000 NA
ATOM     28  C   UNL     1      47.388   4.560  16.073  0.00  0.00    +0.000 A 
ENDBRANCH  19  23
ENDBRANCH   1  17
TORSDOF 4
ENDMDL
