MODEL 1
REMARK VINA RESULT:    -8.234      0.000      0.000
REMARK INTER + INTRA:         -11.281
REMARK INTER:                 -10.641
REMARK INTRA:                  -0.640
REMARK UNBOUND:                -0.640
REMARK  Name = 
REMARK  5 active torsions:
REMARK  status: ('A' for Active; 'I' for Inactive)
REMARK    1  A    between atoms: C_2  and  C_4
REMARK    2  A    between atoms: C_8  and  N_9
REMARK    3  A    between atoms: N_9  and  C_10
REMARK    4  A    between atoms: C_10  and  C_11
REMARK    5  A    between atoms: C_15  and  C_16
REMARK                            x       y       z     vdW  Elec       q    Type
REMARK                         _______ _______ _______ _____ _____    ______ ____
ROOT
ATOM      1  N   UNL     1      44.772   5.194   9.838  0.00  0.00    +0.000 N 
ATOM      2  H   UNL     1      45.320   6.012   9.573  0.00  0.00    +0.000 HD
ENDROOT
BRANCH   1   7
ATOM      3  C   UNL     1      46.435   2.852   7.450  0.00  0.00    +0.000 A 
ATOM      4  C   UNL     1      46.030   1.658   8.022  0.00  0.00    +0.000 A 
ATOM      5  N   UNL     1      45.263   1.590   9.132  0.00  0.00    +0.000 NA
ATOM      6  C   UNL     1      44.873   2.773   9.671  0.00  0.00    +0.000 A 
ATOM      7  C   UNL     1      45.179   4.040   9.156  0.00  0.00    +0.000 A 
ATOM      8  C   UNL     1      46.003   4.053   8.030  0.00  0.00    +0.000 A 
BRANCH   3  10
ATOM      9  N   UNL     1      48.618   2.550   6.437  0.00  0.00    +0.000 N 
ATOM     10  C   UNL     1      47.290   2.819   6.248  0.00  0.00    +0.000 C 
ATOM     11  O   UNL     1      46.830   2.991   5.129  0.00  0.00    +0.000 OA
ATOM     12  H   UNL     1      49.167   2.415   5.596  0.00  0.00    +0.000 HD
ATOM     13  H   UNL     1      48.969   2.133   7.288  0.00  0.00    +0.000 HD
ENDBRANCH   3  10
ENDBRANCH   1   7
BRANCH   1  14
ATOM     14  C   UNL     1      44.461   5.137  11.258  0.00  0.00    +0.000 C 
BRANCH  14  15
ATOM     15  C   UNL     1      45.695   5.426  12.071  0.00  0.00    +0.000 A 
ATOM     16  C   UNL     1      46.625   6.386  11.671  0.00  0.00    +0.000 A 
ATOM     17  C   UNL     1      47.731   6.608  12.472  0.00  0.00    +0.000 A 
ATOM     18  N   UNL     1      47.975   5.943  13.623  0.00  0.00    +0.000 NA
ATOM     19  C   UNL     1      47.081   4.995  14.012  0.00  0.00    +0.000 A 
ATOM     20  C   UNL     1      45.939   4.721  13.255  0.00  0.00    +0.000 A 
BRANCH  19  21
ATOM     21  C   UNL     1      47.378   4.269  15.263  0.00  0.00    +0.000 A 
ATOM     22  C   UNL     1      47.165   4.828  16.523  0.00  0.00    +0.000 A 
ATOM     23  N   UNL     1      47.448   4.183  17.688  0.00  0.00    +0.000 NA
ATOM     24  C   UNL     1      47.957   2.943  17.547  0.00  0.00    +0.000 A 
ATOM     25  C   UNL     1      48.170   2.368  16.305  0.00  0.00    +0.000 A 
ATOM     26  N   UNL     1      47.890   3.009  15.149  0.00  0.00    +0.000 NA
ENDBRANCH  19  21
ENDBRANCH  14  15
ENDBRANCH   1  14
TORSDOF 5
ENDMDL
MODEL 2
REMARK VINA RESULT:    -8.072      0.838      1.102
REMARK INTER + INTRA:         -11.072
REMARK INTER:                 -10.373
REMARK INTRA:                  -0.699
REMARK UNBOUND:                -0.640
REMARK  Name = 
REMARK  5 active torsions:
REMARK  status: ('A' for Active; 'I' for Inactive)
REMARK    1  A    between atoms: C_2  and  C_4
REMARK    2  A    between atoms: C_8  and  N_9
REMARK    3  A    between atoms: N_9  and  C_10
REMARK    4  A    between atoms: C_10  and  C_11
REMARK    5  A    between atoms: C_15  and  C_16
REMARK                            x       y       z     vdW  Elec       q    Type
REMARK                         _______ _______ _______ _____ _____    ______ ____
ROOT
ATOM      1  N   UNL     1      44.365   4.961   9.582  0.00  0.00    +0.000 N 
ATOM      2  H   UNL     1      44.718   5.834   9.189  0.00  0.00    +0.000 HD
ENDROOT
BRANCH   1   7
ATOM      3  C   UNL     1      46.399   2.739   7.374  0.00  0.00    +0.000 A 
ATOM      4  C   UNL     1      46.096   1.527   7.971  0.00  0.00    +0.000 A 
ATOM      5  N   UNL     1      45.283   1.412   9.043  0.00  0.00    +0.000 NA
ATOM      6  C   UNL     1      44.737   2.562   9.514  0.00  0.00    +0.000 A 
ATOM      7  C   UNL     1      44.931   3.837   8.967  0.00  0.00    +0.000 A 
ATOM      8  C   UNL     1      45.809   3.903   7.883  0.00  0.00    +0.000 A 
BRANCH   3  10
ATOM      9  N   UNL     1      48.641   2.531   6.471  0.00  0.00    +0.000 N 
ATOM     10  C   UNL     1      47.317   2.760   6.218  0.00  0.00    +0.000 C 
ATOM     11  O   UNL     1      46.909   2.940   5.079  0.00  0.00    +0.000 OA
ATOM     12  H   UNL     1      49.237   2.433   5.658  0.00  0.00    +0.000 HD
ATOM     13  H   UNL     1      48.961   2.109   7.331  0.00  0.00    +0.000 HD
ENDBRANCH   3  10
ENDBRANCH   1   7
BRANCH   1  14
ATOM     14  C   UNL     1      44.193   5.000  11.025  0.00  0.00    +0.000 C 
BRANCH  14  15
ATOM     15  C   UNL     1      45.442   5.524  11.683  0.00  0.00    +0.000 A 
ATOM     16  C   UNL     1      46.213   6.526  11.092  0.00  0.00    +0.000 A 
ATOM     17  C   UNL     1      47.343   6.968  11.758  0.00  0.00    +0.000 A 
ATOM     18  N   UNL     1      47.756   6.481  12.950  0.00  0.00    +0.000 NA
ATOM     19  C   UNL     1      47.018   5.494  13.524  0.00  0.00    +0.000 A 
ATOM     20  C   UNL     1      45.863   5.002  12.911  0.00  0.00    +0.000 A 
BRANCH  19  21
ATOM     21  C   UNL     1      47.499   4.966  14.816  0.00  0.00    +0.000 A 
ATOM     22  C   UNL     1      47.120   3.716  15.303  0.00  0.00    +0.000 A 
ATOM     23  N   UNL     1      47.538   3.218  16.499  0.00  0.00    +0.000 NA
ATOM     24  C   UNL     1      48.361   4.024  17.200  0.00  0.00    +0.000 A 
ATOM     25  C   UNL     1      48.755   5.266  16.730  0.00  0.00    +0.000 A 
ATOM     26  N   UNL     1      48.338   5.761  15.543  0.00  0.00    +0.000 NA
ENDBRANCH  19  21
ENDBRANCH  14  15
ENDBRANCH   1  14
TORSDOF 5
ENDMDL
MODEL 3
REMARK VINA RESULT:    -7.996      2.479      7.104
REMARK INTER + INTRA:         -10.974
REMARK INTER:                 -10.228
REMARK INTRA:                  -0.746
REMARK UNBOUND:                -0.640
REMARK  Name = 
REMARK  5 active torsions:
REMARK  status: ('A' for Active; 'I' for Inactive)
REMARK    1  A    between atoms: C_2  and  C_4
REMARK    2  A    between atoms: C_8  and  N_9
REMARK    3  A    between atoms: N_9  and  C_10
REMARK    4  A    between atoms: C_10  and  C_11
REMARK    5  A    between atoms: C_15  and  C_16
REMARK                            x       y       z     vdW  Elec       q    Type
REMARK                         _______ _______ _______ _____ _____    ______ ____
ROOT
ATOM      1  N   UNL     1      43.960   6.894  12.315  0.00  0.00    +0.000 N 
ATOM      2  H   UNL     1      43.291   6.731  13.068  0.00  0.00    +0.000 HD
ENDROOT
BRANCH   1   7
ATOM      3  C   UNL     1      46.940   5.274  13.879  0.00  0.00    +0.000 A 
ATOM      4  C   UNL     1      47.927   5.982  13.214  0.00  0.00    +0.000 A 
ATOM      5  N   UNL     1      47.665   6.934  12.294  0.00  0.00    +0.000 NA
ATOM      6  C   UNL     1      46.354   7.198  12.053  0.00  0.00    +0.000 A 
ATOM      7  C   UNL     1      45.271   6.584  12.695  0.00  0.00    +0.000 A 
ATOM      8  C   UNL     1      45.599   5.582  13.610  0.00  0.00    +0.000 A 
BRANCH   3  10
ATOM      9  N   UNL     1      47.448   4.625  16.160  0.00  0.00    +0.000 N 
ATOM     10  C   UNL     1      47.332   4.237  14.853  0.00  0.00    +0.000 C 
ATOM     11  O   UNL     1      47.512   3.076  14.517  0.00  0.00    +0.000 OA
ATOM     12  H   UNL     1      47.602   3.881  16.831  0.00  0.00    +0.000 HD
ATOM     13  H   UNL     1      47.041   5.482  16.507  0.00  0.00    +0.000 HD
ENDBRANCH   3  10
ENDBRANCH   1   7
BRANCH   1  14
ATOM     14  C   UNL     1      43.464   6.505  11.004  0.00  0.00    +0.000 C 
BRANCH  14  15
ATOM     15  C   UNL     1      43.665   5.029  10.789  0.00  0.00    +0.000 A 
ATOM     16  C   UNL     1      43.039   4.081  11.598  0.00  0.00    +0.000 A 
ATOM     17  C   UNL     1      43.259   2.740  11.337  0.00  0.00    +0.000 A 
ATOM     18  N   UNL     1      44.058   2.286  10.345  0.00  0.00    +0.000 NA
ATOM     19  C   UNL     1      44.684   3.204   9.561  0.00  0.00    +0.000 A 
ATOM     20  C   UNL     1      44.503   4.574   9.764  0.00  0.00    +0.000 A 
BRANCH  19  21
ATOM     21  C   UNL     1      45.564   2.684   8.496  0.00  0.00    +0.000 A 
ATOM     22  C   UNL     1      45.977   3.464   7.417  0.00  0.00    +0.000 A 
ATOM     23  N   UNL     1      46.774   3.000   6.416  0.00  0.00    +0.000 NA
ATOM     24  C   UNL     1      47.149   1.710   6.534  0.00  0.00    +0.000 A 
ATOM     25  C   UNL     1      46.755   0.921   7.601  0.00  0.00    +0.000 A 
ATOM     26  N   UNL     1      45.963   1.382   8.594  0.00  0.00    +0.000 NA
ENDBRANCH  19  21
ENDBRANCH  14  15
ENDBRANCH   1  14
TORSDOF 5
ENDMDL
MODEL 4
REMARK VINA RESULT:    -7.956      2.206      4.062
REMARK INTER + INTRA:         -10.922
REMARK INTER:                 -10.562
REMARK INTRA:                  -0.359
REMARK UNBOUND:                -0.640
REMARK  Name = 
REMARK  5 active torsions:
REMARK  status: ('A' for Active; 'I' for Inactive)
REMARK    1  A    between atoms: C_2  and  C_4
REMARK    2  A    between atoms: C_8  and  N_9
REMARK    3  A    between atoms: N_9  and  C_10
REMARK    4  A    between atoms: C_10  and  C_11
REMARK    5  A    between atoms: C_15  and  C_16
REMARK                            x       y       z     vdW  Elec       q    Type
REMARK                         _______ _______ _______ _____ _____    ______ ____
ROOT
ATOM      1  N   UNL     1      43.952   2.460  10.611  0.00  0.00    +0.000 N 
ATOM      2  H   UNL     1      43.197   1.830  10.339  0.00  0.00    +0.000 HD
ENDROOT
BRANCH   1   7
ATOM      3  C   UNL     1      46.370   2.241   7.772  0.00  0.00    +0.000 A 
ATOM      4  C   UNL     1      46.250   3.539   7.303  0.00  0.00    +0.000 A 
ATOM      5  N   UNL     1      45.426   4.454   7.858  0.00  0.00    +0.000 NA
ATOM      6  C   UNL     1      44.714   4.049   8.941  0.00  0.00    +0.000 A 
ATOM      7  C   UNL     1      44.786   2.782   9.533  0.00  0.00    +0.000 A 
ATOM      8  C   UNL     1      45.625   1.864   8.898  0.00  0.00    +0.000 A 
BRANCH   3  10
ATOM      9  N   UNL     1      48.414   1.846   6.527  0.00  0.00    +0.000 N 
ATOM     10  C   UNL     1      47.284   1.311   7.082  0.00  0.00    +0.000 C 
ATOM     11  O   UNL     1      47.062   0.109   7.036  0.00  0.00    +0.000 OA
ATOM     12  H   UNL     1      49.085   1.182   6.161  0.00  0.00    +0.000 HD
ATOM     13  H   UNL     1      48.761   2.759   6.785  0.00  0.00    +0.000 HD
ENDBRANCH   3  10
ENDBRANCH   1   7
BRANCH   1  14
ATOM     14  C   UNL     1      43.542   3.487  11.554  0.00  0.00    +0.000 C 
BRANCH  14  15
ATOM     15  C   UNL     1      44.751   4.128  12.183  0.00  0.00    +0.000 A 
ATOM     16  C   UNL     1      45.654   3.389  12.948  0.00  0.00    +0.000 A 
ATOM     17  C   UNL     1      46.750   4.040  13.486  0.00  0.00    +0.000 A 
ATOM     18  N   UNL     1      46.999   5.359  13.326  0.00  0.00    +0.000 NA
ATOM     19  C   UNL     1      46.114   6.088  12.595  0.00  0.00    +0.000 A 
ATOM     20  C   UNL     1      44.989   5.497  12.017  0.00  0.00    +0.000 A 
BRANCH  19  21
ATOM     21  C   UNL     1      46.398   7.530  12.449  0.00  0.00    +0.000 A 
ATOM     22  C   UNL     1      45.388   8.487  12.356  0.00  0.00    +0.000 A 
ATOM     23  N   UNL     1      45.627   9.819  12.204  0.00  0.00    +0.000 NA
ATOM     24  C   UNL     1      46.929  10.164  12.148  0.00  0.00    +0.000 A 
ATOM     25  C   UNL     1      47.947   9.230  12.245  0.00  0.00    +0.000 A 
ATOM     26  N   UNL     1      47.709   7.908  12.395  0.00  0.00    +0.000 NA
ENDBRANCH  19  21
ENDBRANCH  14  15
ENDBRANCH   1  14
TORSDOF 5
ENDMDL
MODEL 5
REMARK VINA RESULT:    -7.916      1.915      3.467
REMARK INTER + INTRA:         -10.870
REMARK INTER:                 -10.269
REMARK INTRA:                  -0.601
REMARK UNBOUND:                -0.640
REMARK  Name = 
REMARK  5 active torsions:
REMARK  status: ('A' for Active; 'I' for Inactive)
REMARK    1  A    between atoms: C_2  and  C_4
REMARK    2  A    between atoms: C_8  and  N_9
REMARK    3  A    between atoms: N_9  and  C_10
REMARK    4  A    between atoms: C_10  and  C_11
REMARK    5  A    between atoms: C_15  and  C_16
REMARK                            x       y       z     vdW  Elec       q    Type
REMARK                         _______ _______ _______ _____ _____    ______ ____
ROOT
ATOM      1  N   UNL     1      44.602   5.052   9.496  0.00  0.00    +0.000 N 
ATOM      2  H   UNL     1      45.188   5.845   9.234  0.00  0.00    +0.000 HD
ENDROOT
BRANCH   1   7
ATOM      3  C   UNL     1      46.508   2.524   7.515  0.00  0.00    +0.000 A 
ATOM      4  C   UNL     1      46.007   1.379   8.113  0.00  0.00    +0.000 A 
ATOM      5  N   UNL     1      45.103   1.401   9.116  0.00  0.00    +0.000 NA
ATOM      6  C   UNL     1      44.672   2.626   9.514  0.00  0.00    +0.000 A 
ATOM      7  C   UNL     1      45.068   3.848   8.956  0.00  0.00    +0.000 A 
ATOM      8  C   UNL     1      46.031   3.769   7.948  0.00  0.00    +0.000 A 
BRANCH   3  10
ATOM      9  N   UNL     1      47.439   3.292   5.412  0.00  0.00    +0.000 N 
ATOM     10  C   UNL     1      47.509   2.393   6.439  0.00  0.00    +0.000 C 
ATOM     11  O   UNL     1      48.385   1.540   6.478  0.00  0.00    +0.000 OA
ATOM     12  H   UNL     1      48.201   3.263   4.744  0.00  0.00    +0.000 HD
ATOM     13  H   UNL     1      46.925   4.159   5.487  0.00  0.00    +0.000 HD
ENDBRANCH   3  10
ENDBRANCH   1   7
BRANCH   1  14
ATOM     14  C   UNL     1      44.132   5.108  10.871  0.00  0.00    +0.000 C 
BRANCH  14  15
ATOM     15  C   UNL     1      45.298   5.048  11.822  0.00  0.00    +0.000 A 
ATOM     16  C   UNL     1      45.431   4.015  12.750  0.00  0.00    +0.000 A 
ATOM     17  C   UNL     1      46.534   4.017  13.585  0.00  0.00    +0.000 A 
ATOM     18  N   UNL     1      47.494   4.968  13.567  0.00  0.00    +0.000 NA
ATOM     19  C   UNL     1      47.363   5.987  12.675  0.00  0.00    +0.000 A 
ATOM     20  C   UNL     1      46.278   6.046  11.797  0.00  0.00    +0.000 A 
BRANCH  19  21
ATOM     21  C   UNL     1      48.414   7.023  12.685  0.00  0.00    +0.000 A 
ATOM     22  C   UNL     1      48.476   8.038  11.732  0.00  0.00    +0.000 A 
ATOM     23  N   UNL     1      49.446   8.993  11.713  0.00  0.00    +0.000 NA
ATOM     24  C   UNL     1      50.364   8.896  12.696  0.00  0.00    +0.000 A 
ATOM     25  C   UNL     1      50.316   7.900  13.657  0.00  0.00    +0.000 A 
ATOM     26  N   UNL     1      49.353   6.952  13.674  0.00  0.00    +0.000 NA
ENDBRANCH  19  21
ENDBRANCH  14  15
ENDBRANCH   1  14
TORSDOF 5
ENDMDL
MODEL 6
REMARK VINA RESULT:    -7.541      3.077      7.024
REMARK INTER + INTRA:         -10.386
REMARK INTER:                  -9.627
REMARK INTRA:                  -0.759
REMARK UNBOUND:                -0.640
REMARK  Name = 
REMARK  5 active torsions:
REMARK  status: ('A' for Active; 'I' for Inactive)
REMARK    1  A    between atoms: C_2  and  C_4
REMARK    2  A    between atoms: C_8  and  N_9
REMARK    3  A    between atoms: N_9  and  C_10
REMARK    4  A    between atoms: C_10  and  C_11
REMARK    5  A    between atoms: C_15  and  C_16
REMARK                            x       y       z     vdW  Elec       q    Type
REMARK                         _______ _______ _______ _____ _____    ______ ____
ROOT
ATOM      1  N   UNL     1      44.517   6.899  12.658  0.00  0.00    +0.000 N 
ATOM      2  H   UNL     1      44.127   6.449  13.486  0.00  0.00    +0.000 HD
ENDROOT
BRANCH   1   7
ATOM      3  C   UNL     1      48.119   7.790  12.225  0.00  0.00    +0.000 A 
ATOM      4  C   UNL     1      48.677   6.674  12.827  0.00  0.00    +0.000 A 
ATOM      5  N   UNL     1      47.943   5.675  13.362  0.00  0.00    +0.000 NA
ATOM      6  C   UNL     1      46.594   5.797  13.264  0.00  0.00    +0.000 A 
ATOM      7  C   UNL     1      45.917   6.851  12.639  0.00  0.00    +0.000 A 
ATOM      8  C   UNL     1      46.722   7.874  12.135  0.00  0.00    +0.000 A 
BRANCH   3  10
ATOM      9  N   UNL     1      48.451  10.061  11.442  0.00  0.00    +0.000 N 
ATOM     10  C   UNL     1      49.009   8.837  11.689  0.00  0.00    +0.000 C 
ATOM     11  O   UNL     1      50.200   8.634  11.503  0.00  0.00    +0.000 OA
ATOM     12  H   UNL     1      49.096  10.800  11.186  0.00  0.00    +0.000 HD
ATOM     13  H   UNL     1      47.565  10.341  11.840  0.00  0.00    +0.000 HD
ENDBRANCH   3  10
ENDBRANCH   1   7
BRANCH   1  14
ATOM     14  C   UNL     1      43.757   6.643  11.445  0.00  0.00    +0.000 C 
BRANCH  14  15
ATOM     15  C   UNL     1      43.841   5.185  11.078  0.00  0.00    +0.000 A 
ATOM     16  C   UNL     1      43.152   4.210  11.798  0.00  0.00    +0.000 A 
ATOM     17  C   UNL     1      43.266   2.890  11.397  0.00  0.00    +0.000 A 
ATOM     18  N   UNL     1      44.016   2.481  10.350  0.00  0.00    +0.000 NA
ATOM     19  C   UNL     1      44.703   3.425   9.653  0.00  0.00    +0.000 A 
ATOM     20  C   UNL     1      44.631   4.776   9.997  0.00  0.00    +0.000 A 
BRANCH  19  21
ATOM     21  C   UNL     1      45.530   2.952   8.525  0.00  0.00    +0.000 A 
ATOM     22  C   UNL     1      46.021   1.649   8.449  0.00  0.00    +0.000 A 
ATOM     23  N   UNL     1      46.798   1.198   7.427  0.00  0.00    +0.000 NA
ATOM     24  C   UNL     1      47.071   2.107   6.469  0.00  0.00    +0.000 A 
ATOM     25  C   UNL     1      46.587   3.403   6.522  0.00  0.00    +0.000 A 
ATOM     26  N   UNL     1      45.816   3.851   7.538  0.00  0.00    +0.000 NA
ENDBRANCH  19  21
ENDBRANCH  14  15
ENDBRANCH   1  14
TORSDOF 5
ENDMDL
MODEL 7
REMARK VINA RESULT:    -7.170      3.690      7.202
REMARK INTER + INTRA:          -9.906
REMARK INTER:                  -9.238
REMARK INTRA:                  -0.668
REMARK UNBOUND:                -0.640
REMARK  Name = 
REMARK  5 active torsions:
REMARK  status: ('A' for Active; 'I' for Inactive)
REMARK    1  A    between atoms: C_2  and  C_4
REMARK    2  A    between atoms: C_8  and  N_9
REMARK    3  A    between atoms: N_9  and  C_10
REMARK    4  A    between atoms: C_10  and  C_11
REMARK    5  A    between atoms: C_15  and  C_16
REMARK                            x       y       z     vdW  Elec       q    Type
REMARK                         _______ _______ _______ _____ _____    ______ ____
ROOT
ATOM      1  N   UNL     1      44.650   6.889  12.582  0.00  0.00    +0.000 N 
ATOM      2  H   UNL     1      44.875   6.060  13.133  0.00  0.00    +0.000 HD
ENDROOT
BRANCH   1   7
ATOM      3  C   UNL     1      48.093   8.299  12.251  0.00  0.00    +0.000 A 
ATOM      4  C   UNL     1      47.754   9.636  12.127  0.00  0.00    +0.000 A 
ATOM      5  N   UNL     1      46.479  10.081  12.137  0.00  0.00    +0.000 NA
ATOM      6  C   UNL     1      45.512   9.142  12.303  0.00  0.00    +0.000 A 
ATOM      7  C   UNL     1      45.734   7.771  12.486  0.00  0.00    +0.000 A 
ATOM      8  C   UNL     1      47.067   7.361  12.430  0.00  0.00    +0.000 A 
BRANCH   3  10
ATOM      9  N   UNL     1      50.015   7.250  13.294  0.00  0.00    +0.000 N 
ATOM     10  C   UNL     1      49.517   7.913  12.206  0.00  0.00    +0.000 C 
ATOM     11  O   UNL     1      50.213   8.143  11.229  0.00  0.00    +0.000 OA
ATOM     12  H   UNL     1      50.958   6.890  13.200  0.00  0.00    +0.000 HD
ATOM     13  H   UNL     1      49.417   6.804  13.975  0.00  0.00    +0.000 HD
ENDBRANCH   3  10
ENDBRANCH   1   7
BRANCH   1  14
ATOM     14  C   UNL     1      43.827   6.607  11.417  0.00  0.00    +0.000 C 
BRANCH  14  15
ATOM     15  C   UNL     1      43.882   5.140  11.085  0.00  0.00    +0.000 A 
ATOM     16  C   UNL     1      43.152   4.199  11.812  0.00  0.00    +0.000 A 
ATOM     17  C   UNL     1      43.241   2.867  11.445  0.00  0.00    +0.000 A 
ATOM     18  N   UNL     1      44.004   2.415  10.425  0.00  0.00    +0.000 NA
ATOM     19  C   UNL     1      44.730   3.325   9.722  0.00  0.00    +0.000 A 
ATOM     20  C   UNL     1      44.685   4.685  10.033  0.00  0.00    +0.000 A 
BRANCH  19  21
ATOM     21  C   UNL     1      45.569   2.805   8.624  0.00  0.00    +0.000 A 
ATOM     22  C   UNL     1      46.004   3.605   7.568  0.00  0.00    +0.000 A 
ATOM     23  N   UNL     1      46.763   3.142   6.538  0.00  0.00    +0.000 NA
ATOM     24  C   UNL     1      47.077   1.832   6.601  0.00  0.00    +0.000 A 
ATOM     25  C   UNL     1      46.661   1.022   7.644  0.00  0.00    +0.000 A 
ATOM     26  N   UNL     1      45.906   1.482   8.666  0.00  0.00    +0.000 NA
ENDBRANCH  19  21
ENDBRANCH  14  15
ENDBRANCH   1  14
TORSDOF 5
ENDMDL
MODEL 8
REMARK VINA RESULT:    -7.155      2.072      2.815
REMARK INTER + INTRA:          -9.886
REMARK INTER:                  -9.382
REMARK INTRA:                  -0.505
REMARK UNBOUND:                -0.640
REMARK  Name = 
REMARK  5 active torsions:
REMARK  status: ('A' for Active; 'I' for Inactive)
REMARK    1  A    between atoms: C_2  and  C_4
REMARK    2  A    between atoms: C_8  and  N_9
REMARK    3  A    between atoms: N_9  and  C_10
REMARK    4  A    between atoms: C_10  and  C_11
REMARK    5  A    between atoms: C_15  and  C_16
REMARK                            x       y       z     vdW  Elec       q    Type
REMARK                         _______ _______ _______ _____ _____    ______ ____
ROOT
ATOM      1  N   UNL     1      44.615   5.209   9.655  0.00  0.00    +0.000 N 
ATOM      2  H   UNL     1      45.129   6.016   9.300  0.00  0.00    +0.000 HD
ENDROOT
BRANCH   1   7
ATOM      3  C   UNL     1      46.436   2.695   7.578  0.00  0.00    +0.000 A 
ATOM      4  C   UNL     1      45.881   1.547   8.116  0.00  0.00    +0.000 A 
ATOM      5  N   UNL     1      44.966   1.561   9.110  0.00  0.00    +0.000 NA
ATOM      6  C   UNL     1      44.582   2.783   9.561  0.00  0.00    +0.000 A 
ATOM      7  C   UNL     1      45.037   4.012   9.064  0.00  0.00    +0.000 A 
ATOM      8  C   UNL     1      46.007   3.938   8.063  0.00  0.00    +0.000 A 
BRANCH   3  10
ATOM      9  N   UNL     1      47.147   3.148   5.304  0.00  0.00    +0.000 N 
ATOM     10  C   UNL     1      47.444   2.571   6.508  0.00  0.00    +0.000 C 
ATOM     11  O   UNL     1      48.513   2.008   6.695  0.00  0.00    +0.000 OA
ATOM     12  H   UNL     1      47.894   3.156   4.619  0.00  0.00    +0.000 HD
ATOM     13  H   UNL     1      46.422   3.845   5.203  0.00  0.00    +0.000 HD
ENDBRANCH   3  10
ENDBRANCH   1   7
BRANCH   1  14
ATOM     14  C   UNL     1      44.352   5.271  11.084  0.00  0.00    +0.000 C 
BRANCH  14  15
ATOM     15  C   UNL     1      45.006   6.488  11.681  0.00  0.00    +0.000 A 
ATOM     16  C   UNL     1      44.526   7.773  11.429  0.00  0.00    +0.000 A 
ATOM     17  C   UNL     1      45.169   8.846  12.020  0.00  0.00    +0.000 A 
ATOM     18  N   UNL     1      46.249   8.729  12.825  0.00  0.00    +0.000 NA
ATOM     19  C   UNL     1      46.733   7.480  13.062  0.00  0.00    +0.000 A 
ATOM     20  C   UNL     1      46.130   6.351  12.504  0.00  0.00    +0.000 A 
BRANCH  19  21
ATOM     21  C   UNL     1      47.923   7.379  13.929  0.00  0.00    +0.000 A 
ATOM     22  C   UNL     1      48.212   6.238  14.677  0.00  0.00    +0.000 A 
ATOM     23  N   UNL     1      49.294   6.131  15.496  0.00  0.00    +0.000 NA
ATOM     24  C   UNL     1      50.089   7.219  15.540  0.00  0.00    +0.000 A 
ATOM     25  C   UNL     1      49.824   8.358  14.800  0.00  0.00    +0.000 A 
ATOM     26  N   UNL     1      48.748   8.465  13.989  0.00  0.00    +0.000 NA
ENDBRANCH  19  21
ENDBRANCH  14  15
ENDBRANCH   1  14
TORSDOF 5
ENDMDL
MODEL 9
REMARK VINA RESULT:    -7.065      1.702      2.160
REMARK INTER + INTRA:          -9.771
REMARK INTER:                  -9.061
REMARK INTRA:                  -0.710
REMARK UNBOUND:                -0.640
REMARK  Name = 
REMARK  5 active torsions:
REMARK  status: ('A' for Active; 'I' for Inactive)
REMARK    1  A    between atoms: C_2  and  C_4
REMARK    2  A    between atoms: C_8  and  N_9
REMARK    3  A    between atoms: N_9  and  C_10
REMARK    4  A    between atoms: C_10  and  C_11
REMARK    5  A    between atoms: C_15  and  C_16
REMARK                            x       y       z     vdW  Elec       q    Type
REMARK                         _______ _______ _______ _____ _____    ______ ____
ROOT
ATOM      1  N   UNL     1      44.508   6.062  11.703  0.00  0.00    +0.000 N 
ATOM      2  H   UNL     1      43.603   6.494  11.893  0.00  0.00    +0.000 HD
ENDROOT
BRANCH   1   7
ATOM      3  C   UNL     1      45.010   3.173   9.390  0.00  0.00    +0.000 A 
ATOM      4  C   UNL     1      44.123   2.286   9.977  0.00  0.00    +0.000 A 
ATOM      5  N   UNL     1      43.395   2.584  11.075  0.00  0.00    +0.000 NA
ATOM      6  C   UNL     1      43.552   3.834  11.584  0.00  0.00    +0.000 A 
ATOM      7  C   UNL     1      44.380   4.830  11.051  0.00  0.00    +0.000 A 
ATOM      8  C   UNL     1      45.137   4.457   9.938  0.00  0.00    +0.000 A 
BRANCH   3  10
ATOM      9  N   UNL     1      45.887   3.640   7.177  0.00  0.00    +0.000 N 
ATOM     10  C   UNL     1      45.775   2.743   8.203  0.00  0.00    +0.000 C 
ATOM     11  O   UNL     1      46.313   1.647   8.150  0.00  0.00    +0.000 OA
ATOM     12  H   UNL     1      46.510   3.376   6.423  0.00  0.00    +0.000 HD
ATOM     13  H   UNL     1      45.705   4.627   7.300  0.00  0.00    +0.000 HD
ENDBRANCH   3  10
ENDBRANCH   1   7
BRANCH   1  14
ATOM     14  C   UNL     1      45.528   7.011  11.286  0.00  0.00    +0.000 C 
BRANCH  14  15
ATOM     15  C   UNL     1      46.761   6.855  12.136  0.00  0.00    +0.000 A 
ATOM     16  C   UNL     1      47.977   7.432  11.771  0.00  0.00    +0.000 A 
ATOM     17  C   UNL     1      49.067   7.258  12.605  0.00  0.00    +0.000 A 
ATOM     18  N   UNL     1      49.031   6.550  13.757  0.00  0.00    +0.000 NA
ATOM     19  C   UNL     1      47.853   5.972  14.111  0.00  0.00    +0.000 A 
ATOM     20  C   UNL     1      46.710   6.111  13.320  0.00  0.00    +0.000 A 
BRANCH  19  21
ATOM     21  C   UNL     1      47.843   5.189  15.363  0.00  0.00    +0.000 A 
ATOM     22  C   UNL     1      46.869   4.231  15.641  0.00  0.00    +0.000 A 
ATOM     23  N   UNL     1      46.831   3.512  16.796  0.00  0.00    +0.000 NA
ATOM     24  C   UNL     1      47.816   3.786  17.674  0.00  0.00    +0.000 A 
ATOM     25  C   UNL     1      48.797   4.728  17.414  0.00  0.00    +0.000 A 
ATOM     26  N   UNL     1      48.833   5.444  16.268  0.00  0.00    +0.000 NA
ENDBRANCH  19  21
ENDBRANCH  14  15
ENDBRANCH   1  14
TORSDOF 5
ENDMDL
