MODEL 1
REMARK VINA RESULT:    -7.233      0.000      0.000
REMARK INTER + INTRA:         -11.445
REMARK INTER:                 -10.193
REMARK INTRA:                  -1.252
REMARK UNBOUND:                -1.252
REMARK  Name = 
REMARK  8 active torsions:
REMARK  status: ('A' for Active; 'I' for Inactive)
REMARK    1  A    between atoms: C_1  and  O_2
REMARK    2  A    between atoms: O_2  and  C_3
REMARK    3  A    between atoms: C_8  and  C_9
REMARK    4  A    between atoms: N_11  and  C_12
REMARK    5  A    between atoms: C_12  and  C_13
REMARK    6  A    between atoms: C_16  and  C_17
REMARK    7  A    between atoms: C_17  and  N_18
REMARK    8  A    between atoms: C_19  and  C_21
REMARK                            x       y       z     vdW  Elec       q    Type
REMARK                         _______ _______ _______ _____ _____    ______ ____
ROOT
ATOM      1  C   UNL     1      50.296   7.540  15.278  0.00  0.00    +0.000 A 
ATOM      2  C   UNL     1      48.956   7.162  15.438  0.00  0.00    +0.000 A 
ATOM      3  C   UNL     1      48.056   7.254  14.370  0.00  0.00    +0.000 A 
ATOM      4  C   UNL     1      48.482   7.704  13.112  0.00  0.00    +0.000 A 
ATOM      5  C   UNL     1      49.820   8.088  12.956  0.00  0.00    +0.000 A 
ATOM      6  C   UNL     1      50.721   7.997  14.023  0.00  0.00    +0.000 A 
ENDROOT
BRANCH   1   7
ATOM      7  C   UNL     1      51.275   7.416  16.418  0.00  0.00    +0.000 C 
BRANCH   7  10
ATOM      8  C   UNL     1      51.132   5.242  17.574  0.00  0.00    +0.000 C 
ATOM      9  O   UNL     1      50.290   5.661  18.365  0.00  0.00    +0.000 OA
ATOM     10  N   UNL     1      51.685   6.045  16.608  0.00  0.00    +0.000 N 
ATOM     11  H   UNL     1      52.376   5.648  15.982  0.00  0.00    +0.000 HD
BRANCH   8  17
ATOM     12  C   UNL     1      50.768   2.707  17.218  0.00  0.00    +0.000 A 
ATOM     13  C   UNL     1      51.254   1.403  17.409  0.00  0.00    +0.000 A 
ATOM     14  C   UNL     1      52.524   1.180  17.948  0.00  0.00    +0.000 A 
ATOM     15  C   UNL     1      53.331   2.255  18.294  0.00  0.00    +0.000 A 
ATOM     16  C   UNL     1      52.854   3.556  18.133  0.00  0.00    +0.000 A 
ATOM     17  C   UNL     1      51.566   3.802  17.618  0.00  0.00    +0.000 A 
BRANCH  12  19
ATOM     18  C   UNL     1      48.388   2.781  17.473  0.00  0.00    +0.000 C 
ATOM     19  O   UNL     1      49.542   2.972  16.661  0.00  0.00    +0.000 OA
ENDBRANCH  12  19
ENDBRANCH   8  17
ENDBRANCH   7  10
ENDBRANCH   1   7
BRANCH   4  20
ATOM     20  C   UNL     1      47.526   7.800  11.949  0.00  0.00    +0.000 C 
BRANCH  20  21
ATOM     21  N   UNL     1      46.835   6.556  11.726  0.00  0.00    +0.000 N 
ATOM     22  C   UNL     1      45.463   6.486  11.740  0.00  0.00    +0.000 C 
ATOM     23  O   UNL     1      44.761   7.481  11.906  0.00  0.00    +0.000 OA
ATOM     24  H   UNL     1      47.374   5.703  11.840  0.00  0.00    +0.000 HD
BRANCH  22  25
ATOM     25  C   UNL     1      44.872   5.166  11.480  0.00  0.00    +0.000 A 
ATOM     26  C   UNL     1      44.132   4.531  12.470  0.00  0.00    +0.000 A 
ATOM     27  S   UNL     1      43.477   3.035  11.979  0.00  0.00    +0.000 S 
ATOM     28  C   UNL     1      44.205   3.154  10.445  0.00  0.00    +0.000 A 
ATOM     29  N   UNL     1      44.063   2.167   9.523  0.00  0.00    +0.000 NA
ATOM     30  C   UNL     1      44.697   2.374   8.416  0.00  0.00    +0.000 A 
ATOM     31  N   UNL     1      45.449   3.488   8.144  0.00  0.00    +0.000 N 
ATOM     32  C   UNL     1      45.592   4.524   9.034  0.00  0.00    +0.000 A 
ATOM     33  O   UNL     1      46.238   5.527   8.744  0.00  0.00    +0.000 OA
ATOM     34  C   UNL     1      44.915   4.333  10.300  0.00  0.00    +0.000 A 
ATOM     35  H   UNL     1      45.911   3.597   7.255  0.00  0.00    +0.000 HD
ENDBRANCH  22  25
ENDBRANCH  20  21
ENDBRANCH   4  20
TORSDOF 7
ENDMDL
MODEL 2
REMARK VINA RESULT:    -7.032      3.238      8.941
REMARK INTER + INTRA:         -11.161
REMARK INTER:                 -10.718
REMARK INTRA:                  -0.443
REMARK UNBOUND:                -1.252
REMARK  Name = 
REMARK  8 active torsions:
REMARK  status: ('A' for Active; 'I' for Inactive)
REMARK    1  A    between atoms: C_1  and  O_2
REMARK    2  A    between atoms: O_2  and  C_3
REMARK    3  A    between atoms: C_8  and  C_9
REMARK    4  A    between atoms: N_11  and  C_12
REMARK    5  A    between atoms: C_12  and  C_13
REMARK    6  A    between atoms: C_16  and  C_17
REMARK    7  A    between atoms: C_17  and  N_18
REMARK    8  A    between atoms: C_19  and  C_21
REMARK                            x       y       z     vdW  Elec       q    Type
REMARK                         _______ _______ _______ _____ _____    ______ ____
ROOT
ATOM      1  C   UNL     1      44.779   5.683  11.055  0.00  0.00    +0.000 A 
ATOM      2  C   UNL     1      44.580   7.070  11.067  0.00  0.00    +0.000 A 
ATOM      3  C   UNL     1      45.333   7.891  11.915  0.00  0.00    +0.000 A 
ATOM      4  C   UNL     1      46.316   7.345  12.754  0.00  0.00    +0.000 A 
ATOM      5  C   UNL     1      46.506   5.957  12.745  0.00  0.00    +0.000 A 
ATOM      6  C   UNL     1      45.754   5.135  11.898  0.00  0.00    +0.000 A 
ENDROOT
BRANCH   1   7
ATOM      7  C   UNL     1      43.989   4.798  10.123  0.00  0.00    +0.000 C 
BRANCH   7  10
ATOM      8  C   UNL     1      45.378   3.168   8.900  0.00  0.00    +0.000 C 
ATOM      9  O   UNL     1      45.310   2.349   9.814  0.00  0.00    +0.000 OA
ATOM     10  N   UNL     1      44.781   4.402   8.984  0.00  0.00    +0.000 N 
ATOM     11  H   UNL     1      44.869   5.038   8.200  0.00  0.00    +0.000 HD
BRANCH   8  17
ATOM     12  C   UNL     1      46.587   1.542   7.294  0.00  0.00    +0.000 A 
ATOM     13  C   UNL     1      47.337   1.380   6.117  0.00  0.00    +0.000 A 
ATOM     14  C   UNL     1      47.569   2.456   5.257  0.00  0.00    +0.000 A 
ATOM     15  C   UNL     1      47.046   3.708   5.554  0.00  0.00    +0.000 A 
ATOM     16  C   UNL     1      46.319   3.891   6.730  0.00  0.00    +0.000 A 
ATOM     17  C   UNL     1      46.099   2.826   7.624  0.00  0.00    +0.000 A 
BRANCH  12  19
ATOM     18  C   UNL     1      46.545  -0.819   7.688  0.00  0.00    +0.000 C 
ATOM     19  O   UNL     1      46.307   0.506   8.149  0.00  0.00    +0.000 OA
ENDBRANCH  12  19
ENDBRANCH   8  17
ENDBRANCH   7  10
ENDBRANCH   1   7
BRANCH   4  20
ATOM     20  C   UNL     1      47.141   8.218  13.666  0.00  0.00    +0.000 C 
BRANCH  20  21
ATOM     21  N   UNL     1      47.594   7.495  14.826  0.00  0.00    +0.000 N 
ATOM     22  C   UNL     1      48.834   6.903  14.861  0.00  0.00    +0.000 C 
ATOM     23  O   UNL     1      49.626   6.993  13.926  0.00  0.00    +0.000 OA
ATOM     24  H   UNL     1      46.885   7.196  15.489  0.00  0.00    +0.000 HD
BRANCH  22  25
ATOM     25  C   UNL     1      49.193   6.211  16.107  0.00  0.00    +0.000 A 
ATOM     26  C   UNL     1      50.274   6.654  16.859  0.00  0.00    +0.000 A 
ATOM     27  S   UNL     1      50.514   5.770  18.297  0.00  0.00    +0.000 S 
ATOM     28  C   UNL     1      49.217   4.728  17.940  0.00  0.00    +0.000 A 
ATOM     29  N   UNL     1      48.893   3.701  18.770  0.00  0.00    +0.000 NA
ATOM     30  C   UNL     1      47.910   2.971  18.358  0.00  0.00    +0.000 A 
ATOM     31  N   UNL     1      47.213   3.183  17.197  0.00  0.00    +0.000 N 
ATOM     32  C   UNL     1      47.485   4.226  16.346  0.00  0.00    +0.000 A 
ATOM     33  O   UNL     1      46.814   4.414  15.334  0.00  0.00    +0.000 OA
ATOM     34  C   UNL     1      48.592   5.066  16.753  0.00  0.00    +0.000 A 
ATOM     35  H   UNL     1      46.446   2.582  16.935  0.00  0.00    +0.000 HD
ENDBRANCH  22  25
ENDBRANCH  20  21
ENDBRANCH   4  20
TORSDOF 7
ENDMDL
MODEL 3
REMARK VINA RESULT:    -6.826      2.972      8.917
REMARK INTER + INTRA:         -10.872
REMARK INTER:                  -9.790
REMARK INTRA:                  -1.082
REMARK UNBOUND:                -1.252
REMARK  Name = 
REMARK  8 active torsions:
REMARK  status: ('A' for Active; 'I' for Inactive)
REMARK    1  A    between atoms: C_1  and  O_2
REMARK    2  A    between atoms: O_2  and  C_3
REMARK    3  A    between atoms: C_8  and  C_9
REMARK    4  A    between atoms: N_11  and  C_12
REMARK    5  A    between atoms: C_12  and  C_13
REMARK    6  A    between atoms: C_16  and  C_17
REMARK    7  A    between atoms: C_17  and  N_18
REMARK    8  A    between atoms: C_19  and  C_21
REMARK                            x       y       z     vdW  Elec       q    Type
REMARK                         _______ _______ _______ _____ _____    ______ ____
ROOT
ATOM      1  C   UNL     1      48.086   7.509  13.754  0.00  0.00    +0.000 A 
ATOM      2  C   UNL     1      48.076   6.226  14.317  0.00  0.00    +0.000 A 
ATOM      3  C   UNL     1      48.378   6.040  15.672  0.00  0.00    +0.000 A 
ATOM      4  C   UNL     1      48.675   7.135  16.496  0.00  0.00    +0.000 A 
ATOM      5  C   UNL     1      48.692   8.415  15.928  0.00  0.00    +0.000 A 
ATOM      6  C   UNL     1      48.390   8.603  14.575  0.00  0.00    +0.000 A 
ENDROOT
BRANCH   1   7
ATOM      7  C   UNL     1      47.733   7.717  12.302  0.00  0.00    +0.000 C 
BRANCH   7  10
ATOM      8  C   UNL     1      45.826   6.509  11.310  0.00  0.00    +0.000 C 
ATOM      9  O   UNL     1      45.082   7.480  11.432  0.00  0.00    +0.000 OA
ATOM     10  N   UNL     1      47.131   6.535  11.736  0.00  0.00    +0.000 N 
ATOM     11  H   UNL     1      47.700   5.705  11.611  0.00  0.00    +0.000 HD
BRANCH   8  17
ATOM     12  C   UNL     1      44.654   4.204  11.309  0.00  0.00    +0.000 A 
ATOM     13  C   UNL     1      44.339   3.036  10.594  0.00  0.00    +0.000 A 
ATOM     14  C   UNL     1      44.652   2.916   9.238  0.00  0.00    +0.000 A 
ATOM     15  C   UNL     1      45.273   3.965   8.573  0.00  0.00    +0.000 A 
ATOM     16  C   UNL     1      45.613   5.122   9.273  0.00  0.00    +0.000 A 
ATOM     17  C   UNL     1      45.332   5.251  10.647  0.00  0.00    +0.000 A 
BRANCH  12  19
ATOM     18  C   UNL     1      43.020   4.822  12.947  0.00  0.00    +0.000 C 
ATOM     19  O   UNL     1      44.335   4.378  12.632  0.00  0.00    +0.000 OA
ENDBRANCH  12  19
ENDBRANCH   8  17
ENDBRANCH   7  10
ENDBRANCH   1   7
BRANCH   4  20
ATOM     20  C   UNL     1      48.994   6.950  17.959  0.00  0.00    +0.000 C 
BRANCH  20  21
ATOM     21  N   UNL     1      49.930   5.874  18.166  0.00  0.00    +0.000 N 
ATOM     22  C   UNL     1      51.269   6.029  17.903  0.00  0.00    +0.000 C 
ATOM     23  O   UNL     1      51.738   7.096  17.516  0.00  0.00    +0.000 OA
ATOM     24  H   UNL     1      49.545   4.937  18.236  0.00  0.00    +0.000 HD
BRANCH  22  25
ATOM     25  C   UNL     1      52.128   4.867  18.174  0.00  0.00    +0.000 A 
ATOM     26  C   UNL     1      53.395   5.053  18.712  0.00  0.00    +0.000 A 
ATOM     27  S   UNL     1      54.230   3.597  19.011  0.00  0.00    +0.000 S 
ATOM     28  C   UNL     1      52.952   2.668  18.380  0.00  0.00    +0.000 A 
ATOM     29  N   UNL     1      53.036   1.313  18.314  0.00  0.00    +0.000 NA
ATOM     30  C   UNL     1      52.008   0.740  17.781  0.00  0.00    +0.000 A 
ATOM     31  N   UNL     1      50.897   1.398  17.322  0.00  0.00    +0.000 N 
ATOM     32  C   UNL     1      50.756   2.762  17.399  0.00  0.00    +0.000 A 
ATOM     33  O   UNL     1      49.730   3.319  17.017  0.00  0.00    +0.000 OA
ATOM     34  C   UNL     1      51.891   3.456  17.972  0.00  0.00    +0.000 A 
ATOM     35  H   UNL     1      50.120   0.891  16.926  0.00  0.00    +0.000 HD
ENDBRANCH  22  25
ENDBRANCH  20  21
ENDBRANCH   4  20
TORSDOF 7
ENDMDL
MODEL 4
REMARK VINA RESULT:    -6.820      3.287      9.357
REMARK INTER + INTRA:         -10.863
REMARK INTER:                 -10.628
REMARK INTRA:                  -0.235
REMARK UNBOUND:                -1.252
REMARK  Name = 
REMARK  8 active torsions:
REMARK  status: ('A' for Active; 'I' for Inactive)
REMARK    1  A    between atoms: C_1  and  O_2
REMARK    2  A    between atoms: O_2  and  C_3
REMARK    3  A    between atoms: C_8  and  C_9
REMARK    4  A    between atoms: N_11  and  C_12
REMARK    5  A    between atoms: C_12  and  C_13
REMARK    6  A    between atoms: C_16  and  C_17
REMARK    7  A    between atoms: C_17  and  N_18
REMARK    8  A    between atoms: C_19  and  C_21
REMARK                            x       y       z     vdW  Elec       q    Type
REMARK                         _______ _______ _______ _____ _____    ______ ____
ROOT
ATOM      1  C   UNL     1      45.015   5.670  11.289  0.00  0.00    +0.000 A 
ATOM      2  C   UNL     1      45.798   4.849  12.111  0.00  0.00    +0.000 A 
ATOM      3  C   UNL     1      46.765   5.402  12.959  0.00  0.00    +0.000 A 
ATOM      4  C   UNL     1      46.955   6.791  13.018  0.00  0.00    +0.000 A 
ATOM      5  C   UNL     1      46.176   7.609  12.188  0.00  0.00    +0.000 A 
ATOM      6  C   UNL     1      45.209   7.057  11.341  0.00  0.00    +0.000 A 
ENDROOT
BRANCH   1   7
ATOM      7  C   UNL     1      43.953   5.079  10.395  0.00  0.00    +0.000 C 
BRANCH   7  10
ATOM      8  C   UNL     1      45.577   4.481   8.639  0.00  0.00    +0.000 C 
ATOM      9  O   UNL     1      46.064   5.610   8.635  0.00  0.00    +0.000 OA
ATOM     10  N   UNL     1      44.523   4.148   9.452  0.00  0.00    +0.000 N 
ATOM     11  H   UNL     1      44.160   3.202   9.415  0.00  0.00    +0.000 HD
BRANCH   8  17
ATOM     12  C   UNL     1      46.189   2.029   8.095  0.00  0.00    +0.000 A 
ATOM     13  C   UNL     1      46.851   1.137   7.235  0.00  0.00    +0.000 A 
ATOM     14  C   UNL     1      47.437   1.583   6.047  0.00  0.00    +0.000 A 
ATOM     15  C   UNL     1      47.359   2.923   5.695  0.00  0.00    +0.000 A 
ATOM     16  C   UNL     1      46.725   3.826   6.548  0.00  0.00    +0.000 A 
ATOM     17  C   UNL     1      46.154   3.401   7.764  0.00  0.00    +0.000 A 
BRANCH  12  19
ATOM     18  C   UNL     1      44.230   1.161   9.164  0.00  0.00    +0.000 C 
ATOM     19  O   UNL     1      45.572   1.629   9.253  0.00  0.00    +0.000 OA
ENDBRANCH  12  19
ENDBRANCH   8  17
ENDBRANCH   7  10
ENDBRANCH   1   7
BRANCH   4  20
ATOM     20  C   UNL     1      47.987   7.402  13.932  0.00  0.00    +0.000 C 
BRANCH  20  21
ATOM     21  N   UNL     1      47.900   6.864  15.266  0.00  0.00    +0.000 N 
ATOM     22  C   UNL     1      49.022   6.462  15.950  0.00  0.00    +0.000 C 
ATOM     23  O   UNL     1      50.150   6.575  15.477  0.00  0.00    +0.000 OA
ATOM     24  H   UNL     1      46.990   6.531  15.569  0.00  0.00    +0.000 HD
BRANCH  22  25
ATOM     25  C   UNL     1      48.809   5.948  17.310  0.00  0.00    +0.000 A 
ATOM     26  C   UNL     1      49.072   4.614  17.596  0.00  0.00    +0.000 A 
ATOM     27  S   UNL     1      48.821   4.204  19.232  0.00  0.00    +0.000 S 
ATOM     28  C   UNL     1      48.300   5.780  19.607  0.00  0.00    +0.000 A 
ATOM     29  N   UNL     1      47.901   6.106  20.864  0.00  0.00    +0.000 NA
ATOM     30  C   UNL     1      47.498   7.327  20.997  0.00  0.00    +0.000 A 
ATOM     31  N   UNL     1      47.472   8.255  19.988  0.00  0.00    +0.000 N 
ATOM     32  C   UNL     1      47.897   7.978  18.712  0.00  0.00    +0.000 A 
ATOM     33  O   UNL     1      47.901   8.843  17.840  0.00  0.00    +0.000 OA
ATOM     34  C   UNL     1      48.342   6.615  18.504  0.00  0.00    +0.000 A 
ATOM     35  H   UNL     1      47.157   9.197  20.158  0.00  0.00    +0.000 HD
ENDBRANCH  22  25
ENDBRANCH  20  21
ENDBRANCH   4  20
TORSDOF 7
ENDMDL
MODEL 5
REMARK VINA RESULT:    -6.685      1.584      2.628
REMARK INTER + INTRA:         -10.672
REMARK INTER:                  -9.390
REMARK INTRA:                  -1.283
REMARK UNBOUND:                -1.252
REMARK  Name = 
REMARK  8 active torsions:
REMARK  status: ('A' for Active; 'I' for Inactive)
REMARK    1  A    between atoms: C_1  and  O_2
REMARK    2  A    between atoms: O_2  and  C_3
REMARK    3  A    between atoms: C_8  and  C_9
REMARK    4  A    between atoms: N_11  and  C_12
REMARK    5  A    between atoms: C_12  and  C_13
REMARK    6  A    between atoms: C_16  and  C_17
REMARK    7  A    between atoms: C_17  and  N_18
REMARK    8  A    between atoms: C_19  and  C_21
REMARK                            x       y       z     vdW  Elec       q    Type
REMARK                         _______ _______ _______ _____ _____    ______ ____
ROOT
ATOM      1  C   UNL     1      49.449   7.448  16.156  0.00  0.00    +0.000 A 
ATOM      2  C   UNL     1      48.671   6.497  15.481  0.00  0.00    +0.000 A 
ATOM      3  C   UNL     1      48.265   6.716  14.159  0.00  0.00    +0.000 A 
ATOM      4  C   UNL     1      48.646   7.880  13.476  0.00  0.00    +0.000 A 
ATOM      5  C   UNL     1      49.418   8.832  14.156  0.00  0.00    +0.000 A 
ATOM      6  C   UNL     1      49.825   8.615  15.477  0.00  0.00    +0.000 A 
ENDROOT
BRANCH   1   7
ATOM      7  C   UNL     1      49.913   7.203  17.570  0.00  0.00    +0.000 C 
BRANCH   7  10
ATOM      8  C   UNL     1      50.251   4.833  18.160  0.00  0.00    +0.000 C 
ATOM      9  O   UNL     1      49.114   4.732  18.616  0.00  0.00    +0.000 OA
ATOM     10  N   UNL     1      50.729   6.016  17.654  0.00  0.00    +0.000 N 
ATOM     11  H   UNL     1      51.675   6.043  17.291  0.00  0.00    +0.000 HD
BRANCH   8  17
ATOM     12  C   UNL     1      52.473   3.595  18.624  0.00  0.00    +0.000 A 
ATOM     13  C   UNL     1      53.253   2.445  18.418  0.00  0.00    +0.000 A 
ATOM     14  C   UNL     1      52.734   1.334  17.749  0.00  0.00    +0.000 A 
ATOM     15  C   UNL     1      51.424   1.350  17.288  0.00  0.00    +0.000 A 
ATOM     16  C   UNL     1      50.644   2.492  17.464  0.00  0.00    +0.000 A 
ATOM     17  C   UNL     1      51.159   3.634  18.109  0.00  0.00    +0.000 A 
BRANCH  12  19
ATOM     18  C   UNL     1      54.248   5.154  19.016  0.00  0.00    +0.000 C 
ATOM     19  O   UNL     1      52.932   4.696  19.304  0.00  0.00    +0.000 OA
ENDBRANCH  12  19
ENDBRANCH   8  17
ENDBRANCH   7  10
ENDBRANCH   1   7
BRANCH   4  20
ATOM     20  C   UNL     1      48.223   8.125  12.049  0.00  0.00    +0.000 C 
BRANCH  20  21
ATOM     21  N   UNL     1      47.540   6.984  11.495  0.00  0.00    +0.000 N 
ATOM     22  C   UNL     1      46.172   6.957  11.375  0.00  0.00    +0.000 C 
ATOM     23  O   UNL     1      45.470   7.912  11.698  0.00  0.00    +0.000 OA
ATOM     24  H   UNL     1      48.057   6.110  11.461  0.00  0.00    +0.000 HD
BRANCH  22  25
ATOM     25  C   UNL     1      45.592   5.747  10.776  0.00  0.00    +0.000 A 
ATOM     26  C   UNL     1      45.765   5.495   9.420  0.00  0.00    +0.000 A 
ATOM     27  S   UNL     1      45.073   4.024   8.906  0.00  0.00    +0.000 S 
ATOM     28  C   UNL     1      44.469   3.697  10.462  0.00  0.00    +0.000 A 
ATOM     29  N   UNL     1      43.739   2.578  10.711  0.00  0.00    +0.000 NA
ATOM     30  C   UNL     1      43.316   2.476  11.928  0.00  0.00    +0.000 A 
ATOM     31  N   UNL     1      43.570   3.385  12.922  0.00  0.00    +0.000 N 
ATOM     32  C   UNL     1      44.330   4.511  12.723  0.00  0.00    +0.000 A 
ATOM     33  O   UNL     1      44.575   5.285  13.645  0.00  0.00    +0.000 OA
ATOM     34  C   UNL     1      44.814   4.684  11.369  0.00  0.00    +0.000 A 
ATOM     35  H   UNL     1      43.221   3.242  13.857  0.00  0.00    +0.000 HD
ENDBRANCH  22  25
ENDBRANCH  20  21
ENDBRANCH   4  20
TORSDOF 7
ENDMDL
MODEL 6
REMARK VINA RESULT:    -6.674      3.546      9.166
REMARK INTER + INTRA:         -10.657
REMARK INTER:                  -9.945
REMARK INTRA:                  -0.712
REMARK UNBOUND:                -1.252
REMARK  Name = 
REMARK  8 active torsions:
REMARK  status: ('A' for Active; 'I' for Inactive)
REMARK    1  A    between atoms: C_1  and  O_2
REMARK    2  A    between atoms: O_2  and  C_3
REMARK    3  A    between atoms: C_8  and  C_9
REMARK    4  A    between atoms: N_11  and  C_12
REMARK    5  A    between atoms: C_12  and  C_13
REMARK    6  A    between atoms: C_16  and  C_17
REMARK    7  A    between atoms: C_17  and  N_18
REMARK    8  A    between atoms: C_19  and  C_21
REMARK                            x       y       z     vdW  Elec       q    Type
REMARK                         _______ _______ _______ _____ _____    ______ ____
ROOT
ATOM      1  C   UNL     1      44.972   4.789  12.085  0.00  0.00    +0.000 A 
ATOM      2  C   UNL     1      46.056   4.964  12.956  0.00  0.00    +0.000 A 
ATOM      3  C   UNL     1      46.499   6.249  13.294  0.00  0.00    +0.000 A 
ATOM      4  C   UNL     1      45.853   7.385  12.785  0.00  0.00    +0.000 A 
ATOM      5  C   UNL     1      44.775   7.206  11.908  0.00  0.00    +0.000 A 
ATOM      6  C   UNL     1      44.331   5.923  11.570  0.00  0.00    +0.000 A 
ENDROOT
BRANCH   1   7
ATOM      7  C   UNL     1      44.474   3.407  11.741  0.00  0.00    +0.000 C 
BRANCH   7  10
ATOM      8  C   UNL     1      44.858   2.909   9.357  0.00  0.00    +0.000 C 
ATOM      9  O   UNL     1      43.803   3.444   9.023  0.00  0.00    +0.000 OA
ATOM     10  N   UNL     1      45.247   2.825  10.671  0.00  0.00    +0.000 N 
ATOM     11  H   UNL     1      46.128   2.373  10.889  0.00  0.00    +0.000 HD
BRANCH   8  17
ATOM     12  C   UNL     1      46.398   3.109   7.289  0.00  0.00    +0.000 A 
ATOM     13  C   UNL     1      47.165   2.447   6.316  0.00  0.00    +0.000 A 
ATOM     14  C   UNL     1      47.363   1.065   6.373  0.00  0.00    +0.000 A 
ATOM     15  C   UNL     1      46.808   0.326   7.409  0.00  0.00    +0.000 A 
ATOM     16  C   UNL     1      46.025   0.964   8.371  0.00  0.00    +0.000 A 
ATOM     17  C   UNL     1      45.790   2.352   8.315  0.00  0.00    +0.000 A 
BRANCH  12  19
ATOM     18  C   UNL     1      46.747   5.214   8.376  0.00  0.00    +0.000 C 
ATOM     19  O   UNL     1      46.207   4.468   7.291  0.00  0.00    +0.000 OA
ENDBRANCH  12  19
ENDBRANCH   8  17
ENDBRANCH   7  10
ENDBRANCH   1   7
BRANCH   4  20
ATOM     20  C   UNL     1      46.314   8.775  13.147  0.00  0.00    +0.000 C 
BRANCH  20  21
ATOM     21  N   UNL     1      46.814   8.834  14.497  0.00  0.00    +0.000 N 
ATOM     22  C   UNL     1      48.161   8.778  14.764  0.00  0.00    +0.000 C 
ATOM     23  O   UNL     1      49.001   8.713  13.870  0.00  0.00    +0.000 OA
ATOM     24  H   UNL     1      46.154   8.634  15.241  0.00  0.00    +0.000 HD
BRANCH  22  25
ATOM     25  C   UNL     1      48.551   8.868  16.178  0.00  0.00    +0.000 A 
ATOM     26  C   UNL     1      48.524  10.096  16.827  0.00  0.00    +0.000 A 
ATOM     27  S   UNL     1      48.954  10.008  18.475  0.00  0.00    +0.000 S 
ATOM     28  C   UNL     1      49.246   8.335  18.368  0.00  0.00    +0.000 A 
ATOM     29  N   UNL     1      49.679   7.628  19.444  0.00  0.00    +0.000 NA
ATOM     30  C   UNL     1      49.892   6.375  19.210  0.00  0.00    +0.000 A 
ATOM     31  N   UNL     1      49.697   5.763  17.999  0.00  0.00    +0.000 N 
ATOM     32  C   UNL     1      49.230   6.431  16.895  0.00  0.00    +0.000 A 
ATOM     33  O   UNL     1      49.025   5.845  15.835  0.00  0.00    +0.000 OA
ATOM     34  C   UNL     1      48.992   7.845  17.098  0.00  0.00    +0.000 A 
ATOM     35  H   UNL     1      49.871   4.776  17.883  0.00  0.00    +0.000 HD
ENDBRANCH  22  25
ENDBRANCH  20  21
ENDBRANCH   4  20
TORSDOF 7
ENDMDL
MODEL 7
REMARK VINA RESULT:    -6.425      3.314      9.163
REMARK INTER + INTRA:         -10.306
REMARK INTER:                  -9.226
REMARK INTRA:                  -1.080
REMARK UNBOUND:                -1.252
REMARK  Name = 
REMARK  8 active torsions:
REMARK  status: ('A' for Active; 'I' for Inactive)
REMARK    1  A    between atoms: C_1  and  O_2
REMARK    2  A    between atoms: O_2  and  C_3
REMARK    3  A    between atoms: C_8  and  C_9
REMARK    4  A    between atoms: N_11  and  C_12
REMARK    5  A    between atoms: C_12  and  C_13
REMARK    6  A    between atoms: C_16  and  C_17
REMARK    7  A    between atoms: C_17  and  N_18
REMARK    8  A    between atoms: C_19  and  C_21
REMARK                            x       y       z     vdW  Elec       q    Type
REMARK                         _______ _______ _______ _____ _____    ______ ____
ROOT
ATOM      1  C   UNL     1      46.964   7.691  12.935  0.00  0.00    +0.000 A 
ATOM      2  C   UNL     1      48.084   6.902  12.639  0.00  0.00    +0.000 A 
ATOM      3  C   UNL     1      49.288   7.085  13.328  0.00  0.00    +0.000 A 
ATOM      4  C   UNL     1      49.393   8.047  14.344  0.00  0.00    +0.000 A 
ATOM      5  C   UNL     1      48.274   8.839  14.632  0.00  0.00    +0.000 A 
ATOM      6  C   UNL     1      47.069   8.657  13.944  0.00  0.00    +0.000 A 
ENDROOT
BRANCH   1   7
ATOM      7  C   UNL     1      45.657   7.477  12.214  0.00  0.00    +0.000 C 
BRANCH   7  10
ATOM      8  C   UNL     1      44.572   5.748  10.830  0.00  0.00    +0.000 C 
ATOM      9  O   UNL     1      43.454   6.218  11.030  0.00  0.00    +0.000 OA
ATOM     10  N   UNL     1      45.700   6.290  11.395  0.00  0.00    +0.000 N 
ATOM     11  H   UNL     1      46.597   5.862  11.197  0.00  0.00    +0.000 HD
BRANCH   8  17
ATOM     12  C   UNL     1      44.119   3.313  10.089  0.00  0.00    +0.000 A 
ATOM     13  C   UNL     1      44.450   2.258   9.222  0.00  0.00    +0.000 A 
ATOM     14  C   UNL     1      45.358   2.444   8.176  0.00  0.00    +0.000 A 
ATOM     15  C   UNL     1      45.938   3.689   7.973  0.00  0.00    +0.000 A 
ATOM     16  C   UNL     1      45.638   4.740   8.838  0.00  0.00    +0.000 A 
ATOM     17  C   UNL     1      44.748   4.566   9.916  0.00  0.00    +0.000 A 
BRANCH  12  19
ATOM     18  C   UNL     1      43.612   2.473  12.273  0.00  0.00    +0.000 C 
ATOM     19  O   UNL     1      43.209   3.183  11.107  0.00  0.00    +0.000 OA
ENDBRANCH  12  19
ENDBRANCH   8  17
ENDBRANCH   7  10
ENDBRANCH   1   7
BRANCH   4  20
ATOM     20  C   UNL     1      50.681   8.249  15.101  0.00  0.00    +0.000 C 
BRANCH  20  21
ATOM     21  N   UNL     1      50.619   7.671  16.419  0.00  0.00    +0.000 N 
ATOM     22  C   UNL     1      51.518   6.714  16.825  0.00  0.00    +0.000 C 
ATOM     23  O   UNL     1      52.436   6.334  16.102  0.00  0.00    +0.000 OA
ATOM     24  H   UNL     1      49.746   7.774  16.926  0.00  0.00    +0.000 HD
BRANCH  22  25
ATOM     25  C   UNL     1      51.366   6.214  18.198  0.00  0.00    +0.000 A 
ATOM     26  C   UNL     1      52.444   6.259  19.074  0.00  0.00    +0.000 A 
ATOM     27  S   UNL     1      52.076   5.689  20.639  0.00  0.00    +0.000 S 
ATOM     28  C   UNL     1      50.479   5.310  20.188  0.00  0.00    +0.000 A 
ATOM     29  N   UNL     1      49.615   4.749  21.073  0.00  0.00    +0.000 NA
ATOM     30  C   UNL     1      48.448   4.483  20.585  0.00  0.00    +0.000 A 
ATOM     31  N   UNL     1      48.064   4.742  19.294  0.00  0.00    +0.000 N 
ATOM     32  C   UNL     1      48.894   5.337  18.377  0.00  0.00    +0.000 A 
ATOM     33  O   UNL     1      48.506   5.595  17.240  0.00  0.00    +0.000 OA
ATOM     34  C   UNL     1      50.222   5.640  18.868  0.00  0.00    +0.000 A 
ATOM     35  H   UNL     1      47.133   4.521  18.977  0.00  0.00    +0.000 HD
ENDBRANCH  22  25
ENDBRANCH  20  21
ENDBRANCH   4  20
TORSDOF 7
ENDMDL
MODEL 8
REMARK VINA RESULT:    -5.725      4.327      7.072
REMARK INTER + INTRA:          -9.319
REMARK INTER:                  -8.153
REMARK INTRA:                  -1.166
REMARK UNBOUND:                -1.252
REMARK  Name = 
REMARK  8 active torsions:
REMARK  status: ('A' for Active; 'I' for Inactive)
REMARK    1  A    between atoms: C_1  and  O_2
REMARK    2  A    between atoms: O_2  and  C_3
REMARK    3  A    between atoms: C_8  and  C_9
REMARK    4  A    between atoms: N_11  and  C_12
REMARK    5  A    between atoms: C_12  and  C_13
REMARK    6  A    between atoms: C_16  and  C_17
REMARK    7  A    between atoms: C_17  and  N_18
REMARK    8  A    between atoms: C_19  and  C_21
REMARK                            x       y       z     vdW  Elec       q    Type
REMARK                         _______ _______ _______ _____ _____    ______ ____
ROOT
ATOM      1  C   UNL     1      51.617   9.829  12.938  0.00  0.00    +0.000 A 
ATOM      2  C   UNL     1      52.004   8.665  13.616  0.00  0.00    +0.000 A 
ATOM      3  C   UNL     1      51.072   7.924  14.352  0.00  0.00    +0.000 A 
ATOM      4  C   UNL     1      49.727   8.319  14.408  0.00  0.00    +0.000 A 
ATOM      5  C   UNL     1      49.345   9.488  13.735  0.00  0.00    +0.000 A 
ATOM      6  C   UNL     1      50.275  10.229  12.999  0.00  0.00    +0.000 A 
ENDROOT
BRANCH   1   7
ATOM      7  C   UNL     1      52.612  10.614  12.121  0.00  0.00    +0.000 C 
BRANCH   7  10
ATOM      8  C   UNL     1      52.309  10.180   9.712  0.00  0.00    +0.000 C 
ATOM      9  O   UNL     1      51.381  10.983   9.633  0.00  0.00    +0.000 OA
ATOM     10  N   UNL     1      52.947   9.922  10.899  0.00  0.00    +0.000 N 
ATOM     11  H   UNL     1      53.706   9.250  10.907  0.00  0.00    +0.000 HD
BRANCH   8  17
ATOM     12  C   UNL     1      52.926   8.068   8.354  0.00  0.00    +0.000 A 
ATOM     13  C   UNL     1      53.503   7.537   7.189  0.00  0.00    +0.000 A 
ATOM     14  C   UNL     1      53.921   8.370   6.148  0.00  0.00    +0.000 A 
ATOM     15  C   UNL     1      53.756   9.745   6.250  0.00  0.00    +0.000 A 
ATOM     16  C   UNL     1      53.206  10.290   7.410  0.00  0.00    +0.000 A 
ATOM     17  C   UNL     1      52.805   9.470   8.482  0.00  0.00    +0.000 A 
BRANCH  12  19
ATOM     18  C   UNL     1      53.316   6.236   9.845  0.00  0.00    +0.000 C 
ATOM     19  O   UNL     1      52.472   7.285   9.385  0.00  0.00    +0.000 OA
ENDBRANCH  12  19
ENDBRANCH   8  17
ENDBRANCH   7  10
ENDBRANCH   1   7
BRANCH   4  20
ATOM     20  C   UNL     1      48.710   7.526  15.189  0.00  0.00    +0.000 C 
BRANCH  20  21
ATOM     21  N   UNL     1      47.517   7.286  14.418  0.00  0.00    +0.000 N 
ATOM     22  C   UNL     1      47.476   6.313  13.449  0.00  0.00    +0.000 C 
ATOM     23  O   UNL     1      48.434   5.580  13.219  0.00  0.00    +0.000 OA
ATOM     24  H   UNL     1      46.819   8.022  14.409  0.00  0.00    +0.000 HD
BRANCH  22  25
ATOM     25  C   UNL     1      46.197   6.148  12.743  0.00  0.00    +0.000 A 
ATOM     26  C   UNL     1      45.557   7.256  12.201  0.00  0.00    +0.000 A 
ATOM     27  S   UNL     1      44.116   6.875  11.373  0.00  0.00    +0.000 S 
ATOM     28  C   UNL     1      44.266   5.224  11.754  0.00  0.00    +0.000 A 
ATOM     29  N   UNL     1      43.326   4.325  11.360  0.00  0.00    +0.000 NA
ATOM     30  C   UNL     1      43.550   3.113  11.748  0.00  0.00    +0.000 A 
ATOM     31  N   UNL     1      44.637   2.717  12.484  0.00  0.00    +0.000 N 
ATOM     32  C   UNL     1      45.626   3.585  12.876  0.00  0.00    +0.000 A 
ATOM     33  O   UNL     1      46.609   3.191  13.498  0.00  0.00    +0.000 OA
ATOM     34  C   UNL     1      45.414   4.962  12.481  0.00  0.00    +0.000 A 
ATOM     35  H   UNL     1      44.761   1.751  12.747  0.00  0.00    +0.000 HD
ENDBRANCH  22  25
ENDBRANCH  20  21
ENDBRANCH   4  20
TORSDOF 7
ENDMDL
MODEL 9
REMARK VINA RESULT:    -5.578      4.498      9.087
REMARK INTER + INTRA:          -9.112
REMARK INTER:                  -8.741
REMARK INTRA:                  -0.371
REMARK UNBOUND:                -1.252
REMARK  Name = 
REMARK  8 active torsions:
REMARK  status: ('A' for Active; 'I' for Inactive)
REMARK    1  A    between atoms: C_1  and  O_2
REMARK    2  A    between atoms: O_2  and  C_3
REMARK    3  A    between atoms: C_8  and  C_9
REMARK    4  A    between atoms: N_11  and  C_12
REMARK    5  A    between atoms: C_12  and  C_13
REMARK    6  A    between atoms: C_16  and  C_17
REMARK    7  A    between atoms: C_17  and  N_18
REMARK    8  A    between atoms: C_19  and  C_21
REMARK                            x       y       z     vdW  Elec       q    Type
REMARK                         _______ _______ _______ _____ _____    ______ ____
ROOT
ATOM      1  C   UNL     1      45.044   4.813  12.167  0.00  0.00    +0.000 A 
ATOM      2  C   UNL     1      46.058   4.835  13.135  0.00  0.00    +0.000 A 
ATOM      3  C   UNL     1      46.610   6.048  13.562  0.00  0.00    +0.000 A 
ATOM      4  C   UNL     1      46.145   7.267  13.048  0.00  0.00    +0.000 A 
ATOM      5  C   UNL     1      45.137   7.242  12.075  0.00  0.00    +0.000 A 
ATOM      6  C   UNL     1      44.584   6.030  11.647  0.00  0.00    +0.000 A 
ENDROOT
BRANCH   1   7
ATOM      7  C   UNL     1      44.428   3.510  11.724  0.00  0.00    +0.000 C 
BRANCH   7  10
ATOM      8  C   UNL     1      44.834   2.973   9.352  0.00  0.00    +0.000 C 
ATOM      9  O   UNL     1      43.796   3.527   8.997  0.00  0.00    +0.000 OA
ATOM     10  N   UNL     1      45.202   2.897  10.672  0.00  0.00    +0.000 N 
ATOM     11  H   UNL     1      46.069   2.428  10.909  0.00  0.00    +0.000 HD
BRANCH   8  17
ATOM     12  C   UNL     1      46.415   3.112   7.310  0.00  0.00    +0.000 A 
ATOM     13  C   UNL     1      47.179   2.421   6.356  0.00  0.00    +0.000 A 
ATOM     14  C   UNL     1      47.337   1.034   6.427  0.00  0.00    +0.000 A 
ATOM     15  C   UNL     1      46.744   0.320   7.459  0.00  0.00    +0.000 A 
ATOM     16  C   UNL     1      45.963   0.988   8.402  0.00  0.00    +0.000 A 
ATOM     17  C   UNL     1      45.768   2.381   8.331  0.00  0.00    +0.000 A 
BRANCH  12  19
ATOM     18  C   UNL     1      46.593   5.193   8.482  0.00  0.00    +0.000 C 
ATOM     19  O   UNL     1      46.261   4.476   7.298  0.00  0.00    +0.000 OA
ENDBRANCH  12  19
ENDBRANCH   8  17
ENDBRANCH   7  10
ENDBRANCH   1   7
BRANCH   4  20
ATOM     20  C   UNL     1      46.724   8.583  13.506  0.00  0.00    +0.000 C 
BRANCH  20  21
ATOM     21  N   UNL     1      48.036   8.416  14.075  0.00  0.00    +0.000 N 
ATOM     22  C   UNL     1      48.873   9.487  14.272  0.00  0.00    +0.000 C 
ATOM     23  O   UNL     1      48.532  10.638  14.009  0.00  0.00    +0.000 OA
ATOM     24  H   UNL     1      48.428   7.479  14.062  0.00  0.00    +0.000 HD
BRANCH  22  25
ATOM     25  C   UNL     1      50.179   9.194  14.879  0.00  0.00    +0.000 A 
ATOM     26  C   UNL     1      50.366   9.380  16.244  0.00  0.00    +0.000 A 
ATOM     27  S   UNL     1      51.922   8.941  16.786  0.00  0.00    +0.000 S 
ATOM     28  C   UNL     1      52.420   8.539  15.209  0.00  0.00    +0.000 A 
ATOM     29  N   UNL     1      53.685   8.109  14.962  0.00  0.00    +0.000 NA
ATOM     30  C   UNL     1      53.935   7.873  13.716  0.00  0.00    +0.000 A 
ATOM     31  N   UNL     1      53.030   8.016  12.697  0.00  0.00    +0.000 N 
ATOM     32  C   UNL     1      51.733   8.417  12.906  0.00  0.00    +0.000 A 
ATOM     33  O   UNL     1      50.933   8.494  11.977  0.00  0.00    +0.000 OA
ATOM     34  C   UNL     1      51.405   8.712  14.285  0.00  0.00    +0.000 A 
ATOM     35  H   UNL     1      53.284   7.805  11.744  0.00  0.00    +0.000 HD
ENDBRANCH  22  25
ENDBRANCH  20  21
ENDBRANCH   4  20
TORSDOF 7
ENDMDL
