MODEL 1
REMARK VINA RESULT:    -7.205      0.000      0.000
REMARK INTER + INTRA:         -12.321
REMARK INTER:                 -11.628
REMARK INTRA:                  -0.693
REMARK UNBOUND:                -0.693
REMARK  Name = 
REMARK  12 active torsions:
REMARK  status: ('A' for Active; 'I' for Inactive)
REMARK    1  A    between atoms: C_1  and  O_2
REMARK    2  A    between atoms: O_2  and  C_3
REMARK    3  A    between atoms: C_3  and  C_4
REMARK    4  A    between atoms: C_4  and  N_5
REMARK    5  A    between atoms: C_4  and  C_19
REMARK    6  A    between atoms: C_6  and  C_8
REMARK    7  A    between atoms: C_22  and  C_23
REMARK    8  A    between atoms: C_23  and  N_24
REMARK    9  A    between atoms: N_24  and  CA_25
REMARK   10  A    between atoms: CA_25  and  C_26
REMARK   11  A    between atoms: CA_25  and  C_28
REMARK   12  A    between atoms: C_26  and  O_27
REMARK                            x       y       z     vdW  Elec       q    Type
REMARK                         _______ _______ _______ _____ _____    ______ ____
ROOT
ATOM      1  C   UNL     1      48.708   6.058  17.150  0.00  0.00    +0.000 C 
ENDROOT
BRANCH   1   2
ATOM      2  C   UNL     1      49.484   4.754  17.270  0.00  0.00    +0.000 A 
ATOM      3  C   UNL     1      48.787   3.529  17.271  0.00  0.00    +0.000 A 
ATOM      4  C   UNL     1      49.473   2.312  17.379  0.00  0.00    +0.000 A 
ATOM      5  C   UNL     1      50.869   2.299  17.491  0.00  0.00    +0.000 A 
ATOM      6  C   UNL     1      51.558   3.518  17.491  0.00  0.00    +0.000 A 
ATOM      7  C   UNL     1      50.874   4.727  17.397  0.00  0.00    +0.000 A 
BRANCH   5   8
ATOM      8  C   UNL     1      51.641   1.013  17.661  0.00  0.00    +0.000 C 
BRANCH   8   9
ATOM      9  N   UNL     1      52.896   1.213  18.369  0.00  0.00    +0.000 NA
ATOM     10  H   UNL     1      52.920   0.662  19.225  0.00  0.00    +0.000 HD
BRANCH   9  11
ATOM     11  CA  UNL     1      54.111   0.986  17.553  0.00  0.00    +0.000 C 
BRANCH  11  12
ATOM     12  C   UNL     1      55.307   1.663  18.304  0.00  0.00    +0.000 C 
ATOM     13  C   UNL     1      54.988   1.926  19.793  0.00  0.00    +0.000 C 
ATOM     14  C   UNL     1      53.963   3.046  19.956  0.00  0.00    +0.000 C 
ATOM     15  N   UNL     1      54.459   4.300  19.386  0.00  0.00    +0.000 NA
ATOM     16  C   UNL     1      54.801   4.156  17.969  0.00  0.00    +0.000 C 
ATOM     17  C   UNL     1      55.770   3.002  17.696  0.00  0.00    +0.000 C 
ATOM     18  H   UNL     1      55.292   4.581  19.902  0.00  0.00    +0.000 HD
ENDBRANCH  11  12
BRANCH  11  19
ATOM     19  C   UNL     1      54.363  -0.513  17.237  0.00  0.00    +0.000 C 
BRANCH  19  20
ATOM     20  O   UNL     1      54.172  -0.813  15.859  0.00  0.00    +0.000 OA
ATOM     21  H   UNL     1      53.935  -1.754  15.803  0.00  0.00    +0.000 HD
ENDBRANCH  19  20
ENDBRANCH  11  19
ENDBRANCH   9  11
ENDBRANCH   8   9
ENDBRANCH   5   8
ENDBRANCH   1   2
BRANCH   1  22
ATOM     22  N   UNL     1      47.831   5.982  15.986  0.00  0.00    +0.000 N 
ATOM     23  C   UNL     1      48.274   6.328  14.736  0.00  0.00    +0.000 C 
ATOM     24  O   UNL     1      49.435   6.672  14.531  0.00  0.00    +0.000 OA
ATOM     25  H   UNL     1      46.838   5.851  16.153  0.00  0.00    +0.000 HD
BRANCH  23  26
ATOM     26  C   UNL     1      47.311   6.233  13.635  0.00  0.00    +0.000 A 
ATOM     27  C   UNL     1      46.926   7.386  12.966  0.00  0.00    +0.000 A 
ATOM     28  S   UNL     1      45.767   7.114  11.747  0.00  0.00    +0.000 S 
ATOM     29  C   UNL     1      45.696   5.454  12.112  0.00  0.00    +0.000 A 
ATOM     30  N   UNL     1      44.811   4.638  11.482  0.00  0.00    +0.000 NA
ATOM     31  C   UNL     1      44.818   3.403  11.878  0.00  0.00    +0.000 A 
ATOM     32  N   UNL     1      43.939   2.515  11.351  0.00  0.00    +0.000 N 
ATOM     33  N   UNL     1      45.683   2.925  12.825  0.00  0.00    +0.000 N 
ATOM     34  C   UNL     1      46.613   3.703  13.474  0.00  0.00    +0.000 A 
ATOM     35  O   UNL     1      47.404   3.223  14.281  0.00  0.00    +0.000 OA
ATOM     36  C   UNL     1      46.595   5.100  13.100  0.00  0.00    +0.000 A 
ATOM     37  H   UNL     1      43.470   2.868  10.521  0.00  0.00    +0.000 HD
ATOM     38  H   UNL     1      44.210   1.545  11.280  0.00  0.00    +0.000 HD
ATOM     39  H   UNL     1      45.642   1.956  13.102  0.00  0.00    +0.000 HD
ENDBRANCH  23  26
ENDBRANCH   1  22
BRANCH   1  40
ATOM     40  C   UNL     1      47.914   6.444  18.425  0.00  0.00    +0.000 C 
BRANCH  40  42
ATOM     41  C   UNL     1      48.087   6.062  20.751  0.00  0.00    +0.000 C 
ATOM     42  O   UNL     1      48.775   6.442  19.569  0.00  0.00    +0.000 OA
ENDBRANCH  40  42
ENDBRANCH   1  40
TORSDOF 11
ENDMDL
MODEL 2
REMARK VINA RESULT:    -6.977      3.789      9.632
REMARK INTER + INTRA:         -11.953
REMARK INTER:                 -10.647
REMARK INTRA:                  -1.306
REMARK UNBOUND:                -0.693
REMARK  Name = 
REMARK  12 active torsions:
REMARK  status: ('A' for Active; 'I' for Inactive)
REMARK    1  A    between atoms: C_1  and  O_2
REMARK    2  A    between atoms: O_2  and  C_3
REMARK    3  A    between atoms: C_3  and  C_4
REMARK    4  A    between atoms: C_4  and  N_5
REMARK    5  A    between atoms: C_4  and  C_19
REMARK    6  A    between atoms: C_6  and  C_8
REMARK    7  A    between atoms: C_22  and  C_23
REMARK    8  A    between atoms: C_23  and  N_24
REMARK    9  A    between atoms: N_24  and  CA_25
REMARK   10  A    between atoms: CA_25  and  C_26
REMARK   11  A    between atoms: CA_25  and  C_28
REMARK   12  A    between atoms: C_26  and  O_27
REMARK                            x       y       z     vdW  Elec       q    Type
REMARK                         _______ _______ _______ _____ _____    ______ ____
ROOT
ATOM      1  C   UNL     1      50.568   9.197  12.705  0.00  0.00    +0.000 C 
ENDROOT
BRANCH   1   2
ATOM      2  C   UNL     1      49.097   8.931  12.416  0.00  0.00    +0.000 A 
ATOM      3  C   UNL     1      48.672   7.619  12.124  0.00  0.00    +0.000 A 
ATOM      4  C   UNL     1      47.326   7.344  11.855  0.00  0.00    +0.000 A 
ATOM      5  C   UNL     1      46.379   8.375  11.871  0.00  0.00    +0.000 A 
ATOM      6  C   UNL     1      46.805   9.678  12.160  0.00  0.00    +0.000 A 
ATOM      7  C   UNL     1      48.146   9.953  12.414  0.00  0.00    +0.000 A 
BRANCH   5   8
ATOM      8  C   UNL     1      44.928   8.129  11.536  0.00  0.00    +0.000 C 
BRANCH   8   9
ATOM      9  N   UNL     1      44.371   7.015  12.287  0.00  0.00    +0.000 NA
ATOM     10  H   UNL     1      43.662   7.339  12.942  0.00  0.00    +0.000 HD
BRANCH   9  11
ATOM     11  CA  UNL     1      43.859   5.901  11.455  0.00  0.00    +0.000 C 
BRANCH  11  12
ATOM     12  C   UNL     1      45.067   4.947  11.166  0.00  0.00    +0.000 C 
ATOM     13  C   UNL     1      45.484   4.967   9.678  0.00  0.00    +0.000 C 
ATOM     14  C   UNL     1      44.444   4.279   8.796  0.00  0.00    +0.000 C 
ATOM     15  N   UNL     1      44.269   2.879   9.184  0.00  0.00    +0.000 NA
ATOM     16  C   UNL     1      43.879   2.747  10.589  0.00  0.00    +0.000 C 
ATOM     17  C   UNL     1      44.825   3.473  11.549  0.00  0.00    +0.000 C 
ATOM     18  H   UNL     1      45.153   2.391   9.037  0.00  0.00    +0.000 HD
ENDBRANCH  11  12
BRANCH  11  19
ATOM     19  C   UNL     1      42.647   5.169  12.092  0.00  0.00    +0.000 C 
BRANCH  19  20
ATOM     20  O   UNL     1      42.598   5.336  13.504  0.00  0.00    +0.000 OA
ATOM     21  H   UNL     1      43.478   5.107  13.847  0.00  0.00    +0.000 HD
ENDBRANCH  19  20
ENDBRANCH  11  19
ENDBRANCH   9  11
ENDBRANCH   8   9
ENDBRANCH   5   8
ENDBRANCH   1   2
BRANCH   1  22
ATOM     22  N   UNL     1      51.060   8.181  13.630  0.00  0.00    +0.000 N 
ATOM     23  C   UNL     1      51.101   8.408  14.981  0.00  0.00    +0.000 C 
ATOM     24  O   UNL     1      50.685   9.452  15.477  0.00  0.00    +0.000 OA
ATOM     25  H   UNL     1      51.546   7.381  13.236  0.00  0.00    +0.000 HD
BRANCH  23  26
ATOM     26  C   UNL     1      51.627   7.331  15.824  0.00  0.00    +0.000 A 
ATOM     27  C   UNL     1      52.999   7.217  16.006  0.00  0.00    +0.000 A 
ATOM     28  S   UNL     1      53.452   5.888  16.971  0.00  0.00    +0.000 S 
ATOM     29  C   UNL     1      51.835   5.385  17.130  0.00  0.00    +0.000 A 
ATOM     30  N   UNL     1      51.524   4.231  17.776  0.00  0.00    +0.000 NA
ATOM     31  C   UNL     1      50.263   3.929  17.792  0.00  0.00    +0.000 A 
ATOM     32  N   UNL     1      49.847   2.773  18.367  0.00  0.00    +0.000 N 
ATOM     33  N   UNL     1      49.294   4.728  17.248  0.00  0.00    +0.000 N 
ATOM     34  C   UNL     1      49.554   5.916  16.606  0.00  0.00    +0.000 A 
ATOM     35  O   UNL     1      48.650   6.627  16.176  0.00  0.00    +0.000 OA
ATOM     36  C   UNL     1      50.956   6.257  16.516  0.00  0.00    +0.000 A 
ATOM     37  H   UNL     1      50.570   2.327  18.927  0.00  0.00    +0.000 HD
ATOM     38  H   UNL     1      48.932   2.740  18.790  0.00  0.00    +0.000 HD
ATOM     39  H   UNL     1      48.327   4.443  17.282  0.00  0.00    +0.000 HD
ENDBRANCH  23  26
ENDBRANCH   1  22
BRANCH   1  40
ATOM     40  C   UNL     1      51.459   9.278  11.438  0.00  0.00    +0.000 C 
BRANCH  40  42
ATOM     41  C   UNL     1      52.000   7.333  10.208  0.00  0.00    +0.000 C 
ATOM     42  O   UNL     1      52.303   8.125  11.347  0.00  0.00    +0.000 OA
ENDBRANCH  40  42
ENDBRANCH   1  40
TORSDOF 11
ENDMDL
MODEL 3
REMARK VINA RESULT:    -6.857      3.400      9.217
REMARK INTER + INTRA:         -11.758
REMARK INTER:                 -10.160
REMARK INTRA:                  -1.599
REMARK UNBOUND:                -0.693
REMARK  Name = 
REMARK  12 active torsions:
REMARK  status: ('A' for Active; 'I' for Inactive)
REMARK    1  A    between atoms: C_1  and  O_2
REMARK    2  A    between atoms: O_2  and  C_3
REMARK    3  A    between atoms: C_3  and  C_4
REMARK    4  A    between atoms: C_4  and  N_5
REMARK    5  A    between atoms: C_4  and  C_19
REMARK    6  A    between atoms: C_6  and  C_8
REMARK    7  A    between atoms: C_22  and  C_23
REMARK    8  A    between atoms: C_23  and  N_24
REMARK    9  A    between atoms: N_24  and  CA_25
REMARK   10  A    between atoms: CA_25  and  C_26
REMARK   11  A    between atoms: CA_25  and  C_28
REMARK   12  A    between atoms: C_26  and  O_27
REMARK                            x       y       z     vdW  Elec       q    Type
REMARK                         _______ _______ _______ _____ _____    ______ ____
ROOT
ATOM      1  C   UNL     1      52.208   8.119  15.073  0.00  0.00    +0.000 C 
ENDROOT
BRANCH   1   2
ATOM      2  C   UNL     1      50.885   7.831  14.377  0.00  0.00    +0.000 A 
ATOM      3  C   UNL     1      50.771   8.041  12.988  0.00  0.00    +0.000 A 
ATOM      4  C   UNL     1      49.567   7.785  12.320  0.00  0.00    +0.000 A 
ATOM      5  C   UNL     1      48.454   7.316  13.029  0.00  0.00    +0.000 A 
ATOM      6  C   UNL     1      48.571   7.109  14.410  0.00  0.00    +0.000 A 
ATOM      7  C   UNL     1      49.764   7.377  15.075  0.00  0.00    +0.000 A 
BRANCH   5   8
ATOM      8  C   UNL     1      47.125   7.076  12.356  0.00  0.00    +0.000 C 
BRANCH   8   9
ATOM      9  N   UNL     1      46.072   6.763  13.309  0.00  0.00    +0.000 NA
ATOM     10  H   UNL     1      45.326   7.455  13.264  0.00  0.00    +0.000 HD
BRANCH   9  11
ATOM     11  CA  UNL     1      45.532   5.388  13.206  0.00  0.00    +0.000 C 
BRANCH  11  12
ATOM     12  C   UNL     1      45.184   5.139  11.699  0.00  0.00    +0.000 C 
ATOM     13  C   UNL     1      43.875   5.842  11.277  0.00  0.00    +0.000 C 
ATOM     14  C   UNL     1      42.653   5.169  11.900  0.00  0.00    +0.000 C 
ATOM     15  N   UNL     1      42.554   3.769  11.481  0.00  0.00    +0.000 NA
ATOM     16  C   UNL     1      43.757   3.011  11.828  0.00  0.00    +0.000 C 
ATOM     17  C   UNL     1      45.047   3.653  11.310  0.00  0.00    +0.000 C 
ATOM     18  H   UNL     1      42.425   3.744  10.469  0.00  0.00    +0.000 HD
ENDBRANCH  11  12
BRANCH  11  19
ATOM     19  C   UNL     1      46.483   4.311  13.795  0.00  0.00    +0.000 C 
BRANCH  19  20
ATOM     20  O   UNL     1      46.591   4.405  15.210  0.00  0.00    +0.000 OA
ATOM     21  H   UNL     1      47.187   5.148  15.402  0.00  0.00    +0.000 HD
ENDBRANCH  19  20
ENDBRANCH  11  19
ENDBRANCH   9  11
ENDBRANCH   8   9
ENDBRANCH   5   8
ENDBRANCH   1   2
BRANCH   1  22
ATOM     22  N   UNL     1      52.682   6.897  15.714  0.00  0.00    +0.000 N 
ATOM     23  C   UNL     1      52.638   6.743  17.076  0.00  0.00    +0.000 C 
ATOM     24  O   UNL     1      52.157   7.602  17.811  0.00  0.00    +0.000 OA
ATOM     25  H   UNL     1      53.217   6.245  15.149  0.00  0.00    +0.000 HD
BRANCH  23  26
ATOM     26  C   UNL     1      53.152   5.485  17.624  0.00  0.00    +0.000 A 
ATOM     27  C   UNL     1      54.467   5.422  18.065  0.00  0.00    +0.000 A 
ATOM     28  S   UNL     1      54.926   3.880  18.627  0.00  0.00    +0.000 S 
ATOM     29  C   UNL     1      53.401   3.230  18.246  0.00  0.00    +0.000 A 
ATOM     30  N   UNL     1      53.151   1.903  18.398  0.00  0.00    +0.000 NA
ATOM     31  C   UNL     1      51.969   1.517  18.030  0.00  0.00    +0.000 A 
ATOM     32  N   UNL     1      51.631   0.205  18.093  0.00  0.00    +0.000 N 
ATOM     33  N   UNL     1      51.010   2.378  17.567  0.00  0.00    +0.000 N 
ATOM     34  C   UNL     1      51.204   3.731  17.418  0.00  0.00    +0.000 A 
ATOM     35  O   UNL     1      50.301   4.475  17.046  0.00  0.00    +0.000 OA
ATOM     36  C   UNL     1      52.532   4.190  17.763  0.00  0.00    +0.000 A 
ATOM     37  H   UNL     1      52.295  -0.349  18.628  0.00  0.00    +0.000 HD
ATOM     38  H   UNL     1      50.668  -0.042  18.264  0.00  0.00    +0.000 HD
ATOM     39  H   UNL     1      50.107   2.025  17.288  0.00  0.00    +0.000 HD
ENDBRANCH  23  26
ENDBRANCH   1  22
BRANCH   1  40
ATOM     40  C   UNL     1      53.295   8.721  14.145  0.00  0.00    +0.000 C 
BRANCH  40  42
ATOM     41  C   UNL     1      54.540   7.503  12.546  0.00  0.00    +0.000 C 
ATOM     42  O   UNL     1      54.346   7.773  13.927  0.00  0.00    +0.000 OA
ENDBRANCH  40  42
ENDBRANCH   1  40
TORSDOF 11
ENDMDL
MODEL 4
REMARK VINA RESULT:    -6.674      5.361      7.963
REMARK INTER + INTRA:         -11.463
REMARK INTER:                  -9.743
REMARK INTRA:                  -1.721
REMARK UNBOUND:                -0.693
REMARK  Name = 
REMARK  12 active torsions:
REMARK  status: ('A' for Active; 'I' for Inactive)
REMARK    1  A    between atoms: C_1  and  O_2
REMARK    2  A    between atoms: O_2  and  C_3
REMARK    3  A    between atoms: C_3  and  C_4
REMARK    4  A    between atoms: C_4  and  N_5
REMARK    5  A    between atoms: C_4  and  C_19
REMARK    6  A    between atoms: C_6  and  C_8
REMARK    7  A    between atoms: C_22  and  C_23
REMARK    8  A    between atoms: C_23  and  N_24
REMARK    9  A    between atoms: N_24  and  CA_25
REMARK   10  A    between atoms: CA_25  and  C_26
REMARK   11  A    between atoms: CA_25  and  C_28
REMARK   12  A    between atoms: C_26  and  O_27
REMARK                            x       y       z     vdW  Elec       q    Type
REMARK                         _______ _______ _______ _____ _____    ______ ____
ROOT
ATOM      1  C   UNL     1      44.879   5.729  12.211  0.00  0.00    +0.000 C 
ENDROOT
BRANCH   1   2
ATOM      2  C   UNL     1      45.867   6.885  12.149  0.00  0.00    +0.000 A 
ATOM      3  C   UNL     1      45.438   8.184  12.488  0.00  0.00    +0.000 A 
ATOM      4  C   UNL     1      46.324   9.268  12.441  0.00  0.00    +0.000 A 
ATOM      5  C   UNL     1      47.655   9.073  12.052  0.00  0.00    +0.000 A 
ATOM      6  C   UNL     1      48.078   7.781  11.715  0.00  0.00    +0.000 A 
ATOM      7  C   UNL     1      47.193   6.706  11.749  0.00  0.00    +0.000 A 
BRANCH   5   8
ATOM      8  C   UNL     1      48.627  10.222  11.940  0.00  0.00    +0.000 C 
BRANCH   8   9
ATOM      9  N   UNL     1      48.929  10.818  13.232  0.00  0.00    +0.000 NA
ATOM     10  H   UNL     1      48.109  11.284  13.615  0.00  0.00    +0.000 HD
BRANCH   9  11
ATOM     11  CA  UNL     1      49.525   9.889  14.219  0.00  0.00    +0.000 C 
BRANCH  11  12
ATOM     12  C   UNL     1      51.043  10.254  14.341  0.00  0.00    +0.000 C 
ATOM     13  C   UNL     1      51.801  10.055  13.009  0.00  0.00    +0.000 C 
ATOM     14  C   UNL     1      51.957   8.573  12.670  0.00  0.00    +0.000 C 
ATOM     15  N   UNL     1      52.710   7.873  13.713  0.00  0.00    +0.000 NA
ATOM     16  C   UNL     1      52.077   8.008  15.026  0.00  0.00    +0.000 C 
ATOM     17  C   UNL     1      51.808   9.462  15.421  0.00  0.00    +0.000 C 
ATOM     18  H   UNL     1      53.648   8.270  13.753  0.00  0.00    +0.000 HD
ENDBRANCH  11  12
BRANCH  11  19
ATOM     19  C   UNL     1      48.789   9.894  15.586  0.00  0.00    +0.000 C 
BRANCH  19  20
ATOM     20  O   UNL     1      47.573   9.156  15.545  0.00  0.00    +0.000 OA
ATOM     21  H   UNL     1      47.802   8.244  15.296  0.00  0.00    +0.000 HD
ENDBRANCH  19  20
ENDBRANCH  11  19
ENDBRANCH   9  11
ENDBRANCH   8   9
ENDBRANCH   5   8
ENDBRANCH   1   2
BRANCH   1  22
ATOM     22  N   UNL     1      45.243   4.739  11.203  0.00  0.00    +0.000 N 
ATOM     23  C   UNL     1      44.288   4.021  10.532  0.00  0.00    +0.000 C 
ATOM     24  O   UNL     1      43.088   4.208  10.714  0.00  0.00    +0.000 OA
ATOM     25  H   UNL     1      46.218   4.461  11.147  0.00  0.00    +0.000 HD
BRANCH  23  26
ATOM     26  C   UNL     1      44.757   3.039   9.550  0.00  0.00    +0.000 A 
ATOM     27  C   UNL     1      44.310   1.728   9.631  0.00  0.00    +0.000 A 
ATOM     28  S   UNL     1      44.983   0.701   8.450  0.00  0.00    +0.000 S 
ATOM     29  C   UNL     1      45.940   1.961   7.826  0.00  0.00    +0.000 A 
ATOM     30  N   UNL     1      46.839   1.729   6.834  0.00  0.00    +0.000 NA
ATOM     31  C   UNL     1      47.544   2.756   6.474  0.00  0.00    +0.000 A 
ATOM     32  N   UNL     1      48.506   2.623   5.527  0.00  0.00    +0.000 N 
ATOM     33  N   UNL     1      47.374   4.005   7.007  0.00  0.00    +0.000 N 
ATOM     34  C   UNL     1      46.462   4.298   7.994  0.00  0.00    +0.000 A 
ATOM     35  O   UNL     1      46.307   5.443   8.409  0.00  0.00    +0.000 OA
ATOM     36  C   UNL     1      45.698   3.163   8.463  0.00  0.00    +0.000 A 
ATOM     37  H   UNL     1      48.449   1.739   5.027  0.00  0.00    +0.000 HD
ATOM     38  H   UNL     1      48.715   3.411   4.932  0.00  0.00    +0.000 HD
ATOM     39  H   UNL     1      47.953   4.770   6.696  0.00  0.00    +0.000 HD
ENDBRANCH  23  26
ENDBRANCH   1  22
BRANCH   1  40
ATOM     40  C   UNL     1      44.752   5.078  13.614  0.00  0.00    +0.000 C 
BRANCH  40  42
ATOM     41  C   UNL     1      46.764   4.481  14.702  0.00  0.00    +0.000 C 
ATOM     42  O   UNL     1      45.756   4.072  13.790  0.00  0.00    +0.000 OA
ENDBRANCH  40  42
ENDBRANCH   1  40
TORSDOF 11
ENDMDL
MODEL 5
REMARK VINA RESULT:    -6.673      4.563      7.190
REMARK INTER + INTRA:         -11.461
REMARK INTER:                 -10.206
REMARK INTRA:                  -1.255
REMARK UNBOUND:                -0.693
REMARK  Name = 
REMARK  12 active torsions:
REMARK  status: ('A' for Active; 'I' for Inactive)
REMARK    1  A    between atoms: C_1  and  O_2
REMARK    2  A    between atoms: O_2  and  C_3
REMARK    3  A    between atoms: C_3  and  C_4
REMARK    4  A    between atoms: C_4  and  N_5
REMARK    5  A    between atoms: C_4  and  C_19
REMARK    6  A    between atoms: C_6  and  C_8
REMARK    7  A    between atoms: C_22  and  C_23
REMARK    8  A    between atoms: C_23  and  N_24
REMARK    9  A    between atoms: N_24  and  CA_25
REMARK   10  A    between atoms: CA_25  and  C_26
REMARK   11  A    between atoms: CA_25  and  C_28
REMARK   12  A    between atoms: C_26  and  O_27
REMARK                            x       y       z     vdW  Elec       q    Type
REMARK                         _______ _______ _______ _____ _____    ______ ____
ROOT
ATOM      1  C   UNL     1      44.989   6.522  11.707  0.00  0.00    +0.000 C 
ENDROOT
BRANCH   1   2
ATOM      2  C   UNL     1      46.228   6.936  12.488  0.00  0.00    +0.000 A 
ATOM      3  C   UNL     1      46.278   8.210  13.087  0.00  0.00    +0.000 A 
ATOM      4  C   UNL     1      47.405   8.619  13.812  0.00  0.00    +0.000 A 
ATOM      5  C   UNL     1      48.502   7.760  13.951  0.00  0.00    +0.000 A 
ATOM      6  C   UNL     1      48.450   6.495  13.353  0.00  0.00    +0.000 A 
ATOM      7  C   UNL     1      47.335   6.095  12.621  0.00  0.00    +0.000 A 
BRANCH   5   8
ATOM      8  C   UNL     1      49.754   8.181  14.681  0.00  0.00    +0.000 C 
BRANCH   8   9
ATOM      9  N   UNL     1      50.055   7.311  15.807  0.00  0.00    +0.000 NA
ATOM     10  H   UNL     1      51.015   7.446  16.121  0.00  0.00    +0.000 HD
BRANCH   9  11
ATOM     11  CA  UNL     1      49.104   7.409  16.938  0.00  0.00    +0.000 C 
BRANCH  11  12
ATOM     12  C   UNL     1      49.304   6.133  17.823  0.00  0.00    +0.000 C 
ATOM     13  C   UNL     1      48.971   4.832  17.057  0.00  0.00    +0.000 C 
ATOM     14  C   UNL     1      47.469   4.698  16.811  0.00  0.00    +0.000 C 
ATOM     15  N   UNL     1      46.730   4.664  18.075  0.00  0.00    +0.000 NA
ATOM     16  C   UNL     1      46.986   5.856  18.886  0.00  0.00    +0.000 C 
ATOM     17  C   UNL     1      48.475   6.118  19.123  0.00  0.00    +0.000 C 
ATOM     18  H   UNL     1      47.022   3.838  18.596  0.00  0.00    +0.000 HD
ENDBRANCH  11  12
BRANCH  11  19
ATOM     19  C   UNL     1      49.243   8.731  17.740  0.00  0.00    +0.000 C 
BRANCH  19  20
ATOM     20  O   UNL     1      50.598   9.032  18.051  0.00  0.00    +0.000 OA
ATOM     21  H   UNL     1      50.711   9.990  17.932  0.00  0.00    +0.000 HD
ENDBRANCH  19  20
ENDBRANCH  11  19
ENDBRANCH   9  11
ENDBRANCH   8   9
ENDBRANCH   5   8
ENDBRANCH   1   2
BRANCH   1  22
ATOM     22  N   UNL     1      45.301   5.339  10.913  0.00  0.00    +0.000 N 
ATOM     23  C   UNL     1      44.339   4.702  10.174  0.00  0.00    +0.000 C 
ATOM     24  O   UNL     1      43.187   5.122  10.108  0.00  0.00    +0.000 OA
ATOM     25  H   UNL     1      46.198   4.889  11.072  0.00  0.00    +0.000 HD
BRANCH  23  26
ATOM     26  C   UNL     1      44.750   3.511   9.424  0.00  0.00    +0.000 A 
ATOM     27  C   UNL     1      44.155   2.290   9.706  0.00  0.00    +0.000 A 
ATOM     28  S   UNL     1      44.776   0.998   8.785  0.00  0.00    +0.000 S 
ATOM     29  C   UNL     1      45.902   2.017   8.020  0.00  0.00    +0.000 A 
ATOM     30  N   UNL     1      46.825   1.514   7.158  0.00  0.00    +0.000 NA
ATOM     31  C   UNL     1      47.660   2.380   6.674  0.00  0.00    +0.000 A 
ATOM     32  N   UNL     1      48.653   1.977   5.843  0.00  0.00    +0.000 N 
ATOM     33  N   UNL     1      47.600   3.717   6.958  0.00  0.00    +0.000 N 
ATOM     34  C   UNL     1      46.672   4.280   7.803  0.00  0.00    +0.000 A 
ATOM     35  O   UNL     1      46.623   5.492   7.991  0.00  0.00    +0.000 OA
ATOM     36  C   UNL     1      45.760   3.335   8.408  0.00  0.00    +0.000 A 
ATOM     37  H   UNL     1      48.527   1.025   5.509  0.00  0.00    +0.000 HD
ATOM     38  H   UNL     1      48.984   2.614   5.134  0.00  0.00    +0.000 HD
ATOM     39  H   UNL     1      48.279   4.349   6.559  0.00  0.00    +0.000 HD
ENDBRANCH  23  26
ENDBRANCH   1  22
BRANCH   1  40
ATOM     40  C   UNL     1      43.732   6.290  12.586  0.00  0.00    +0.000 C 
BRANCH  40  42
ATOM     41  C   UNL     1      43.280   4.111  13.382  0.00  0.00    +0.000 C 
ATOM     42  O   UNL     1      44.004   5.313  13.597  0.00  0.00    +0.000 OA
ENDBRANCH  40  42
ENDBRANCH   1  40
TORSDOF 11
ENDMDL
MODEL 6
REMARK VINA RESULT:    -6.565      6.222      8.116
REMARK INTER + INTRA:         -11.287
REMARK INTER:                  -9.833
REMARK INTRA:                  -1.453
REMARK UNBOUND:                -0.693
REMARK  Name = 
REMARK  12 active torsions:
REMARK  status: ('A' for Active; 'I' for Inactive)
REMARK    1  A    between atoms: C_1  and  O_2
REMARK    2  A    between atoms: O_2  and  C_3
REMARK    3  A    between atoms: C_3  and  C_4
REMARK    4  A    between atoms: C_4  and  N_5
REMARK    5  A    between atoms: C_4  and  C_19
REMARK    6  A    between atoms: C_6  and  C_8
REMARK    7  A    between atoms: C_22  and  C_23
REMARK    8  A    between atoms: C_23  and  N_24
REMARK    9  A    between atoms: N_24  and  CA_25
REMARK   10  A    between atoms: CA_25  and  C_26
REMARK   11  A    between atoms: CA_25  and  C_28
REMARK   12  A    between atoms: C_26  and  O_27
REMARK                            x       y       z     vdW  Elec       q    Type
REMARK                         _______ _______ _______ _____ _____    ______ ____
ROOT
ATOM      1  C   UNL     1      45.141   6.330  11.941  0.00  0.00    +0.000 C 
ENDROOT
BRANCH   1   2
ATOM      2  C   UNL     1      46.347   7.259  11.940  0.00  0.00    +0.000 A 
ATOM      3  C   UNL     1      46.165   8.635  12.187  0.00  0.00    +0.000 A 
ATOM      4  C   UNL     1      47.255   9.514  12.194  0.00  0.00    +0.000 A 
ATOM      5  C   UNL     1      48.548   9.034  11.952  0.00  0.00    +0.000 A 
ATOM      6  C   UNL     1      48.726   7.667  11.705  0.00  0.00    +0.000 A 
ATOM      7  C   UNL     1      47.639   6.796  11.686  0.00  0.00    +0.000 A 
BRANCH   5   8
ATOM      8  C   UNL     1      49.742   9.956  11.900  0.00  0.00    +0.000 C 
BRANCH   8   9
ATOM      9  N   UNL     1      50.737   9.515  10.935  0.00  0.00    +0.000 NA
ATOM     10  H   UNL     1      51.072  10.300  10.378  0.00  0.00    +0.000 HD
BRANCH   9  11
ATOM     11  CA  UNL     1      51.865   8.750  11.514  0.00  0.00    +0.000 C 
BRANCH  11  12
ATOM     12  C   UNL     1      53.125   9.044  10.630  0.00  0.00    +0.000 C 
ATOM     13  C   UNL     1      52.862   8.782   9.131  0.00  0.00    +0.000 C 
ATOM     14  C   UNL     1      52.731   7.288   8.839  0.00  0.00    +0.000 C 
ATOM     15  N   UNL     1      53.957   6.573   9.201  0.00  0.00    +0.000 NA
ATOM     16  C   UNL     1      54.303   6.766  10.611  0.00  0.00    +0.000 C 
ATOM     17  C   UNL     1      54.382   8.239  11.018  0.00  0.00    +0.000 C 
ATOM     18  H   UNL     1      54.718   6.925   8.620  0.00  0.00    +0.000 HD
ENDBRANCH  11  12
BRANCH  11  19
ATOM     19  C   UNL     1      52.098   9.049  13.020  0.00  0.00    +0.000 C 
BRANCH  19  20
ATOM     20  O   UNL     1      51.892   7.900  13.833  0.00  0.00    +0.000 OA
ATOM     21  H   UNL     1      51.544   7.200  13.255  0.00  0.00    +0.000 HD
ENDBRANCH  19  20
ENDBRANCH  11  19
ENDBRANCH   9  11
ENDBRANCH   8   9
ENDBRANCH   5   8
ENDBRANCH   1   2
BRANCH   1  22
ATOM     22  N   UNL     1      45.411   5.203  11.056  0.00  0.00    +0.000 N 
ATOM     23  C   UNL     1      44.401   4.571  10.379  0.00  0.00    +0.000 C 
ATOM     24  O   UNL     1      43.235   4.952  10.448  0.00  0.00    +0.000 OA
ATOM     25  H   UNL     1      46.332   4.778  11.102  0.00  0.00    +0.000 HD
BRANCH  23  26
ATOM     26  C   UNL     1      44.774   3.438   9.527  0.00  0.00    +0.000 A 
ATOM     27  C   UNL     1      44.182   2.201   9.743  0.00  0.00    +0.000 A 
ATOM     28  S   UNL     1      44.756   0.978   8.704  0.00  0.00    +0.000 S 
ATOM     29  C   UNL     1      45.857   2.046   7.970  0.00  0.00    +0.000 A 
ATOM     30  N   UNL     1      46.741   1.605   7.037  0.00  0.00    +0.000 NA
ATOM     31  C   UNL     1      47.561   2.501   6.584  0.00  0.00    +0.000 A 
ATOM     32  N   UNL     1      48.517   2.157   5.685  0.00  0.00    +0.000 N 
ATOM     33  N   UNL     1      47.522   3.815   6.968  0.00  0.00    +0.000 N 
ATOM     34  C   UNL     1      46.633   4.317   7.889  0.00  0.00    +0.000 A 
ATOM     35  O   UNL     1      46.599   5.512   8.168  0.00  0.00    +0.000 OA
ATOM     36  C   UNL     1      45.740   3.333   8.460  0.00  0.00    +0.000 A 
ATOM     37  H   UNL     1      48.371   1.233   5.287  0.00  0.00    +0.000 HD
ATOM     38  H   UNL     1      48.823   2.844   5.012  0.00  0.00    +0.000 HD
ATOM     39  H   UNL     1      48.188   4.471   6.589  0.00  0.00    +0.000 HD
ENDBRANCH  23  26
ENDBRANCH   1  22
BRANCH   1  40
ATOM     40  C   UNL     1      44.715   5.845  13.352  0.00  0.00    +0.000 C 
BRANCH  40  42
ATOM     41  C   UNL     1      46.451   4.599  14.362  0.00  0.00    +0.000 C 
ATOM     42  O   UNL     1      45.246   4.542  13.613  0.00  0.00    +0.000 OA
ENDBRANCH  40  42
ENDBRANCH   1  40
TORSDOF 11
ENDMDL
MODEL 7
REMARK VINA RESULT:    -6.561      5.509      7.755
REMARK INTER + INTRA:         -11.281
REMARK INTER:                  -9.305
REMARK INTRA:                  -1.976
REMARK UNBOUND:                -0.693
REMARK  Name = 
REMARK  12 active torsions:
REMARK  status: ('A' for Active; 'I' for Inactive)
REMARK    1  A    between atoms: C_1  and  O_2
REMARK    2  A    between atoms: O_2  and  C_3
REMARK    3  A    between atoms: C_3  and  C_4
REMARK    4  A    between atoms: C_4  and  N_5
REMARK    5  A    between atoms: C_4  and  C_19
REMARK    6  A    between atoms: C_6  and  C_8
REMARK    7  A    between atoms: C_22  and  C_23
REMARK    8  A    between atoms: C_23  and  N_24
REMARK    9  A    between atoms: N_24  and  CA_25
REMARK   10  A    between atoms: CA_25  and  C_26
REMARK   11  A    between atoms: CA_25  and  C_28
REMARK   12  A    between atoms: C_26  and  O_27
REMARK                            x       y       z     vdW  Elec       q    Type
REMARK                         _______ _______ _______ _____ _____    ______ ____
ROOT
ATOM      1  C   UNL     1      45.002   5.901  12.215  0.00  0.00    +0.000 C 
ENDROOT
BRANCH   1   2
ATOM      2  C   UNL     1      46.050   7.002  12.128  0.00  0.00    +0.000 A 
ATOM      3  C   UNL     1      47.359   6.685  11.713  0.00  0.00    +0.000 A 
ATOM      4  C   UNL     1      48.344   7.677  11.623  0.00  0.00    +0.000 A 
ATOM      5  C   UNL     1      48.038   9.004  11.948  0.00  0.00    +0.000 A 
ATOM      6  C   UNL     1      46.737   9.316  12.362  0.00  0.00    +0.000 A 
ATOM      7  C   UNL     1      45.762   8.327  12.464  0.00  0.00    +0.000 A 
BRANCH   5   8
ATOM      8  C   UNL     1      49.083  10.092  11.913  0.00  0.00    +0.000 C 
BRANCH   8   9
ATOM      9  N   UNL     1      49.396  10.600  13.240  0.00  0.00    +0.000 NA
ATOM     10  H   UNL     1      48.564  10.609  13.828  0.00  0.00    +0.000 HD
BRANCH   9  11
ATOM     11  CA  UNL     1      50.521   9.915  13.917  0.00  0.00    +0.000 C 
BRANCH  11  12
ATOM     12  C   UNL     1      49.901   8.833  14.865  0.00  0.00    +0.000 C 
ATOM     13  C   UNL     1      48.624   9.340  15.574  0.00  0.00    +0.000 C 
ATOM     14  C   UNL     1      48.951  10.396  16.628  0.00  0.00    +0.000 C 
ATOM     15  N   UNL     1      49.839   9.853  17.658  0.00  0.00    +0.000 NA
ATOM     16  C   UNL     1      51.083   9.334  17.086  0.00  0.00    +0.000 C 
ATOM     17  C   UNL     1      50.855   8.320  15.963  0.00  0.00    +0.000 C 
ATOM     18  H   UNL     1      49.351   9.095  18.136  0.00  0.00    +0.000 HD
ENDBRANCH  11  12
BRANCH  11  19
ATOM     19  C   UNL     1      51.563   9.328  12.928  0.00  0.00    +0.000 C 
BRANCH  19  20
ATOM     20  O   UNL     1      51.553   7.905  12.917  0.00  0.00    +0.000 OA
ATOM     21  H   UNL     1      50.787   7.622  13.444  0.00  0.00    +0.000 HD
ENDBRANCH  19  20
ENDBRANCH  11  19
ENDBRANCH   9  11
ENDBRANCH   8   9
ENDBRANCH   5   8
ENDBRANCH   1   2
BRANCH   1  22
ATOM     22  N   UNL     1      45.320   4.867  11.236  0.00  0.00    +0.000 N 
ATOM     23  C   UNL     1      44.337   4.245  10.512  0.00  0.00    +0.000 C 
ATOM     24  O   UNL     1      43.154   4.560  10.618  0.00  0.00    +0.000 OA
ATOM     25  H   UNL     1      46.262   4.487  11.242  0.00  0.00    +0.000 HD
BRANCH  23  26
ATOM     26  C   UNL     1      44.758   3.208   9.565  0.00  0.00    +0.000 A 
ATOM     27  C   UNL     1      44.247   1.924   9.691  0.00  0.00    +0.000 A 
ATOM     28  S   UNL     1      44.870   0.826   8.547  0.00  0.00    +0.000 S 
ATOM     29  C   UNL     1      45.888   2.015   7.883  0.00  0.00    +0.000 A 
ATOM     30  N   UNL     1      46.776   1.704   6.901  0.00  0.00    +0.000 NA
ATOM     31  C   UNL     1      47.530   2.682   6.508  0.00  0.00    +0.000 A 
ATOM     32  N   UNL     1      48.485   2.470   5.568  0.00  0.00    +0.000 N 
ATOM     33  N   UNL     1      47.421   3.956   6.997  0.00  0.00    +0.000 N 
ATOM     34  C   UNL     1      46.524   4.328   7.971  0.00  0.00    +0.000 A 
ATOM     35  O   UNL     1      46.425   5.493   8.346  0.00  0.00    +0.000 OA
ATOM     36  C   UNL     1      45.705   3.248   8.477  0.00  0.00    +0.000 A 
ATOM     37  H   UNL     1      48.386   1.573   5.100  0.00  0.00    +0.000 HD
ATOM     38  H   UNL     1      48.734   3.225   4.947  0.00  0.00    +0.000 HD
ATOM     39  H   UNL     1      48.038   4.681   6.661  0.00  0.00    +0.000 HD
ENDBRANCH  23  26
ENDBRANCH   1  22
BRANCH   1  40
ATOM     40  C   UNL     1      44.834   5.296  13.633  0.00  0.00    +0.000 C 
BRANCH  40  42
ATOM     41  C   UNL     1      46.811   4.510  14.663  0.00  0.00    +0.000 C 
ATOM     42  O   UNL     1      45.722   4.187  13.812  0.00  0.00    +0.000 OA
ENDBRANCH  40  42
ENDBRANCH   1  40
TORSDOF 11
ENDMDL
MODEL 8
REMARK VINA RESULT:    -6.475      1.820      2.733
REMARK INTER + INTRA:         -11.141
REMARK INTER:                  -9.962
REMARK INTRA:                  -1.179
REMARK UNBOUND:                -0.693
REMARK  Name = 
REMARK  12 active torsions:
REMARK  status: ('A' for Active; 'I' for Inactive)
REMARK    1  A    between atoms: C_1  and  O_2
REMARK    2  A    between atoms: O_2  and  C_3
REMARK    3  A    between atoms: C_3  and  C_4
REMARK    4  A    between atoms: C_4  and  N_5
REMARK    5  A    between atoms: C_4  and  C_19
REMARK    6  A    between atoms: C_6  and  C_8
REMARK    7  A    between atoms: C_22  and  C_23
REMARK    8  A    between atoms: C_23  and  N_24
REMARK    9  A    between atoms: N_24  and  CA_25
REMARK   10  A    between atoms: CA_25  and  C_26
REMARK   11  A    between atoms: CA_25  and  C_28
REMARK   12  A    between atoms: C_26  and  O_27
REMARK                            x       y       z     vdW  Elec       q    Type
REMARK                         _______ _______ _______ _____ _____    ______ ____
ROOT
ATOM      1  C   UNL     1      48.950   7.813  15.609  0.00  0.00    +0.000 C 
ENDROOT
BRANCH   1   2
ATOM      2  C   UNL     1      49.545   6.584  16.282  0.00  0.00    +0.000 A 
ATOM      3  C   UNL     1      50.939   6.503  16.473  0.00  0.00    +0.000 A 
ATOM      4  C   UNL     1      51.516   5.386  17.090  0.00  0.00    +0.000 A 
ATOM      5  C   UNL     1      50.710   4.327  17.525  0.00  0.00    +0.000 A 
ATOM      6  C   UNL     1      49.325   4.409  17.332  0.00  0.00    +0.000 A 
ATOM      7  C   UNL     1      48.754   5.515  16.707  0.00  0.00    +0.000 A 
BRANCH   5   8
ATOM      8  C   UNL     1      51.297   3.084  18.147  0.00  0.00    +0.000 C 
BRANCH   8   9
ATOM      9  N   UNL     1      52.714   2.936  17.852  0.00  0.00    +0.000 NA
ATOM     10  H   UNL     1      53.081   3.778  17.413  0.00  0.00    +0.000 HD
BRANCH   9  11
ATOM     11  CA  UNL     1      53.547   2.529  19.007  0.00  0.00    +0.000 C 
BRANCH  11  12
ATOM     12  C   UNL     1      54.961   2.152  18.446  0.00  0.00    +0.000 C 
ATOM     13  C   UNL     1      54.880   1.496  17.049  0.00  0.00    +0.000 C 
ATOM     14  C   UNL     1      54.290   0.089  17.125  0.00  0.00    +0.000 C 
ATOM     15  N   UNL     1      55.110  -0.780  17.971  0.00  0.00    +0.000 NA
ATOM     16  C   UNL     1      55.258  -0.241  19.324  0.00  0.00    +0.000 C 
ATOM     17  C   UNL     1      55.774   1.200  19.347  0.00  0.00    +0.000 C 
ATOM     18  H   UNL     1      56.032  -0.866  17.544  0.00  0.00    +0.000 HD
ENDBRANCH  11  12
BRANCH  11  19
ATOM     19  C   UNL     1      53.606   3.602  20.127  0.00  0.00    +0.000 C 
BRANCH  19  20
ATOM     20  O   UNL     1      54.338   4.755  19.730  0.00  0.00    +0.000 OA
ATOM     21  H   UNL     1      55.266   4.483  19.630  0.00  0.00    +0.000 HD
ENDBRANCH  19  20
ENDBRANCH  11  19
ENDBRANCH   9  11
ENDBRANCH   8   9
ENDBRANCH   5   8
ENDBRANCH   1   2
BRANCH   1  22
ATOM     22  N   UNL     1      47.813   7.402  14.792  0.00  0.00    +0.000 N 
ATOM     23  C   UNL     1      47.991   6.860  13.546  0.00  0.00    +0.000 C 
ATOM     24  O   UNL     1      49.109   6.652  13.081  0.00  0.00    +0.000 OA
ATOM     25  H   UNL     1      46.889   7.701  15.086  0.00  0.00    +0.000 HD
BRANCH  23  26
ATOM     26  C   UNL     1      46.785   6.494  12.797  0.00  0.00    +0.000 A 
ATOM     27  C   UNL     1      46.056   7.485  12.154  0.00  0.00    +0.000 A 
ATOM     28  S   UNL     1      44.658   6.906  11.371  0.00  0.00    +0.000 S 
ATOM     29  C   UNL     1      44.947   5.321  11.915  0.00  0.00    +0.000 A 
ATOM     30  N   UNL     1      44.055   4.325  11.666  0.00  0.00    +0.000 NA
ATOM     31  C   UNL     1      44.361   3.171  12.171  0.00  0.00    +0.000 A 
ATOM     32  N   UNL     1      43.517   2.119  12.026  0.00  0.00    +0.000 N 
ATOM     33  N   UNL     1      45.519   2.939  12.863  0.00  0.00    +0.000 N 
ATOM     34  C   UNL     1      46.464   3.905  13.120  0.00  0.00    +0.000 A 
ATOM     35  O   UNL     1      47.513   3.642  13.702  0.00  0.00    +0.000 OA
ATOM     36  C   UNL     1      46.129   5.221  12.623  0.00  0.00    +0.000 A 
ATOM     37  H   UNL     1      42.786   2.291  11.341  0.00  0.00    +0.000 HD
ATOM     38  H   UNL     1      43.902   1.188  11.981  0.00  0.00    +0.000 HD
ATOM     39  H   UNL     1      45.707   2.022  13.241  0.00  0.00    +0.000 HD
ENDBRANCH  23  26
ENDBRANCH   1  22
BRANCH   1  40
ATOM     40  C   UNL     1      48.551   8.944  16.593  0.00  0.00    +0.000 C 
BRANCH  40  42
ATOM     41  C   UNL     1      47.522   8.649  18.700  0.00  0.00    +0.000 C 
ATOM     42  O   UNL     1      48.717   8.509  17.947  0.00  0.00    +0.000 OA
ENDBRANCH  40  42
ENDBRANCH   1  40
TORSDOF 11
ENDMDL
MODEL 9
REMARK VINA RESULT:    -6.326      3.776      9.772
REMARK INTER + INTRA:         -10.902
REMARK INTER:                  -9.693
REMARK INTRA:                  -1.210
REMARK UNBOUND:                -0.693
REMARK  Name = 
REMARK  12 active torsions:
REMARK  status: ('A' for Active; 'I' for Inactive)
REMARK    1  A    between atoms: C_1  and  O_2
REMARK    2  A    between atoms: O_2  and  C_3
REMARK    3  A    between atoms: C_3  and  C_4
REMARK    4  A    between atoms: C_4  and  N_5
REMARK    5  A    between atoms: C_4  and  C_19
REMARK    6  A    between atoms: C_6  and  C_8
REMARK    7  A    between atoms: C_22  and  C_23
REMARK    8  A    between atoms: C_23  and  N_24
REMARK    9  A    between atoms: N_24  and  CA_25
REMARK   10  A    between atoms: CA_25  and  C_26
REMARK   11  A    between atoms: CA_25  and  C_28
REMARK   12  A    between atoms: C_26  and  O_27
REMARK                            x       y       z     vdW  Elec       q    Type
REMARK                         _______ _______ _______ _____ _____    ______ ____
ROOT
ATOM      1  C   UNL     1      50.812   8.880  12.458  0.00  0.00    +0.000 C 
ENDROOT
BRANCH   1   2
ATOM      2  C   UNL     1      49.326   8.560  12.375  0.00  0.00    +0.000 A 
ATOM      3  C   UNL     1      48.423   9.558  11.955  0.00  0.00    +0.000 A 
ATOM      4  C   UNL     1      47.050   9.293  11.868  0.00  0.00    +0.000 A 
ATOM      5  C   UNL     1      46.555   8.027  12.202  0.00  0.00    +0.000 A 
ATOM      6  C   UNL     1      47.454   7.038  12.621  0.00  0.00    +0.000 A 
ATOM      7  C   UNL     1      48.817   7.306  12.719  0.00  0.00    +0.000 A 
BRANCH   5   8
ATOM      8  C   UNL     1      45.078   7.717  12.171  0.00  0.00    +0.000 C 
BRANCH   8   9
ATOM      9  N   UNL     1      44.665   7.124  10.909  0.00  0.00    +0.000 NA
ATOM     10  H   UNL     1      44.994   7.682  10.123  0.00  0.00    +0.000 HD
BRANCH   9  11
ATOM     11  CA  UNL     1      45.034   5.699  10.743  0.00  0.00    +0.000 C 
BRANCH  11  12
ATOM     12  C   UNL     1      43.700   4.881  10.677  0.00  0.00    +0.000 C 
ATOM     13  C   UNL     1      42.695   5.312  11.768  0.00  0.00    +0.000 C 
ATOM     14  C   UNL     1      43.154   4.872  13.157  0.00  0.00    +0.000 C 
ATOM     15  N   UNL     1      43.284   3.416  13.231  0.00  0.00    +0.000 NA
ATOM     16  C   UNL     1      44.214   2.901  12.225  0.00  0.00    +0.000 C 
ATOM     17  C   UNL     1      43.878   3.354  10.802  0.00  0.00    +0.000 C 
ATOM     18  H   UNL     1      42.364   3.003  13.077  0.00  0.00    +0.000 HD
ENDBRANCH  11  12
BRANCH  11  19
ATOM     19  C   UNL     1      45.963   5.445   9.525  0.00  0.00    +0.000 C 
BRANCH  19  20
ATOM     20  O   UNL     1      45.244   4.977   8.390  0.00  0.00    +0.000 OA
ATOM     21  H   UNL     1      44.912   4.090   8.609  0.00  0.00    +0.000 HD
ENDBRANCH  19  20
ENDBRANCH  11  19
ENDBRANCH   9  11
ENDBRANCH   8   9
ENDBRANCH   5   8
ENDBRANCH   1   2
BRANCH   1  22
ATOM     22  N   UNL     1      51.434   7.991  13.433  0.00  0.00    +0.000 N 
ATOM     23  C   UNL     1      52.337   8.460  14.351  0.00  0.00    +0.000 C 
ATOM     24  O   UNL     1      52.627   9.651  14.426  0.00  0.00    +0.000 OA
ATOM     25  H   UNL     1      51.329   6.990  13.292  0.00  0.00    +0.000 HD
BRANCH  23  26
ATOM     26  C   UNL     1      52.919   7.484  15.276  0.00  0.00    +0.000 A 
ATOM     27  C   UNL     1      54.297   7.326  15.322  0.00  0.00    +0.000 A 
ATOM     28  S   UNL     1      54.812   6.121  16.411  0.00  0.00    +0.000 S 
ATOM     29  C   UNL     1      53.207   5.728  16.814  0.00  0.00    +0.000 A 
ATOM     30  N   UNL     1      52.932   4.690  17.649  0.00  0.00    +0.000 NA
ATOM     31  C   UNL     1      51.672   4.457  17.844  0.00  0.00    +0.000 A 
ATOM     32  N   UNL     1      51.285   3.414  18.620  0.00  0.00    +0.000 N 
ATOM     33  N   UNL     1      50.675   5.222  17.301  0.00  0.00    +0.000 N 
ATOM     34  C   UNL     1      50.901   6.296  16.472  0.00  0.00    +0.000 A 
ATOM     35  O   UNL     1      49.979   6.987  16.045  0.00  0.00    +0.000 OA
ATOM     36  C   UNL     1      52.295   6.550  16.183  0.00  0.00    +0.000 A 
ATOM     37  H   UNL     1      52.051   3.014  19.155  0.00  0.00    +0.000 HD
ATOM     38  H   UNL     1      50.423   3.486  19.140  0.00  0.00    +0.000 HD
ATOM     39  H   UNL     1      49.709   4.994  17.479  0.00  0.00    +0.000 HD
ENDBRANCH  23  26
ENDBRANCH   1  22
BRANCH   1  40
ATOM     40  C   UNL     1      51.550   8.821  11.095  0.00  0.00    +0.000 C 
BRANCH  40  42
ATOM     41  C   UNL     1      52.899   7.424   9.747  0.00  0.00    +0.000 C 
ATOM     42  O   UNL     1      51.951   7.478  10.802  0.00  0.00    +0.000 OA
ENDBRANCH  40  42
ENDBRANCH   1  40
TORSDOF 11
ENDMDL
