MODEL 1
REMARK VINA RESULT:    -8.253      0.000      0.000
REMARK INTER + INTRA:         -11.311
REMARK INTER:                 -10.666
REMARK INTRA:                  -0.645
REMARK UNBOUND:                -0.645
REMARK  Name = 
REMARK  5 active torsions:
REMARK  status: ('A' for Active; 'I' for Inactive)
REMARK    1  A    between atoms: C_2  and  C_4
REMARK    2  A    between atoms: C_7  and  C_8
REMARK    3  A    between atoms: C_8  and  O_9
REMARK    4  A    between atoms: O_9  and  C_10
REMARK    5  A    between atoms: C_14  and  C_15
REMARK                            x       y       z     vdW  Elec       q    Type
REMARK                         _______ _______ _______ _____ _____    ______ ____
ROOT
ATOM      1  O   UNL     1      44.482   5.823  10.843  0.00  0.00    +0.000 OA
ENDROOT
BRANCH   1   2
ATOM      2  C   UNL     1      45.397   5.532  11.813  0.00  0.00    +0.000 A 
ATOM      3  C   UNL     1      45.294   4.528  12.764  0.00  0.00    +0.000 A 
ATOM      4  C   UNL     1      46.335   4.383  13.663  0.00  0.00    +0.000 A 
ATOM      5  N   UNL     1      47.438   5.163  13.674  0.00  0.00    +0.000 NA
ATOM      6  C   UNL     1      47.522   6.159  12.758  0.00  0.00    +0.000 A 
ATOM      7  C   UNL     1      46.522   6.355  11.810  0.00  0.00    +0.000 A 
BRANCH   6   8
ATOM      8  C   UNL     1      48.720   7.000  12.841  0.00  0.00    +0.000 A 
ATOM      9  C   UNL     1      49.269   7.635  11.738  0.00  0.00    +0.000 A 
ATOM     10  N   UNL     1      50.370   8.423  11.770  0.00  0.00    +0.000 NA
ATOM     11  C   UNL     1      50.948   8.564  12.969  0.00  0.00    +0.000 A 
ATOM     12  N   UNL     1      50.531   8.004  14.112  0.00  0.00    +0.000 NA
ATOM     13  C   UNL     1      49.425   7.229  14.010  0.00  0.00    +0.000 A 
ENDBRANCH   6   8
ENDBRANCH   1   2
BRANCH   1  14
ATOM     14  C   UNL     1      43.790   4.723  10.247  0.00  0.00    +0.000 C 
BRANCH  14  18
ATOM     15  C   UNL     1      46.438   2.507   7.733  0.00  0.00    +0.000 A 
ATOM     16  C   UNL     1      45.680   1.813   8.675  0.00  0.00    +0.000 A 
ATOM     17  C   UNL     1      44.813   2.522   9.506  0.00  0.00    +0.000 A 
ATOM     18  C   UNL     1      44.735   3.911   9.386  0.00  0.00    +0.000 A 
ATOM     19  N   UNL     1      45.461   4.598   8.466  0.00  0.00    +0.000 NA
ATOM     20  C   UNL     1      46.305   3.886   7.675  0.00  0.00    +0.000 A 
BRANCH  15  22
ATOM     21  N   UNL     1      48.476   2.563   6.414  0.00  0.00    +0.000 N 
ATOM     22  C   UNL     1      47.385   1.842   6.817  0.00  0.00    +0.000 C 
ATOM     23  O   UNL     1      47.223   0.682   6.460  0.00  0.00    +0.000 OA
ATOM     24  H   UNL     1      49.168   2.060   5.871  0.00  0.00    +0.000 HD
ATOM     25  H   UNL     1      48.769   3.411   6.872  0.00  0.00    +0.000 HD
ENDBRANCH  15  22
ENDBRANCH  14  18
ENDBRANCH   1  14
TORSDOF 5
ENDMDL
MODEL 2
REMARK VINA RESULT:    -8.186      1.816      2.904
REMARK INTER + INTRA:         -11.225
REMARK INTER:                 -10.603
REMARK INTRA:                  -0.622
REMARK UNBOUND:                -0.645
REMARK  Name = 
REMARK  5 active torsions:
REMARK  status: ('A' for Active; 'I' for Inactive)
REMARK    1  A    between atoms: C_2  and  C_4
REMARK    2  A    between atoms: C_7  and  C_8
REMARK    3  A    between atoms: C_8  and  O_9
REMARK    4  A    between atoms: O_9  and  C_10
REMARK    5  A    between atoms: C_14  and  C_15
REMARK                            x       y       z     vdW  Elec       q    Type
REMARK                         _______ _______ _______ _____ _____    ______ ____
ROOT
ATOM      1  O   UNL     1      44.077   4.569  11.559  0.00  0.00    +0.000 OA
ENDROOT
BRANCH   1   2
ATOM      2  C   UNL     1      45.130   5.290  12.041  0.00  0.00    +0.000 A 
ATOM      3  C   UNL     1      45.632   6.469  11.508  0.00  0.00    +0.000 A 
ATOM      4  C   UNL     1      46.707   7.058  12.148  0.00  0.00    +0.000 A 
ATOM      5  N   UNL     1      47.300   6.552  13.251  0.00  0.00    +0.000 NA
ATOM      6  C   UNL     1      46.823   5.388  13.753  0.00  0.00    +0.000 A 
ATOM      7  C   UNL     1      45.732   4.744  13.174  0.00  0.00    +0.000 A 
BRANCH   6   8
ATOM      8  C   UNL     1      47.528   4.863  14.925  0.00  0.00    +0.000 A 
ATOM      9  C   UNL     1      48.319   5.655  15.743  0.00  0.00    +0.000 A 
ATOM     10  N   UNL     1      48.985   5.212  16.836  0.00  0.00    +0.000 NA
ATOM     11  C   UNL     1      48.854   3.908  17.108  0.00  0.00    +0.000 A 
ATOM     12  N   UNL     1      48.130   3.028  16.402  0.00  0.00    +0.000 NA
ATOM     13  C   UNL     1      47.490   3.536  15.322  0.00  0.00    +0.000 A 
ENDBRANCH   6   8
ENDBRANCH   1   2
BRANCH   1  14
ATOM     14  C   UNL     1      43.767   4.715  10.170  0.00  0.00    +0.000 C 
BRANCH  14  18
ATOM     15  C   UNL     1      46.431   2.461   7.708  0.00  0.00    +0.000 A 
ATOM     16  C   UNL     1      45.681   1.785   8.669  0.00  0.00    +0.000 A 
ATOM     17  C   UNL     1      44.809   2.506   9.483  0.00  0.00    +0.000 A 
ATOM     18  C   UNL     1      44.717   3.891   9.329  0.00  0.00    +0.000 A 
ATOM     19  N   UNL     1      45.436   4.561   8.390  0.00  0.00    +0.000 NA
ATOM     20  C   UNL     1      46.285   3.837   7.616  0.00  0.00    +0.000 A 
BRANCH  15  22
ATOM     21  N   UNL     1      48.495   2.483   6.430  0.00  0.00    +0.000 N 
ATOM     22  C   UNL     1      47.382   1.782   6.808  0.00  0.00    +0.000 C 
ATOM     23  O   UNL     1      47.205   0.627   6.442  0.00  0.00    +0.000 OA
ATOM     24  H   UNL     1      49.187   1.969   5.898  0.00  0.00    +0.000 HD
ATOM     25  H   UNL     1      48.795   3.324   6.897  0.00  0.00    +0.000 HD
ENDBRANCH  15  22
ENDBRANCH  14  18
ENDBRANCH   1  14
TORSDOF 5
ENDMDL
MODEL 3
REMARK VINA RESULT:    -7.917      2.329      2.903
REMARK INTER + INTRA:         -10.877
REMARK INTER:                 -10.225
REMARK INTRA:                  -0.652
REMARK UNBOUND:                -0.645
REMARK  Name = 
REMARK  5 active torsions:
REMARK  status: ('A' for Active; 'I' for Inactive)
REMARK    1  A    between atoms: C_2  and  C_4
REMARK    2  A    between atoms: C_7  and  C_8
REMARK    3  A    between atoms: C_8  and  O_9
REMARK    4  A    between atoms: O_9  and  C_10
REMARK    5  A    between atoms: C_14  and  C_15
REMARK                            x       y       z     vdW  Elec       q    Type
REMARK                         _______ _______ _______ _____ _____    ______ ____
ROOT
ATOM      1  O   UNL     1      44.285   3.771  11.894  0.00  0.00    +0.000 OA
ENDROOT
BRANCH   1   2
ATOM      2  C   UNL     1      45.180   4.652  12.427  0.00  0.00    +0.000 A 
ATOM      3  C   UNL     1      46.192   4.352  13.327  0.00  0.00    +0.000 A 
ATOM      4  C   UNL     1      47.007   5.387  13.748  0.00  0.00    +0.000 A 
ATOM      5  N   UNL     1      46.872   6.668  13.343  0.00  0.00    +0.000 NA
ATOM      6  C   UNL     1      45.867   6.961  12.483  0.00  0.00    +0.000 A 
ATOM      7  C   UNL     1      45.016   5.970  12.001  0.00  0.00    +0.000 A 
BRANCH   6   8
ATOM      8  C   UNL     1      45.741   8.372  12.107  0.00  0.00    +0.000 A 
ATOM      9  C   UNL     1      44.625   8.881  11.463  0.00  0.00    +0.000 A 
ATOM     10  N   UNL     1      44.466  10.177  11.102  0.00  0.00    +0.000 NA
ATOM     11  C   UNL     1      45.487  10.991  11.395  0.00  0.00    +0.000 A 
ATOM     12  N   UNL     1      46.625  10.634  12.006  0.00  0.00    +0.000 NA
ATOM     13  C   UNL     1      46.719   9.325  12.340  0.00  0.00    +0.000 A 
ENDBRANCH   6   8
ENDBRANCH   1   2
BRANCH   1  14
ATOM     14  C   UNL     1      43.785   4.060  10.585  0.00  0.00    +0.000 C 
BRANCH  14  18
ATOM     15  C   UNL     1      46.483   2.474   7.680  0.00  0.00    +0.000 A 
ATOM     16  C   UNL     1      46.256   3.849   7.696  0.00  0.00    +0.000 A 
ATOM     17  C   UNL     1      45.376   4.383   8.636  0.00  0.00    +0.000 A 
ATOM     18  C   UNL     1      44.730   3.527   9.530  0.00  0.00    +0.000 A 
ATOM     19  N   UNL     1      44.949   2.186   9.531  0.00  0.00    +0.000 NA
ATOM     20  C   UNL     1      45.804   1.689   8.601  0.00  0.00    +0.000 A 
BRANCH  15  22
ATOM     21  N   UNL     1      48.492   2.528   6.318  0.00  0.00    +0.000 N 
ATOM     22  C   UNL     1      47.392   1.820   6.719  0.00  0.00    +0.000 C 
ATOM     23  O   UNL     1      47.193   0.679   6.324  0.00  0.00    +0.000 OA
ATOM     24  H   UNL     1      49.159   2.029   5.741  0.00  0.00    +0.000 HD
ATOM     25  H   UNL     1      48.817   3.352   6.799  0.00  0.00    +0.000 HD
ENDBRANCH  15  22
ENDBRANCH  14  18
ENDBRANCH   1  14
TORSDOF 5
ENDMDL
MODEL 4
REMARK VINA RESULT:    -7.691      1.506      2.169
REMARK INTER + INTRA:         -10.584
REMARK INTER:                 -10.082
REMARK INTRA:                  -0.502
REMARK UNBOUND:                -0.645
REMARK  Name = 
REMARK  5 active torsions:
REMARK  status: ('A' for Active; 'I' for Inactive)
REMARK    1  A    between atoms: C_2  and  C_4
REMARK    2  A    between atoms: C_7  and  C_8
REMARK    3  A    between atoms: C_8  and  O_9
REMARK    4  A    between atoms: O_9  and  C_10
REMARK    5  A    between atoms: C_14  and  C_15
REMARK                            x       y       z     vdW  Elec       q    Type
REMARK                         _______ _______ _______ _____ _____    ______ ____
ROOT
ATOM      1  O   UNL     1      44.506   3.812  11.825  0.00  0.00    +0.000 OA
ENDROOT
BRANCH   1   2
ATOM      2  C   UNL     1      44.875   5.117  11.976  0.00  0.00    +0.000 A 
ATOM      3  C   UNL     1      44.169   6.226  11.535  0.00  0.00    +0.000 A 
ATOM      4  C   UNL     1      44.705   7.475  11.792  0.00  0.00    +0.000 A 
ATOM      5  N   UNL     1      45.876   7.677  12.436  0.00  0.00    +0.000 NA
ATOM      6  C   UNL     1      46.574   6.589  12.843  0.00  0.00    +0.000 A 
ATOM      7  C   UNL     1      46.089   5.300  12.636  0.00  0.00    +0.000 A 
BRANCH   6   8
ATOM      8  C   UNL     1      47.854   6.864  13.500  0.00  0.00    +0.000 A 
ATOM      9  C   UNL     1      48.215   6.294  14.711  0.00  0.00    +0.000 A 
ATOM     10  N   UNL     1      49.388   6.517  15.351  0.00  0.00    +0.000 NA
ATOM     11  C   UNL     1      50.228   7.365  14.744  0.00  0.00    +0.000 A 
ATOM     12  N   UNL     1      50.007   7.991  13.581  0.00  0.00    +0.000 NA
ATOM     13  C   UNL     1      48.816   7.724  12.994  0.00  0.00    +0.000 A 
ENDBRANCH   6   8
ENDBRANCH   1   2
BRANCH   1  14
ATOM     14  C   UNL     1      43.797   3.468  10.632  0.00  0.00    +0.000 C 
BRANCH  14  18
ATOM     15  C   UNL     1      46.575   2.685   7.484  0.00  0.00    +0.000 A 
ATOM     16  C   UNL     1      46.171   4.001   7.702  0.00  0.00    +0.000 A 
ATOM     17  C   UNL     1      45.262   4.274   8.723  0.00  0.00    +0.000 A 
ATOM     18  C   UNL     1      44.765   3.221   9.495  0.00  0.00    +0.000 A 
ATOM     19  N   UNL     1      45.158   1.936   9.299  0.00  0.00    +0.000 NA
ATOM     20  C   UNL     1      46.037   1.695   8.292  0.00  0.00    +0.000 A 
BRANCH  15  22
ATOM     21  N   UNL     1      47.434   2.965   5.230  0.00  0.00    +0.000 N 
ATOM     22  C   UNL     1      47.527   2.302   6.424  0.00  0.00    +0.000 C 
ATOM     23  O   UNL     1      48.389   1.453   6.614  0.00  0.00    +0.000 OA
ATOM     24  H   UNL     1      48.158   2.765   4.551  0.00  0.00    +0.000 HD
ATOM     25  H   UNL     1      46.916   3.822   5.121  0.00  0.00    +0.000 HD
ENDBRANCH  15  22
ENDBRANCH  14  18
ENDBRANCH   1  14
TORSDOF 5
ENDMDL
MODEL 5
REMARK VINA RESULT:    -7.333      3.692      8.167
REMARK INTER + INTRA:         -10.122
REMARK INTER:                  -9.697
REMARK INTRA:                  -0.424
REMARK UNBOUND:                -0.645
REMARK  Name = 
REMARK  5 active torsions:
REMARK  status: ('A' for Active; 'I' for Inactive)
REMARK    1  A    between atoms: C_2  and  C_4
REMARK    2  A    between atoms: C_7  and  C_8
REMARK    3  A    between atoms: C_8  and  O_9
REMARK    4  A    between atoms: O_9  and  C_10
REMARK    5  A    between atoms: C_14  and  C_15
REMARK                            x       y       z     vdW  Elec       q    Type
REMARK                         _______ _______ _______ _____ _____    ______ ____
ROOT
ATOM      1  O   UNL     1      45.340   4.399  14.176  0.00  0.00    +0.000 OA
ENDROOT
BRANCH   1   2
ATOM      2  C   UNL     1      44.601   4.483  13.031  0.00  0.00    +0.000 A 
ATOM      3  C   UNL     1      43.300   4.955  12.927  0.00  0.00    +0.000 A 
ATOM      4  C   UNL     1      42.720   4.969  11.671  0.00  0.00    +0.000 A 
ATOM      5  N   UNL     1      43.339   4.547  10.547  0.00  0.00    +0.000 NA
ATOM      6  C   UNL     1      44.601   4.065  10.659  0.00  0.00    +0.000 A 
ATOM      7  C   UNL     1      45.257   4.034  11.886  0.00  0.00    +0.000 A 
BRANCH   6   8
ATOM      8  C   UNL     1      45.210   3.583   9.416  0.00  0.00    +0.000 A 
ATOM      9  C   UNL     1      45.444   2.240   9.165  0.00  0.00    +0.000 A 
ATOM     10  N   UNL     1      46.000   1.752   8.031  0.00  0.00    +0.000 NA
ATOM     11  C   UNL     1      46.347   2.664   7.115  0.00  0.00    +0.000 A 
ATOM     12  N   UNL     1      46.187   3.989   7.228  0.00  0.00    +0.000 NA
ATOM     13  C   UNL     1      45.625   4.411   8.386  0.00  0.00    +0.000 A 
ENDBRANCH   6   8
ENDBRANCH   1   2
BRANCH   1  14
ATOM     14  C   UNL     1      46.748   4.624  14.061  0.00  0.00    +0.000 C 
BRANCH  14  18
ATOM     15  C   UNL     1      48.496   4.483  17.955  0.00  0.00    +0.000 A 
ATOM     16  C   UNL     1      48.739   5.600  17.157  0.00  0.00    +0.000 A 
ATOM     17  C   UNL     1      48.179   5.660  15.882  0.00  0.00    +0.000 A 
ATOM     18  C   UNL     1      47.399   4.595  15.427  0.00  0.00    +0.000 A 
ATOM     19  N   UNL     1      47.147   3.505  16.198  0.00  0.00    +0.000 NA
ATOM     20  C   UNL     1      47.711   3.465  17.432  0.00  0.00    +0.000 A 
BRANCH  15  22
ATOM     21  N   UNL     1      48.311   3.614  20.215  0.00  0.00    +0.000 N 
ATOM     22  C   UNL     1      49.052   4.329  19.313  0.00  0.00    +0.000 C 
ATOM     23  O   UNL     1      50.147   4.789  19.612  0.00  0.00    +0.000 OA
ATOM     24  H   UNL     1      48.752   3.430  21.108  0.00  0.00    +0.000 HD
ATOM     25  H   UNL     1      47.543   3.022  19.943  0.00  0.00    +0.000 HD
ENDBRANCH  15  22
ENDBRANCH  14  18
ENDBRANCH   1  14
TORSDOF 5
ENDMDL
MODEL 6
REMARK VINA RESULT:    -6.693      2.409      7.007
REMARK INTER + INTRA:          -9.295
REMARK INTER:                  -8.752
REMARK INTRA:                  -0.543
REMARK UNBOUND:                -0.645
REMARK  Name = 
REMARK  5 active torsions:
REMARK  status: ('A' for Active; 'I' for Inactive)
REMARK    1  A    between atoms: C_2  and  C_4
REMARK    2  A    between atoms: C_7  and  C_8
REMARK    3  A    between atoms: C_8  and  O_9
REMARK    4  A    between atoms: O_9  and  C_10
REMARK    5  A    between atoms: C_14  and  C_15
REMARK                            x       y       z     vdW  Elec       q    Type
REMARK                         _______ _______ _______ _____ _____    ______ ____
ROOT
ATOM      1  O   UNL     1      44.008   6.212  12.056  0.00  0.00    +0.000 OA
ENDROOT
BRANCH   1   2
ATOM      2  C   UNL     1      43.940   4.936  11.576  0.00  0.00    +0.000 A 
ATOM      3  C   UNL     1      43.208   3.891  12.122  0.00  0.00    +0.000 A 
ATOM      4  C   UNL     1      43.260   2.666  11.482  0.00  0.00    +0.000 A 
ATOM      5  N   UNL     1      43.984   2.425  10.368  0.00  0.00    +0.000 NA
ATOM      6  C   UNL     1      44.717   3.442   9.853  0.00  0.00    +0.000 A 
ATOM      7  C   UNL     1      44.701   4.709  10.431  0.00  0.00    +0.000 A 
BRANCH   6   8
ATOM      8  C   UNL     1      45.514   3.116   8.668  0.00  0.00    +0.000 A 
ATOM      9  C   UNL     1      45.841   4.053   7.700  0.00  0.00    +0.000 A 
ATOM     10  N   UNL     1      46.578   3.796   6.593  0.00  0.00    +0.000 NA
ATOM     11  C   UNL     1      46.993   2.530   6.453  0.00  0.00    +0.000 A 
ATOM     12  N   UNL     1      46.745   1.525   7.303  0.00  0.00    +0.000 NA
ATOM     13  C   UNL     1      46.004   1.850   8.389  0.00  0.00    +0.000 A 
ENDBRANCH   6   8
ENDBRANCH   1   2
BRANCH   1  14
ATOM     14  C   UNL     1      44.864   7.124  11.364  0.00  0.00    +0.000 C 
BRANCH  14  18
ATOM     15  C   UNL     1      48.399   7.928  13.622  0.00  0.00    +0.000 A 
ATOM     16  C   UNL     1      48.441   6.923  12.657  0.00  0.00    +0.000 A 
ATOM     17  C   UNL     1      47.295   6.646  11.913  0.00  0.00    +0.000 A 
ATOM     18  C   UNL     1      46.127   7.370  12.162  0.00  0.00    +0.000 A 
ATOM     19  N   UNL     1      46.076   8.358  13.093  0.00  0.00    +0.000 NA
ATOM     20  C   UNL     1      47.202   8.603  13.811  0.00  0.00    +0.000 A 
BRANCH  15  22
ATOM     21  N   UNL     1      50.689   7.526  14.321  0.00  0.00    +0.000 N 
ATOM     22  C   UNL     1      49.560   8.286  14.460  0.00  0.00    +0.000 C 
ATOM     23  O   UNL     1      49.529   9.245  15.220  0.00  0.00    +0.000 OA
ATOM     24  H   UNL     1      51.508   7.847  14.825  0.00  0.00    +0.000 HD
ATOM     25  H   UNL     1      50.835   6.900  13.545  0.00  0.00    +0.000 HD
ENDBRANCH  15  22
ENDBRANCH  14  18
ENDBRANCH   1  14
TORSDOF 5
ENDMDL
MODEL 7
REMARK VINA RESULT:    -6.599      4.609      6.023
REMARK INTER + INTRA:          -9.173
REMARK INTER:                  -8.743
REMARK INTRA:                  -0.430
REMARK UNBOUND:                -0.645
REMARK  Name = 
REMARK  5 active torsions:
REMARK  status: ('A' for Active; 'I' for Inactive)
REMARK    1  A    between atoms: C_2  and  C_4
REMARK    2  A    between atoms: C_7  and  C_8
REMARK    3  A    between atoms: C_8  and  O_9
REMARK    4  A    between atoms: O_9  and  C_10
REMARK    5  A    between atoms: C_14  and  C_15
REMARK                            x       y       z     vdW  Elec       q    Type
REMARK                         _______ _______ _______ _____ _____    ______ ____
ROOT
ATOM      1  O   UNL     1      46.857   4.065  15.597  0.00  0.00    +0.000 OA
ENDROOT
BRANCH   1   2
ATOM      2  C   UNL     1      47.606   4.136  16.735  0.00  0.00    +0.000 A 
ATOM      3  C   UNL     1      47.262   4.799  17.905  0.00  0.00    +0.000 A 
ATOM      4  C   UNL     1      48.155   4.750  18.959  0.00  0.00    +0.000 A 
ATOM      5  N   UNL     1      49.342   4.105  18.916  0.00  0.00    +0.000 NA
ATOM      6  C   UNL     1      49.684   3.480  17.763  0.00  0.00    +0.000 A 
ATOM      7  C   UNL     1      48.829   3.471  16.664  0.00  0.00    +0.000 A 
BRANCH   6   8
ATOM      8  C   UNL     1      50.998   2.831  17.757  0.00  0.00    +0.000 A 
ATOM      9  C   UNL     1      52.161   3.486  18.130  0.00  0.00    +0.000 A 
ATOM     10  N   UNL     1      53.394   2.924  18.142  0.00  0.00    +0.000 NA
ATOM     11  C   UNL     1      53.453   1.646  17.749  0.00  0.00    +0.000 A 
ATOM     12  N   UNL     1      52.414   0.896  17.357  0.00  0.00    +0.000 NA
ATOM     13  C   UNL     1      51.211   1.519  17.368  0.00  0.00    +0.000 A 
ENDBRANCH   6   8
ENDBRANCH   1   2
BRANCH   1  14
ATOM     14  C   UNL     1      47.116   5.040  14.583  0.00  0.00    +0.000 C 
BRANCH  14  18
ATOM     15  C   UNL     1      45.009   3.978  11.023  0.00  0.00    +0.000 A 
ATOM     16  C   UNL     1      45.478   5.284  11.153  0.00  0.00    +0.000 A 
ATOM     17  C   UNL     1      46.165   5.648  12.311  0.00  0.00    +0.000 A 
ATOM     18  C   UNL     1      46.354   4.701  13.319  0.00  0.00    +0.000 A 
ATOM     19  N   UNL     1      45.910   3.423  13.201  0.00  0.00    +0.000 NA
ATOM     20  C   UNL     1      45.236   3.095  12.069  0.00  0.00    +0.000 A 
BRANCH  15  22
ATOM     21  N   UNL     1      43.961   4.434   8.881  0.00  0.00    +0.000 N 
ATOM     22  C   UNL     1      44.267   3.505   9.838  0.00  0.00    +0.000 C 
ATOM     23  O   UNL     1      43.970   2.326   9.698  0.00  0.00    +0.000 OA
ATOM     24  H   UNL     1      43.545   4.076   8.029  0.00  0.00    +0.000 HD
ATOM     25  H   UNL     1      44.395   5.342   8.842  0.00  0.00    +0.000 HD
ENDBRANCH  15  22
ENDBRANCH  14  18
ENDBRANCH   1  14
TORSDOF 5
ENDMDL
MODEL 8
REMARK VINA RESULT:    -6.391      4.641      8.066
REMARK INTER + INTRA:          -8.904
REMARK INTER:                  -8.306
REMARK INTRA:                  -0.598
REMARK UNBOUND:                -0.645
REMARK  Name = 
REMARK  5 active torsions:
REMARK  status: ('A' for Active; 'I' for Inactive)
REMARK    1  A    between atoms: C_2  and  C_4
REMARK    2  A    between atoms: C_7  and  C_8
REMARK    3  A    between atoms: C_8  and  O_9
REMARK    4  A    between atoms: O_9  and  C_10
REMARK    5  A    between atoms: C_14  and  C_15
REMARK                            x       y       z     vdW  Elec       q    Type
REMARK                         _______ _______ _______ _____ _____    ______ ____
ROOT
ATOM      1  O   UNL     1      48.850   6.348  15.269  0.00  0.00    +0.000 OA
ENDROOT
BRANCH   1   2
ATOM      2  C   UNL     1      48.151   6.655  14.138  0.00  0.00    +0.000 A 
ATOM      3  C   UNL     1      48.314   7.787  13.353  0.00  0.00    +0.000 A 
ATOM      4  C   UNL     1      47.511   7.915  12.234  0.00  0.00    +0.000 A 
ATOM      5  N   UNL     1      46.576   7.012  11.866  0.00  0.00    +0.000 NA
ATOM      6  C   UNL     1      46.404   5.920  12.650  0.00  0.00    +0.000 A 
ATOM      7  C   UNL     1      47.186   5.713  13.783  0.00  0.00    +0.000 A 
BRANCH   6   8
ATOM      8  C   UNL     1      45.350   4.993  12.228  0.00  0.00    +0.000 A 
ATOM      9  C   UNL     1      45.049   3.831  12.921  0.00  0.00    +0.000 A 
ATOM     10  N   UNL     1      44.083   2.950  12.569  0.00  0.00    +0.000 NA
ATOM     11  C   UNL     1      43.399   3.252  11.459  0.00  0.00    +0.000 A 
ATOM     12  N   UNL     1      43.588   4.333  10.690  0.00  0.00    +0.000 NA
ATOM     13  C   UNL     1      44.569   5.172  11.098  0.00  0.00    +0.000 A 
ENDBRANCH   6   8
ENDBRANCH   1   2
BRANCH   1  14
ATOM     14  C   UNL     1      48.211   5.492  16.219  0.00  0.00    +0.000 C 
BRANCH  14  18
ATOM     15  C   UNL     1      50.966   2.457  17.420  0.00  0.00    +0.000 A 
ATOM     16  C   UNL     1      49.686   2.074  17.024  0.00  0.00    +0.000 A 
ATOM     17  C   UNL     1      48.773   3.052  16.632  0.00  0.00    +0.000 A 
ATOM     18  C   UNL     1      49.157   4.395  16.659  0.00  0.00    +0.000 A 
ATOM     19  N   UNL     1      50.404   4.781  17.034  0.00  0.00    +0.000 NA
ATOM     20  C   UNL     1      51.272   3.810  17.420  0.00  0.00    +0.000 A 
BRANCH  15  22
ATOM     21  N   UNL     1      51.578   0.222  18.144  0.00  0.00    +0.000 N 
ATOM     22  C   UNL     1      51.995   1.493  17.856  0.00  0.00    +0.000 C 
ATOM     23  O   UNL     1      53.177   1.805  17.922  0.00  0.00    +0.000 OA
ATOM     24  H   UNL     1      52.308  -0.453  18.341  0.00  0.00    +0.000 HD
ATOM     25  H   UNL     1      50.677  -0.133  17.868  0.00  0.00    +0.000 HD
ENDBRANCH  15  22
ENDBRANCH  14  18
ENDBRANCH   1  14
TORSDOF 5
ENDMDL
MODEL 9
REMARK VINA RESULT:    -6.301      3.121      5.267
REMARK INTER + INTRA:          -8.788
REMARK INTER:                  -8.344
REMARK INTRA:                  -0.445
REMARK UNBOUND:                -0.645
REMARK  Name = 
REMARK  5 active torsions:
REMARK  status: ('A' for Active; 'I' for Inactive)
REMARK    1  A    between atoms: C_2  and  C_4
REMARK    2  A    between atoms: C_7  and  C_8
REMARK    3  A    between atoms: C_8  and  O_9
REMARK    4  A    between atoms: O_9  and  C_10
REMARK    5  A    between atoms: C_14  and  C_15
REMARK                            x       y       z     vdW  Elec       q    Type
REMARK                         _______ _______ _______ _____ _____    ______ ____
ROOT
ATOM      1  O   UNL     1      47.642   7.876  12.580  0.00  0.00    +0.000 OA
ENDROOT
BRANCH   1   2
ATOM      2  C   UNL     1      48.454   7.582  13.636  0.00  0.00    +0.000 A 
ATOM      3  C   UNL     1      49.642   8.220  13.961  0.00  0.00    +0.000 A 
ATOM      4  C   UNL     1      50.324   7.780  15.082  0.00  0.00    +0.000 A 
ATOM      5  N   UNL     1      49.907   6.765  15.870  0.00  0.00    +0.000 NA
ATOM      6  C   UNL     1      48.758   6.129  15.534  0.00  0.00    +0.000 A 
ATOM      7  C   UNL     1      48.008   6.526  14.431  0.00  0.00    +0.000 A 
BRANCH   6   8
ATOM      8  C   UNL     1      48.373   5.011  16.400  0.00  0.00    +0.000 A 
ATOM      9  C   UNL     1      49.180   4.541  17.424  0.00  0.00    +0.000 A 
ATOM     10  N   UNL     1      48.862   3.515  18.249  0.00  0.00    +0.000 NA
ATOM     11  C   UNL     1      47.680   2.930  18.019  0.00  0.00    +0.000 A 
ATOM     12  N   UNL     1      46.806   3.275  17.063  0.00  0.00    +0.000 NA
ATOM     13  C   UNL     1      47.185   4.308  16.275  0.00  0.00    +0.000 A 
ENDBRANCH   6   8
ENDBRANCH   1   2
BRANCH   1  14
ATOM     14  C   UNL     1      46.231   7.859  12.817  0.00  0.00    +0.000 C 
BRANCH  14  18
ATOM     15  C   UNL     1      44.516   4.222  11.381  0.00  0.00    +0.000 A 
ATOM     16  C   UNL     1      45.288   4.984  10.505  0.00  0.00    +0.000 A 
ATOM     17  C   UNL     1      45.853   6.176  10.957  0.00  0.00    +0.000 A 
ATOM     18  C   UNL     1      45.620   6.587  12.271  0.00  0.00    +0.000 A 
ATOM     19  N   UNL     1      44.877   5.849  13.137  0.00  0.00    +0.000 NA
ATOM     20  C   UNL     1      44.330   4.697  12.671  0.00  0.00    +0.000 A 
BRANCH  15  22
ATOM     21  N   UNL     1      44.415   2.281   9.926  0.00  0.00    +0.000 N 
ATOM     22  C   UNL     1      43.875   2.952  10.989  0.00  0.00    +0.000 C 
ATOM     23  O   UNL     1      42.923   2.497  11.611  0.00  0.00    +0.000 OA
ATOM     24  H   UNL     1      44.030   1.363   9.735  0.00  0.00    +0.000 HD
ATOM     25  H   UNL     1      45.328   2.490   9.554  0.00  0.00    +0.000 HD
ENDBRANCH  15  22
ENDBRANCH  14  18
ENDBRANCH   1  14
TORSDOF 5
ENDMDL
