MODEL 1
REMARK VINA RESULT:    -7.458      0.000      0.000
REMARK INTER + INTRA:         -10.693
REMARK INTER:                 -10.074
REMARK INTRA:                  -0.619
REMARK UNBOUND:                -0.619
REMARK  Name = 
REMARK  6 active torsions:
REMARK  status: ('A' for Active; 'I' for Inactive)
REMARK    1  A    between atoms: C_4  and  O_5
REMARK    2  A    between atoms: O_5  and  C_6
REMARK    3  A    between atoms: C_6  and  C_7
REMARK    4  A    between atoms: C_7  and  C_8
REMARK    5  A    between atoms: C_12  and  N_13
REMARK    6  A    between atoms: N_13  and  C_14
REMARK                            x       y       z     vdW  Elec       q    Type
REMARK                         _______ _______ _______ _____ _____    ______ ____
ROOT
ATOM      1  C   UNL     1      45.444   4.587  12.241  0.00  0.00    +0.000 A 
ATOM      2  C   UNL     1      45.853   5.691  11.477  0.00  0.00    +0.000 A 
ATOM      3  C   UNL     1      46.787   6.602  11.966  0.00  0.00    +0.000 A 
ATOM      4  C   UNL     1      47.348   6.418  13.225  0.00  0.00    +0.000 A 
ATOM      5  C   UNL     1      46.970   5.331  14.014  0.00  0.00    +0.000 A 
ATOM      6  C   UNL     1      46.006   4.433  13.522  0.00  0.00    +0.000 A 
ENDROOT
BRANCH   5   7
ATOM      7  N   UNL     1      47.511   5.111  15.302  0.00  0.00    +0.000 N 
ATOM      8  H   UNL     1      48.522   5.226  15.271  0.00  0.00    +0.000 HD
BRANCH   7   9
ATOM      9  C   UNL     1      47.086   4.081  16.217  0.00  0.00    +0.000 C 
ATOM     10  C   UNL     1      47.128   4.539  17.690  0.00  0.00    +0.000 C 
ATOM     11  N   UNL     1      47.738   3.244  18.060  0.00  0.00    +0.000 NA
ATOM     12  C   UNL     1      48.153   3.056  16.651  0.00  0.00    +0.000 C 
ATOM     13  H   UNL     1      47.053   2.555  18.373  0.00  0.00    +0.000 HD
ENDBRANCH   7   9
ENDBRANCH   5   7
BRANCH   1  14
ATOM     14  C   UNL     1      44.443   3.560  11.727  0.00  0.00    +0.000 C 
BRANCH  14  15
ATOM     15  C   UNL     1      44.346   3.521  10.199  0.00  0.00    +0.000 C 
BRANCH  15  16
ATOM     16  O   UNL     1      44.495   2.207   9.643  0.00  0.00    +0.000 OA
BRANCH  16  20
ATOM     17  C   UNL     1      47.372   2.323   6.683  0.00  0.00    +0.000 A 
ATOM     18  C   UNL     1      46.671   3.480   7.013  0.00  0.00    +0.000 A 
ATOM     19  C   UNL     1      45.700   3.440   8.012  0.00  0.00    +0.000 A 
ATOM     20  C   UNL     1      45.466   2.232   8.645  0.00  0.00    +0.000 A 
ATOM     21  N   UNL     1      46.135   1.095   8.339  0.00  0.00    +0.000 NA
ATOM     22  C   UNL     1      47.071   1.162   7.372  0.00  0.00    +0.000 A 
ENDBRANCH  16  20
ENDBRANCH  15  16
ENDBRANCH  14  15
ENDBRANCH   1  14
TORSDOF 6
ENDMDL
MODEL 2
REMARK VINA RESULT:    -7.090      2.163      3.759
REMARK INTER + INTRA:         -10.195
REMARK INTER:                  -9.593
REMARK INTRA:                  -0.602
REMARK UNBOUND:                -0.619
REMARK  Name = 
REMARK  6 active torsions:
REMARK  status: ('A' for Active; 'I' for Inactive)
REMARK    1  A    between atoms: C_4  and  O_5
REMARK    2  A    between atoms: O_5  and  C_6
REMARK    3  A    between atoms: C_6  and  C_7
REMARK    4  A    between atoms: C_7  and  C_8
REMARK    5  A    between atoms: C_12  and  N_13
REMARK    6  A    between atoms: N_13  and  C_14
REMARK                            x       y       z     vdW  Elec       q    Type
REMARK                         _______ _______ _______ _____ _____    ______ ____
ROOT
ATOM      1  C   UNL     1      44.937   4.203  12.084  0.00  0.00    +0.000 A 
ATOM      2  C   UNL     1      45.759   3.278  12.746  0.00  0.00    +0.000 A 
ATOM      3  C   UNL     1      46.791   3.698  13.583  0.00  0.00    +0.000 A 
ATOM      4  C   UNL     1      47.012   5.056  13.790  0.00  0.00    +0.000 A 
ATOM      5  C   UNL     1      46.214   6.007  13.152  0.00  0.00    +0.000 A 
ATOM      6  C   UNL     1      45.193   5.571  12.288  0.00  0.00    +0.000 A 
ENDROOT
BRANCH   5   7
ATOM      7  N   UNL     1      46.409   7.396  13.330  0.00  0.00    +0.000 N 
ATOM      8  H   UNL     1      46.012   7.684  14.222  0.00  0.00    +0.000 HD
BRANCH   7   9
ATOM      9  C   UNL     1      46.270   8.394  12.299  0.00  0.00    +0.000 C 
ATOM     10  C   UNL     1      47.141   9.641  12.556  0.00  0.00    +0.000 C 
ATOM     11  N   UNL     1      46.000  10.499  12.171  0.00  0.00    +0.000 NA
ATOM     12  C   UNL     1      45.081   9.367  12.433  0.00  0.00    +0.000 C 
ATOM     13  H   UNL     1      46.025  10.778  11.189  0.00  0.00    +0.000 HD
ENDBRANCH   7   9
ENDBRANCH   5   7
BRANCH   1  14
ATOM     14  C   UNL     1      43.785   3.777  11.182  0.00  0.00    +0.000 C 
BRANCH  14  15
ATOM     15  C   UNL     1      44.210   3.531   9.731  0.00  0.00    +0.000 C 
BRANCH  15  16
ATOM     16  O   UNL     1      44.622   2.183   9.469  0.00  0.00    +0.000 OA
BRANCH  16  20
ATOM     17  C   UNL     1      47.464   2.207   6.474  0.00  0.00    +0.000 A 
ATOM     18  C   UNL     1      46.712   3.352   6.723  0.00  0.00    +0.000 A 
ATOM     19  C   UNL     1      45.752   3.343   7.735  0.00  0.00    +0.000 A 
ATOM     20  C   UNL     1      45.581   2.177   8.459  0.00  0.00    +0.000 A 
ATOM     21  N   UNL     1      46.301   1.052   8.232  0.00  0.00    +0.000 NA
ATOM     22  C   UNL     1      47.225   1.089   7.252  0.00  0.00    +0.000 A 
ENDBRANCH  16  20
ENDBRANCH  15  16
ENDBRANCH  14  15
ENDBRANCH   1  14
TORSDOF 6
ENDMDL
MODEL 3
REMARK VINA RESULT:    -6.982      2.044      7.747
REMARK INTER + INTRA:         -10.050
REMARK INTER:                  -9.477
REMARK INTRA:                  -0.573
REMARK UNBOUND:                -0.619
REMARK  Name = 
REMARK  6 active torsions:
REMARK  status: ('A' for Active; 'I' for Inactive)
REMARK    1  A    between atoms: C_4  and  O_5
REMARK    2  A    between atoms: O_5  and  C_6
REMARK    3  A    between atoms: C_6  and  C_7
REMARK    4  A    between atoms: C_7  and  C_8
REMARK    5  A    between atoms: C_12  and  N_13
REMARK    6  A    between atoms: N_13  and  C_14
REMARK                            x       y       z     vdW  Elec       q    Type
REMARK                         _______ _______ _______ _____ _____    ______ ____
ROOT
ATOM      1  C   UNL     1      45.029   4.976  10.439  0.00  0.00    +0.000 A 
ATOM      2  C   UNL     1      44.333   3.949  11.096  0.00  0.00    +0.000 A 
ATOM      3  C   UNL     1      44.097   2.724  10.474  0.00  0.00    +0.000 A 
ATOM      4  C   UNL     1      44.569   2.493   9.186  0.00  0.00    +0.000 A 
ATOM      5  C   UNL     1      45.269   3.488   8.502  0.00  0.00    +0.000 A 
ATOM      6  C   UNL     1      45.477   4.730   9.129  0.00  0.00    +0.000 A 
ENDROOT
BRANCH   5   7
ATOM      7  N   UNL     1      45.760   3.296   7.189  0.00  0.00    +0.000 N 
ATOM      8  H   UNL     1      45.126   2.687   6.675  0.00  0.00    +0.000 HD
BRANCH   7   9
ATOM      9  C   UNL     1      47.145   3.098   6.842  0.00  0.00    +0.000 C 
ATOM     10  C   UNL     1      47.346   2.819   5.337  0.00  0.00    +0.000 C 
ATOM     11  N   UNL     1      48.297   1.741   5.679  0.00  0.00    +0.000 NA
ATOM     12  C   UNL     1      47.712   1.677   7.038  0.00  0.00    +0.000 C 
ATOM     13  H   UNL     1      49.270   2.050   5.674  0.00  0.00    +0.000 HD
ENDBRANCH   7   9
ENDBRANCH   5   7
BRANCH   1  14
ATOM     14  C   UNL     1      45.325   6.316  11.099  0.00  0.00    +0.000 C 
BRANCH  14  15
ATOM     15  C   UNL     1      45.749   6.190  12.566  0.00  0.00    +0.000 C 
BRANCH  15  16
ATOM     16  O   UNL     1      47.165   6.300  12.771  0.00  0.00    +0.000 OA
BRANCH  16  20
ATOM     17  C   UNL     1      48.109   4.841  16.516  0.00  0.00    +0.000 A 
ATOM     18  C   UNL     1      47.151   4.192  15.742  0.00  0.00    +0.000 A 
ATOM     19  C   UNL     1      46.832   4.685  14.478  0.00  0.00    +0.000 A 
ATOM     20  C   UNL     1      47.490   5.820  14.037  0.00  0.00    +0.000 A 
ATOM     21  N   UNL     1      48.425   6.467  14.773  0.00  0.00    +0.000 NA
ATOM     22  C   UNL     1      48.717   5.967  15.990  0.00  0.00    +0.000 A 
ENDBRANCH  16  20
ENDBRANCH  15  16
ENDBRANCH  14  15
ENDBRANCH   1  14
TORSDOF 6
ENDMDL
MODEL 4
REMARK VINA RESULT:    -6.958      2.077      2.490
REMARK INTER + INTRA:         -10.018
REMARK INTER:                  -9.439
REMARK INTRA:                  -0.578
REMARK UNBOUND:                -0.619
REMARK  Name = 
REMARK  6 active torsions:
REMARK  status: ('A' for Active; 'I' for Inactive)
REMARK    1  A    between atoms: C_4  and  O_5
REMARK    2  A    between atoms: O_5  and  C_6
REMARK    3  A    between atoms: C_6  and  C_7
REMARK    4  A    between atoms: C_7  and  C_8
REMARK    5  A    between atoms: C_12  and  N_13
REMARK    6  A    between atoms: N_13  and  C_14
REMARK                            x       y       z     vdW  Elec       q    Type
REMARK                         _______ _______ _______ _____ _____    ______ ____
ROOT
ATOM      1  C   UNL     1      44.788   4.782  11.824  0.00  0.00    +0.000 A 
ATOM      2  C   UNL     1      44.290   5.974  11.275  0.00  0.00    +0.000 A 
ATOM      3  C   UNL     1      44.799   7.214  11.658  0.00  0.00    +0.000 A 
ATOM      4  C   UNL     1      45.833   7.287  12.587  0.00  0.00    +0.000 A 
ATOM      5  C   UNL     1      46.357   6.124  13.152  0.00  0.00    +0.000 A 
ATOM      6  C   UNL     1      45.816   4.880  12.779  0.00  0.00    +0.000 A 
ENDROOT
BRANCH   5   7
ATOM      7  N   UNL     1      47.402   6.155  14.104  0.00  0.00    +0.000 N 
ATOM      8  H   UNL     1      47.071   5.768  14.986  0.00  0.00    +0.000 HD
BRANCH   7   9
ATOM      9  C   UNL     1      48.338   7.238  14.276  0.00  0.00    +0.000 C 
ATOM     10  C   UNL     1      49.462   7.227  13.218  0.00  0.00    +0.000 C 
ATOM     11  N   UNL     1      50.446   7.512  14.283  0.00  0.00    +0.000 NA
ATOM     12  C   UNL     1      49.479   7.014  15.289  0.00  0.00    +0.000 C 
ATOM     13  H   UNL     1      50.652   8.507  14.381  0.00  0.00    +0.000 HD
ENDBRANCH   7   9
ENDBRANCH   5   7
BRANCH   1  14
ATOM     14  C   UNL     1      44.271   3.411  11.410  0.00  0.00    +0.000 C 
BRANCH  14  15
ATOM     15  C   UNL     1      44.168   3.235   9.891  0.00  0.00    +0.000 C 
BRANCH  15  16
ATOM     16  O   UNL     1      44.544   1.929   9.433  0.00  0.00    +0.000 OA
BRANCH  16  20
ATOM     17  C   UNL     1      47.549   2.305   6.628  0.00  0.00    +0.000 A 
ATOM     18  C   UNL     1      46.789   3.416   6.980  0.00  0.00    +0.000 A 
ATOM     19  C   UNL     1      45.773   3.289   7.927  0.00  0.00    +0.000 A 
ATOM     20  C   UNL     1      45.558   2.041   8.486  0.00  0.00    +0.000 A 
ATOM     21  N   UNL     1      46.286   0.947   8.158  0.00  0.00    +0.000 NA
ATOM     22  C   UNL     1      47.263   1.100   7.242  0.00  0.00    +0.000 A 
ENDBRANCH  16  20
ENDBRANCH  15  16
ENDBRANCH  14  15
ENDBRANCH   1  14
TORSDOF 6
ENDMDL
MODEL 5
REMARK VINA RESULT:    -6.728      2.709      7.428
REMARK INTER + INTRA:          -9.707
REMARK INTER:                  -9.123
REMARK INTRA:                  -0.584
REMARK UNBOUND:                -0.619
REMARK  Name = 
REMARK  6 active torsions:
REMARK  status: ('A' for Active; 'I' for Inactive)
REMARK    1  A    between atoms: C_4  and  O_5
REMARK    2  A    between atoms: O_5  and  C_6
REMARK    3  A    between atoms: C_6  and  C_7
REMARK    4  A    between atoms: C_7  and  C_8
REMARK    5  A    between atoms: C_12  and  N_13
REMARK    6  A    between atoms: N_13  and  C_14
REMARK                            x       y       z     vdW  Elec       q    Type
REMARK                         _______ _______ _______ _____ _____    ______ ____
ROOT
ATOM      1  C   UNL     1      44.738   5.001  10.527  0.00  0.00    +0.000 A 
ATOM      2  C   UNL     1      44.075   3.835  10.943  0.00  0.00    +0.000 A 
ATOM      3  C   UNL     1      44.131   2.665  10.188  0.00  0.00    +0.000 A 
ATOM      4  C   UNL     1      44.868   2.630   9.009  0.00  0.00    +0.000 A 
ATOM      5  C   UNL     1      45.543   3.767   8.564  0.00  0.00    +0.000 A 
ATOM      6  C   UNL     1      45.457   4.951   9.319  0.00  0.00    +0.000 A 
ENDROOT
BRANCH   5   7
ATOM      7  N   UNL     1      46.298   3.775   7.368  0.00  0.00    +0.000 N 
ATOM      8  H   UNL     1      46.026   4.576   6.800  0.00  0.00    +0.000 HD
BRANCH   7   9
ATOM      9  C   UNL     1      46.626   2.610   6.584  0.00  0.00    +0.000 C 
ATOM     10  C   UNL     1      47.945   1.946   7.031  0.00  0.00    +0.000 C 
ATOM     11  N   UNL     1      48.333   1.796   5.612  0.00  0.00    +0.000 NA
ATOM     12  C   UNL     1      47.362   2.856   5.252  0.00  0.00    +0.000 C 
ATOM     13  H   UNL     1      48.091   0.882   5.227  0.00  0.00    +0.000 HD
ENDBRANCH   7   9
ENDBRANCH   5   7
BRANCH   1  14
ATOM     14  C   UNL     1      44.717   6.289  11.340  0.00  0.00    +0.000 C 
BRANCH  14  15
ATOM     15  C   UNL     1      45.410   6.159  12.700  0.00  0.00    +0.000 C 
BRANCH  15  16
ATOM     16  O   UNL     1      46.652   5.442  12.651  0.00  0.00    +0.000 OA
BRANCH  16  20
ATOM     17  C   UNL     1      49.772   8.086  13.217  0.00  0.00    +0.000 A 
ATOM     18  C   UNL     1      49.086   8.075  12.005  0.00  0.00    +0.000 A 
ATOM     19  C   UNL     1      48.032   7.182  11.815  0.00  0.00    +0.000 A 
ATOM     20  C   UNL     1      47.708   6.326  12.853  0.00  0.00    +0.000 A 
ATOM     21  N   UNL     1      48.363   6.320  14.039  0.00  0.00    +0.000 NA
ATOM     22  C   UNL     1      49.375   7.196  14.198  0.00  0.00    +0.000 A 
ENDBRANCH  16  20
ENDBRANCH  15  16
ENDBRANCH  14  15
ENDBRANCH   1  14
TORSDOF 6
ENDMDL
MODEL 6
REMARK VINA RESULT:    -6.543      2.134      7.420
REMARK INTER + INTRA:          -9.457
REMARK INTER:                  -9.118
REMARK INTRA:                  -0.339
REMARK UNBOUND:                -0.619
REMARK  Name = 
REMARK  6 active torsions:
REMARK  status: ('A' for Active; 'I' for Inactive)
REMARK    1  A    between atoms: C_4  and  O_5
REMARK    2  A    between atoms: O_5  and  C_6
REMARK    3  A    between atoms: C_6  and  C_7
REMARK    4  A    between atoms: C_7  and  C_8
REMARK    5  A    between atoms: C_12  and  N_13
REMARK    6  A    between atoms: N_13  and  C_14
REMARK                            x       y       z     vdW  Elec       q    Type
REMARK                         _______ _______ _______ _____ _____    ______ ____
ROOT
ATOM      1  C   UNL     1      45.388   5.165  12.462  0.00  0.00    +0.000 A 
ATOM      2  C   UNL     1      44.130   5.186  13.086  0.00  0.00    +0.000 A 
ATOM      3  C   UNL     1      42.957   5.036  12.349  0.00  0.00    +0.000 A 
ATOM      4  C   UNL     1      43.016   4.843  10.973  0.00  0.00    +0.000 A 
ATOM      5  C   UNL     1      44.247   4.813  10.317  0.00  0.00    +0.000 A 
ATOM      6  C   UNL     1      45.424   4.993  11.066  0.00  0.00    +0.000 A 
ENDROOT
BRANCH   5   7
ATOM      7  N   UNL     1      44.351   4.626   8.919  0.00  0.00    +0.000 N 
ATOM      8  H   UNL     1      43.632   5.173   8.448  0.00  0.00    +0.000 HD
BRANCH   7   9
ATOM      9  C   UNL     1      44.626   3.370   8.267  0.00  0.00    +0.000 C 
ATOM     10  C   UNL     1      44.908   2.230   9.268  0.00  0.00    +0.000 C 
ATOM     11  N   UNL     1      46.040   1.791   8.425  0.00  0.00    +0.000 NA
ATOM     12  C   UNL     1      46.077   3.134   7.801  0.00  0.00    +0.000 C 
ATOM     13  H   UNL     1      45.786   1.050   7.769  0.00  0.00    +0.000 HD
ENDBRANCH   7   9
ENDBRANCH   5   7
BRANCH   1  14
ATOM     14  C   UNL     1      46.690   5.302  13.240  0.00  0.00    +0.000 C 
BRANCH  14  15
ATOM     15  C   UNL     1      47.122   4.005  13.932  0.00  0.00    +0.000 C 
BRANCH  15  16
ATOM     16  O   UNL     1      46.587   3.849  15.254  0.00  0.00    +0.000 OA
BRANCH  16  20
ATOM     17  C   UNL     1      49.597   2.806  17.881  0.00  0.00    +0.000 A 
ATOM     18  C   UNL     1      48.666   3.775  18.245  0.00  0.00    +0.000 A 
ATOM     19  C   UNL     1      47.650   4.127  17.358  0.00  0.00    +0.000 A 
ATOM     20  C   UNL     1      47.609   3.491  16.129  0.00  0.00    +0.000 A 
ATOM     21  N   UNL     1      48.506   2.547  15.755  0.00  0.00    +0.000 NA
ATOM     22  C   UNL     1      49.475   2.223  16.633  0.00  0.00    +0.000 A 
ENDBRANCH  16  20
ENDBRANCH  15  16
ENDBRANCH  14  15
ENDBRANCH   1  14
TORSDOF 6
ENDMDL
MODEL 7
REMARK VINA RESULT:    -6.172      2.507      7.512
REMARK INTER + INTRA:          -8.955
REMARK INTER:                  -8.543
REMARK INTRA:                  -0.413
REMARK UNBOUND:                -0.619
REMARK  Name = 
REMARK  6 active torsions:
REMARK  status: ('A' for Active; 'I' for Inactive)
REMARK    1  A    between atoms: C_4  and  O_5
REMARK    2  A    between atoms: O_5  and  C_6
REMARK    3  A    between atoms: C_6  and  C_7
REMARK    4  A    between atoms: C_7  and  C_8
REMARK    5  A    between atoms: C_12  and  N_13
REMARK    6  A    between atoms: N_13  and  C_14
REMARK                            x       y       z     vdW  Elec       q    Type
REMARK                         _______ _______ _______ _____ _____    ______ ____
ROOT
ATOM      1  C   UNL     1      46.158   4.707  13.092  0.00  0.00    +0.000 A 
ATOM      2  C   UNL     1      46.100   6.101  13.254  0.00  0.00    +0.000 A 
ATOM      3  C   UNL     1      45.296   6.890  12.432  0.00  0.00    +0.000 A 
ATOM      4  C   UNL     1      44.517   6.299  11.442  0.00  0.00    +0.000 A 
ATOM      5  C   UNL     1      44.545   4.917  11.253  0.00  0.00    +0.000 A 
ATOM      6  C   UNL     1      45.381   4.133  12.070  0.00  0.00    +0.000 A 
ENDROOT
BRANCH   5   7
ATOM      7  N   UNL     1      43.775   4.278  10.254  0.00  0.00    +0.000 N 
ATOM      8  H   UNL     1      43.242   3.516  10.671  0.00  0.00    +0.000 HD
BRANCH   7   9
ATOM      9  C   UNL     1      44.225   3.989   8.915  0.00  0.00    +0.000 C 
ATOM     10  C   UNL     1      44.750   2.546   8.762  0.00  0.00    +0.000 C 
ATOM     11  N   UNL     1      45.894   3.061   7.981  0.00  0.00    +0.000 NA
ATOM     12  C   UNL     1      45.669   4.404   8.566  0.00  0.00    +0.000 C 
ATOM     13  H   UNL     1      45.736   3.030   6.973  0.00  0.00    +0.000 HD
ENDBRANCH   7   9
ENDBRANCH   5   7
BRANCH   1  14
ATOM     14  C   UNL     1      47.006   3.814  13.988  0.00  0.00    +0.000 C 
BRANCH  14  15
ATOM     15  C   UNL     1      47.137   4.341  15.420  0.00  0.00    +0.000 C 
BRANCH  15  16
ATOM     16  O   UNL     1      47.174   3.308  16.415  0.00  0.00    +0.000 OA
BRANCH  16  20
ATOM     17  C   UNL     1      51.080   2.664  17.589  0.00  0.00    +0.000 A 
ATOM     18  C   UNL     1      50.393   3.781  18.056  0.00  0.00    +0.000 A 
ATOM     19  C   UNL     1      49.074   3.998  17.659  0.00  0.00    +0.000 A 
ATOM     20  C   UNL     1      48.493   3.081  16.801  0.00  0.00    +0.000 A 
ATOM     21  N   UNL     1      49.144   1.989  16.334  0.00  0.00    +0.000 NA
ATOM     22  C   UNL     1      50.416   1.801  16.736  0.00  0.00    +0.000 A 
ENDBRANCH  16  20
ENDBRANCH  15  16
ENDBRANCH  14  15
ENDBRANCH   1  14
TORSDOF 6
ENDMDL
MODEL 8
REMARK VINA RESULT:    -6.007      1.928      2.178
REMARK INTER + INTRA:          -8.733
REMARK INTER:                  -8.134
REMARK INTRA:                  -0.599
REMARK UNBOUND:                -0.619
REMARK  Name = 
REMARK  6 active torsions:
REMARK  status: ('A' for Active; 'I' for Inactive)
REMARK    1  A    between atoms: C_4  and  O_5
REMARK    2  A    between atoms: O_5  and  C_6
REMARK    3  A    between atoms: C_6  and  C_7
REMARK    4  A    between atoms: C_7  and  C_8
REMARK    5  A    between atoms: C_12  and  N_13
REMARK    6  A    between atoms: N_13  and  C_14
REMARK                            x       y       z     vdW  Elec       q    Type
REMARK                         _______ _______ _______ _____ _____    ______ ____
ROOT
ATOM      1  C   UNL     1      46.299   5.581  12.495  0.00  0.00    +0.000 A 
ATOM      2  C   UNL     1      46.954   6.542  11.707  0.00  0.00    +0.000 A 
ATOM      3  C   UNL     1      48.016   7.288  12.214  0.00  0.00    +0.000 A 
ATOM      4  C   UNL     1      48.459   7.078  13.515  0.00  0.00    +0.000 A 
ATOM      5  C   UNL     1      47.836   6.130  14.328  0.00  0.00    +0.000 A 
ATOM      6  C   UNL     1      46.747   5.401  13.816  0.00  0.00    +0.000 A 
ENDROOT
BRANCH   5   7
ATOM      7  N   UNL     1      48.251   5.890  15.659  0.00  0.00    +0.000 N 
ATOM      8  H   UNL     1      47.447   5.618  16.222  0.00  0.00    +0.000 HD
BRANCH   7   9
ATOM      9  C   UNL     1      49.211   6.683  16.386  0.00  0.00    +0.000 C 
ATOM     10  C   UNL     1      50.348   5.834  16.991  0.00  0.00    +0.000 C 
ATOM     11  N   UNL     1      50.232   6.602  18.249  0.00  0.00    +0.000 NA
ATOM     12  C   UNL     1      48.866   7.015  17.852  0.00  0.00    +0.000 C 
ATOM     13  H   UNL     1      50.889   7.382  18.302  0.00  0.00    +0.000 HD
ENDBRANCH   7   9
ENDBRANCH   5   7
BRANCH   1  14
ATOM     14  C   UNL     1      45.151   4.732  11.965  0.00  0.00    +0.000 C 
BRANCH  14  15
ATOM     15  C   UNL     1      44.495   5.315  10.709  0.00  0.00    +0.000 C 
BRANCH  15  16
ATOM     16  O   UNL     1      43.793   4.344   9.919  0.00  0.00    +0.000 OA
BRANCH  16  20
ATOM     17  C   UNL     1      46.513   2.233   7.641  0.00  0.00    +0.000 A 
ATOM     18  C   UNL     1      46.417   3.614   7.499  0.00  0.00    +0.000 A 
ATOM     19  C   UNL     1      45.498   4.326   8.268  0.00  0.00    +0.000 A 
ATOM     20  C   UNL     1      44.704   3.620   9.155  0.00  0.00    +0.000 A 
ATOM     21  N   UNL     1      44.782   2.276   9.308  0.00  0.00    +0.000 NA
ATOM     22  C   UNL     1      45.681   1.613   8.555  0.00  0.00    +0.000 A 
ENDBRANCH  16  20
ENDBRANCH  15  16
ENDBRANCH  14  15
ENDBRANCH   1  14
TORSDOF 6
ENDMDL
MODEL 9
REMARK VINA RESULT:    -5.805      2.655      7.285
REMARK INTER + INTRA:          -8.460
REMARK INTER:                  -7.913
REMARK INTRA:                  -0.547
REMARK UNBOUND:                -0.619
REMARK  Name = 
REMARK  6 active torsions:
REMARK  status: ('A' for Active; 'I' for Inactive)
REMARK    1  A    between atoms: C_4  and  O_5
REMARK    2  A    between atoms: O_5  and  C_6
REMARK    3  A    between atoms: C_6  and  C_7
REMARK    4  A    between atoms: C_7  and  C_8
REMARK    5  A    between atoms: C_12  and  N_13
REMARK    6  A    between atoms: N_13  and  C_14
REMARK                            x       y       z     vdW  Elec       q    Type
REMARK                         _______ _______ _______ _____ _____    ______ ____
ROOT
ATOM      1  C   UNL     1      47.308   7.307  12.730  0.00  0.00    +0.000 A 
ATOM      2  C   UNL     1      46.431   8.354  13.057  0.00  0.00    +0.000 A 
ATOM      3  C   UNL     1      45.201   8.492  12.416  0.00  0.00    +0.000 A 
ATOM      4  C   UNL     1      44.812   7.574  11.446  0.00  0.00    +0.000 A 
ATOM      5  C   UNL     1      45.655   6.518  11.096  0.00  0.00    +0.000 A 
ATOM      6  C   UNL     1      46.906   6.404  11.729  0.00  0.00    +0.000 A 
ENDROOT
BRANCH   5   7
ATOM      7  N   UNL     1      45.301   5.567  10.110  0.00  0.00    +0.000 N 
ATOM      8  H   UNL     1      45.291   6.014   9.195  0.00  0.00    +0.000 HD
BRANCH   7   9
ATOM      9  C   UNL     1      44.285   4.555  10.259  0.00  0.00    +0.000 C 
ATOM     10  C   UNL     1      44.546   3.624  11.462  0.00  0.00    +0.000 C 
ATOM     11  N   UNL     1      44.190   2.462  10.621  0.00  0.00    +0.000 NA
ATOM     12  C   UNL     1      44.451   3.277   9.412  0.00  0.00    +0.000 C 
ATOM     13  H   UNL     1      43.211   2.186  10.715  0.00  0.00    +0.000 HD
ENDBRANCH   7   9
ENDBRANCH   5   7
BRANCH   1  14
ATOM     14  C   UNL     1      48.648   7.114  13.428  0.00  0.00    +0.000 C 
BRANCH  14  15
ATOM     15  C   UNL     1      48.517   6.560  14.850  0.00  0.00    +0.000 C 
BRANCH  15  16
ATOM     16  O   UNL     1      47.723   5.369  14.937  0.00  0.00    +0.000 OA
BRANCH  16  20
ATOM     17  C   UNL     1      48.675   3.276  18.366  0.00  0.00    +0.000 A 
ATOM     18  C   UNL     1      47.469   3.027  17.717  0.00  0.00    +0.000 A 
ATOM     19  C   UNL     1      47.148   3.735  16.559  0.00  0.00    +0.000 A 
ATOM     20  C   UNL     1      48.055   4.672  16.096  0.00  0.00    +0.000 A 
ATOM     21  N   UNL     1      49.233   4.930  16.713  0.00  0.00    +0.000 NA
ATOM     22  C   UNL     1      49.520   4.230  17.828  0.00  0.00    +0.000 A 
ENDBRANCH  16  20
ENDBRANCH  15  16
ENDBRANCH  14  15
ENDBRANCH   1  14
TORSDOF 6
ENDMDL
