MODEL 1
REMARK VINA RESULT:    -7.758      0.000      0.000
REMARK INTER + INTRA:         -10.703
REMARK INTER:                 -10.026
REMARK INTRA:                  -0.677
REMARK UNBOUND:                -0.677
REMARK  Name = 
REMARK  5 active torsions:
REMARK  status: ('A' for Active; 'I' for Inactive)
REMARK    1  A    between atoms: C_2  and  C_5
REMARK    2  A    between atoms: C_7  and  N_8
REMARK    3  A    between atoms: N_8  and  C_9
REMARK    4  A    between atoms: C_9  and  C_10
REMARK    5  A    between atoms: C_17  and  C_18
REMARK                            x       y       z     vdW  Elec       q    Type
REMARK                         _______ _______ _______ _____ _____    ______ ____
ROOT
ATOM      1  C   UNL     1      45.954   6.209  12.611  0.00  0.00    +0.000 A 
ATOM      2  C   UNL     1      45.404   5.138  11.904  0.00  0.00    +0.000 A 
ATOM      3  C   UNL     1      45.538   3.844  12.394  0.00  0.00    +0.000 A 
ATOM      4  N   UNL     1      46.204   3.592  13.535  0.00  0.00    +0.000 NA
ATOM      5  C   UNL     1      46.779   4.617  14.216  0.00  0.00    +0.000 A 
ATOM      6  C   UNL     1      46.669   5.934  13.779  0.00  0.00    +0.000 A 
ENDROOT
BRANCH   5   7
ATOM      7  C   UNL     1      47.518   4.243  15.433  0.00  0.00    +0.000 A 
ATOM      8  C   UNL     1      47.859   2.911  15.709  0.00  0.00    +0.000 A 
ATOM      9  C   UNL     1      48.561   2.581  16.869  0.00  0.00    +0.000 A 
ATOM     10  C   UNL     1      48.909   3.599  17.738  0.00  0.00    +0.000 A 
ATOM     11  N   UNL     1      48.608   4.897  17.524  0.00  0.00    +0.000 NA
ATOM     12  C   UNL     1      47.920   5.179  16.389  0.00  0.00    +0.000 A 
ENDBRANCH   5   7
BRANCH   1  14
ATOM     13  F   UNL     1      46.910   8.235  11.750  0.00  0.00    +0.000 F 
ATOM     14  C   UNL     1      45.761   7.631  12.161  0.00  0.00    +0.000 C 
ATOM     15  F   UNL     1      45.250   8.422  13.143  0.00  0.00    +0.000 F 
ATOM     16  F   UNL     1      44.894   7.727  11.115  0.00  0.00    +0.000 F 
ENDBRANCH   1  14
BRANCH   3  17
ATOM     17  N   UNL     1      44.906   2.818  11.701  0.00  0.00    +0.000 N 
ATOM     18  H   UNL     1      44.456   2.139  12.300  0.00  0.00    +0.000 HD
BRANCH  17  19
ATOM     19  C   UNL     1      44.242   3.123  10.444  0.00  0.00    +0.000 C 
BRANCH  19  20
ATOM     20  C   UNL     1      45.051   2.977   9.194  0.00  0.00    +0.000 A 
ATOM     21  C   UNL     1      45.355   4.096   8.435  0.00  0.00    +0.000 A 
ATOM     22  N   UNL     1      46.155   4.089   7.350  0.00  0.00    +0.000 NA
ATOM     23  C   UNL     1      46.672   2.898   7.023  0.00  0.00    +0.000 A 
ATOM     24  N   UNL     1      46.464   1.745   7.677  0.00  0.00    +0.000 NA
ATOM     25  C   UNL     1      45.654   1.817   8.757  0.00  0.00    +0.000 A 
ENDBRANCH  19  20
ENDBRANCH  17  19
ENDBRANCH   3  17
TORSDOF 5
ENDMDL
MODEL 2
REMARK VINA RESULT:    -7.370      2.860      5.054
REMARK INTER + INTRA:         -10.201
REMARK INTER:                  -9.479
REMARK INTRA:                  -0.722
REMARK UNBOUND:                -0.677
REMARK  Name = 
REMARK  5 active torsions:
REMARK  status: ('A' for Active; 'I' for Inactive)
REMARK    1  A    between atoms: C_2  and  C_5
REMARK    2  A    between atoms: C_7  and  N_8
REMARK    3  A    between atoms: N_8  and  C_9
REMARK    4  A    between atoms: C_9  and  C_10
REMARK    5  A    between atoms: C_17  and  C_18
REMARK                            x       y       z     vdW  Elec       q    Type
REMARK                         _______ _______ _______ _____ _____    ______ ____
ROOT
ATOM      1  C   UNL     1      45.979   5.283  13.024  0.00  0.00    +0.000 A 
ATOM      2  C   UNL     1      45.220   4.475  12.174  0.00  0.00    +0.000 A 
ATOM      3  C   UNL     1      44.445   5.055  11.177  0.00  0.00    +0.000 A 
ATOM      4  N   UNL     1      44.393   6.390  11.016  0.00  0.00    +0.000 NA
ATOM      5  C   UNL     1      45.094   7.194  11.859  0.00  0.00    +0.000 A 
ATOM      6  C   UNL     1      45.895   6.669  12.869  0.00  0.00    +0.000 A 
ENDROOT
BRANCH   5   7
ATOM      7  C   UNL     1      44.948   8.641  11.632  0.00  0.00    +0.000 A 
ATOM      8  C   UNL     1      43.866   9.170  10.914  0.00  0.00    +0.000 A 
ATOM      9  C   UNL     1      43.750  10.546  10.713  0.00  0.00    +0.000 A 
ATOM     10  C   UNL     1      44.727  11.371  11.237  0.00  0.00    +0.000 A 
ATOM     11  N   UNL     1      45.789  10.919  11.935  0.00  0.00    +0.000 NA
ATOM     12  C   UNL     1      45.872   9.575  12.107  0.00  0.00    +0.000 A 
ENDBRANCH   5   7
BRANCH   1  14
ATOM     13  F   UNL     1      47.438   3.500  13.694  0.00  0.00    +0.000 F 
ATOM     14  C   UNL     1      46.894   4.693  14.060  0.00  0.00    +0.000 C 
ATOM     15  F   UNL     1      46.264   4.471  15.245  0.00  0.00    +0.000 F 
ATOM     16  F   UNL     1      47.946   5.511  14.344  0.00  0.00    +0.000 F 
ENDBRANCH   1  14
BRANCH   3  17
ATOM     17  N   UNL     1      43.771   4.210  10.303  0.00  0.00    +0.000 N 
ATOM     18  H   UNL     1      43.331   4.691   9.529  0.00  0.00    +0.000 HD
BRANCH  17  19
ATOM     19  C   UNL     1      44.327   2.897  10.025  0.00  0.00    +0.000 C 
BRANCH  19  20
ATOM     20  C   UNL     1      45.218   2.772   8.829  0.00  0.00    +0.000 A 
ATOM     21  C   UNL     1      45.493   3.888   8.055  0.00  0.00    +0.000 A 
ATOM     22  N   UNL     1      46.355   3.906   7.019  0.00  0.00    +0.000 NA
ATOM     23  C   UNL     1      46.968   2.744   6.760  0.00  0.00    +0.000 A 
ATOM     24  N   UNL     1      46.798   1.598   7.437  0.00  0.00    +0.000 NA
ATOM     25  C   UNL     1      45.921   1.644   8.464  0.00  0.00    +0.000 A 
ENDBRANCH  19  20
ENDBRANCH  17  19
ENDBRANCH   3  17
TORSDOF 5
ENDMDL
MODEL 3
REMARK VINA RESULT:    -7.077      0.898      1.627
REMARK INTER + INTRA:          -9.822
REMARK INTER:                  -9.287
REMARK INTRA:                  -0.535
REMARK UNBOUND:                -0.677
REMARK  Name = 
REMARK  5 active torsions:
REMARK  status: ('A' for Active; 'I' for Inactive)
REMARK    1  A    between atoms: C_2  and  C_5
REMARK    2  A    between atoms: C_7  and  N_8
REMARK    3  A    between atoms: N_8  and  C_9
REMARK    4  A    between atoms: C_9  and  C_10
REMARK    5  A    between atoms: C_17  and  C_18
REMARK                            x       y       z     vdW  Elec       q    Type
REMARK                         _______ _______ _______ _____ _____    ______ ____
ROOT
ATOM      1  C   UNL     1      47.009   6.320  12.795  0.00  0.00    +0.000 A 
ATOM      2  C   UNL     1      46.112   5.449  12.173  0.00  0.00    +0.000 A 
ATOM      3  C   UNL     1      45.717   4.285  12.821  0.00  0.00    +0.000 A 
ATOM      4  N   UNL     1      46.192   3.963  14.038  0.00  0.00    +0.000 NA
ATOM      5  C   UNL     1      47.096   4.779  14.642  0.00  0.00    +0.000 A 
ATOM      6  C   UNL     1      47.520   5.963  14.045  0.00  0.00    +0.000 A 
ENDROOT
BRANCH   5   7
ATOM      7  C   UNL     1      47.589   4.329  15.953  0.00  0.00    +0.000 A 
ATOM      8  C   UNL     1      47.861   2.979  16.216  0.00  0.00    +0.000 A 
ATOM      9  C   UNL     1      48.328   2.577  17.468  0.00  0.00    +0.000 A 
ATOM     10  C   UNL     1      48.514   3.543  18.440  0.00  0.00    +0.000 A 
ATOM     11  N   UNL     1      48.268   4.854  18.244  0.00  0.00    +0.000 NA
ATOM     12  C   UNL     1      47.810   5.208  17.017  0.00  0.00    +0.000 A 
ENDBRANCH   5   7
BRANCH   1  14
ATOM     13  F   UNL     1      46.336   8.369  11.743  0.00  0.00    +0.000 F 
ATOM     14  C   UNL     1      47.398   7.630  12.166  0.00  0.00    +0.000 C 
ATOM     15  F   UNL     1      48.200   7.466  11.079  0.00  0.00    +0.000 F 
ATOM     16  F   UNL     1      48.091   8.428  13.025  0.00  0.00    +0.000 F 
ENDBRANCH   1  14
BRANCH   3  17
ATOM     17  N   UNL     1      44.760   3.489  12.201  0.00  0.00    +0.000 N 
ATOM     18  H   UNL     1      44.123   3.040  12.846  0.00  0.00    +0.000 HD
BRANCH  17  19
ATOM     19  C   UNL     1      44.208   3.916  10.926  0.00  0.00    +0.000 C 
BRANCH  19  20
ATOM     20  C   UNL     1      44.999   3.593   9.698  0.00  0.00    +0.000 A 
ATOM     21  C   UNL     1      45.279   2.272   9.386  0.00  0.00    +0.000 A 
ATOM     22  N   UNL     1      45.896   1.868   8.258  0.00  0.00    +0.000 NA
ATOM     23  C   UNL     1      46.241   2.844   7.409  0.00  0.00    +0.000 A 
ATOM     24  N   UNL     1      46.020   4.156   7.588  0.00  0.00    +0.000 NA
ATOM     25  C   UNL     1      45.397   4.497   8.737  0.00  0.00    +0.000 A 
ENDBRANCH  19  20
ENDBRANCH  17  19
ENDBRANCH   3  17
TORSDOF 5
ENDMDL
MODEL 4
REMARK VINA RESULT:    -6.993      2.908      4.561
REMARK INTER + INTRA:          -9.714
REMARK INTER:                  -8.935
REMARK INTRA:                  -0.779
REMARK UNBOUND:                -0.677
REMARK  Name = 
REMARK  5 active torsions:
REMARK  status: ('A' for Active; 'I' for Inactive)
REMARK    1  A    between atoms: C_2  and  C_5
REMARK    2  A    between atoms: C_7  and  N_8
REMARK    3  A    between atoms: N_8  and  C_9
REMARK    4  A    between atoms: C_9  and  C_10
REMARK    5  A    between atoms: C_17  and  C_18
REMARK                            x       y       z     vdW  Elec       q    Type
REMARK                         _______ _______ _______ _____ _____    ______ ____
ROOT
ATOM      1  C   UNL     1      47.053   4.361  14.760  0.00  0.00    +0.000 A 
ATOM      2  C   UNL     1      46.281   3.541  13.935  0.00  0.00    +0.000 A 
ATOM      3  C   UNL     1      45.809   4.028  12.722  0.00  0.00    +0.000 A 
ATOM      4  N   UNL     1      46.065   5.287  12.323  0.00  0.00    +0.000 NA
ATOM      5  C   UNL     1      46.781   6.112  13.131  0.00  0.00    +0.000 A 
ATOM      6  C   UNL     1      47.288   5.677  14.352  0.00  0.00    +0.000 A 
ENDROOT
BRANCH   5   7
ATOM      7  C   UNL     1      46.980   7.483  12.631  0.00  0.00    +0.000 A 
ATOM      8  C   UNL     1      48.232   7.931  12.184  0.00  0.00    +0.000 A 
ATOM      9  C   UNL     1      48.395   9.234  11.714  0.00  0.00    +0.000 A 
ATOM     10  C   UNL     1      47.294  10.070  11.702  0.00  0.00    +0.000 A 
ATOM     11  N   UNL     1      46.068   9.694  12.119  0.00  0.00    +0.000 NA
ATOM     12  C   UNL     1      45.948   8.421  12.575  0.00  0.00    +0.000 A 
ENDBRANCH   5   7
BRANCH   1  14
ATOM     13  F   UNL     1      48.607   4.667  16.562  0.00  0.00    +0.000 F 
ATOM     14  C   UNL     1      47.653   3.849  16.040  0.00  0.00    +0.000 C 
ATOM     15  F   UNL     1      48.244   2.633  15.886  0.00  0.00    +0.000 F 
ATOM     16  F   UNL     1      46.720   3.689  17.019  0.00  0.00    +0.000 F 
ENDBRANCH   1  14
BRANCH   3  17
ATOM     17  N   UNL     1      45.114   3.151  11.896  0.00  0.00    +0.000 N 
ATOM     18  H   UNL     1      44.627   2.420  12.395  0.00  0.00    +0.000 HD
BRANCH  17  19
ATOM     19  C   UNL     1      44.467   3.672  10.703  0.00  0.00    +0.000 C 
BRANCH  19  20
ATOM     20  C   UNL     1      45.161   3.447   9.397  0.00  0.00    +0.000 A 
ATOM     21  C   UNL     1      45.605   4.530   8.656  0.00  0.00    +0.000 A 
ATOM     22  N   UNL     1      46.324   4.437   7.520  0.00  0.00    +0.000 NA
ATOM     23  C   UNL     1      46.609   3.191   7.121  0.00  0.00    +0.000 A 
ATOM     24  N   UNL     1      46.248   2.062   7.749  0.00  0.00    +0.000 NA
ATOM     25  C   UNL     1      45.530   2.222   8.883  0.00  0.00    +0.000 A 
ENDBRANCH  19  20
ENDBRANCH  17  19
ENDBRANCH   3  17
TORSDOF 5
ENDMDL
MODEL 5
REMARK VINA RESULT:    -6.992      3.501      4.032
REMARK INTER + INTRA:          -9.713
REMARK INTER:                  -8.990
REMARK INTRA:                  -0.723
REMARK UNBOUND:                -0.677
REMARK  Name = 
REMARK  5 active torsions:
REMARK  status: ('A' for Active; 'I' for Inactive)
REMARK    1  A    between atoms: C_2  and  C_5
REMARK    2  A    between atoms: C_7  and  N_8
REMARK    3  A    between atoms: N_8  and  C_9
REMARK    4  A    between atoms: C_9  and  C_10
REMARK    5  A    between atoms: C_17  and  C_18
REMARK                            x       y       z     vdW  Elec       q    Type
REMARK                         _______ _______ _______ _____ _____    ______ ____
ROOT
ATOM      1  C   UNL     1      44.403   5.279  11.960  0.00  0.00    +0.000 A 
ATOM      2  C   UNL     1      44.634   5.017  10.608  0.00  0.00    +0.000 A 
ATOM      3  C   UNL     1      45.768   5.529   9.988  0.00  0.00    +0.000 A 
ATOM      4  N   UNL     1      46.651   6.290  10.659  0.00  0.00    +0.000 NA
ATOM      5  C   UNL     1      46.422   6.588  11.966  0.00  0.00    +0.000 A 
ATOM      6  C   UNL     1      45.309   6.095  12.641  0.00  0.00    +0.000 A 
ENDROOT
BRANCH   5   7
ATOM      7  C   UNL     1      47.421   7.457  12.608  0.00  0.00    +0.000 A 
ATOM      8  C   UNL     1      48.775   7.420  12.245  0.00  0.00    +0.000 A 
ATOM      9  C   UNL     1      49.703   8.255  12.869  0.00  0.00    +0.000 A 
ATOM     10  C   UNL     1      49.254   9.116  13.853  0.00  0.00    +0.000 A 
ATOM     11  N   UNL     1      47.965   9.194  14.243  0.00  0.00    +0.000 NA
ATOM     12  C   UNL     1      47.092   8.364  13.618  0.00  0.00    +0.000 A 
ENDBRANCH   5   7
BRANCH   1  14
ATOM     13  F   UNL     1      42.637   5.530  13.565  0.00  0.00    +0.000 F 
ATOM     14  C   UNL     1      43.233   4.676  12.689  0.00  0.00    +0.000 C 
ATOM     15  F   UNL     1      43.582   3.578  13.412  0.00  0.00    +0.000 F 
ATOM     16  F   UNL     1      42.251   4.268  11.839  0.00  0.00    +0.000 F 
ENDBRANCH   1  14
BRANCH   3  17
ATOM     17  N   UNL     1      46.000   5.176   8.664  0.00  0.00    +0.000 N 
ATOM     18  H   UNL     1      46.957   5.310   8.368  0.00  0.00    +0.000 HD
BRANCH  17  19
ATOM     19  C   UNL     1      45.298   4.031   8.107  0.00  0.00    +0.000 C 
BRANCH  19  20
ATOM     20  C   UNL     1      46.105   2.798   7.847  0.00  0.00    +0.000 A 
ATOM     21  C   UNL     1      45.718   1.590   8.404  0.00  0.00    +0.000 A 
ATOM     22  N   UNL     1      46.315   0.407   8.156  0.00  0.00    +0.000 NA
ATOM     23  C   UNL     1      47.346   0.451   7.302  0.00  0.00    +0.000 A 
ATOM     24  N   UNL     1      47.813   1.549   6.690  0.00  0.00    +0.000 NA
ATOM     25  C   UNL     1      47.172   2.703   6.979  0.00  0.00    +0.000 A 
ENDBRANCH  19  20
ENDBRANCH  17  19
ENDBRANCH   3  17
TORSDOF 5
ENDMDL
MODEL 6
REMARK VINA RESULT:    -6.918      3.234      6.416
REMARK INTER + INTRA:          -9.616
REMARK INTER:                  -8.811
REMARK INTRA:                  -0.805
REMARK UNBOUND:                -0.677
REMARK  Name = 
REMARK  5 active torsions:
REMARK  status: ('A' for Active; 'I' for Inactive)
REMARK    1  A    between atoms: C_2  and  C_5
REMARK    2  A    between atoms: C_7  and  N_8
REMARK    3  A    between atoms: N_8  and  C_9
REMARK    4  A    between atoms: C_9  and  C_10
REMARK    5  A    between atoms: C_17  and  C_18
REMARK                            x       y       z     vdW  Elec       q    Type
REMARK                         _______ _______ _______ _____ _____    ______ ____
ROOT
ATOM      1  C   UNL     1      45.707   5.355  12.282  0.00  0.00    +0.000 A 
ATOM      2  C   UNL     1      45.732   4.534  13.411  0.00  0.00    +0.000 A 
ATOM      3  C   UNL     1      46.779   4.637  14.318  0.00  0.00    +0.000 A 
ATOM      4  N   UNL     1      47.789   5.505  14.129  0.00  0.00    +0.000 NA
ATOM      5  C   UNL     1      47.802   6.285  13.016  0.00  0.00    +0.000 A 
ATOM      6  C   UNL     1      46.775   6.232  12.078  0.00  0.00    +0.000 A 
ENDROOT
BRANCH   5   7
ATOM      7  C   UNL     1      48.964   7.178  12.874  0.00  0.00    +0.000 A 
ATOM      8  C   UNL     1      49.314   7.742  11.638  0.00  0.00    +0.000 A 
ATOM      9  C   UNL     1      50.420   8.586  11.529  0.00  0.00    +0.000 A 
ATOM     10  C   UNL     1      51.159   8.850  12.667  0.00  0.00    +0.000 A 
ATOM     11  N   UNL     1      50.869   8.336  13.880  0.00  0.00    +0.000 NA
ATOM     12  C   UNL     1      49.791   7.516  13.948  0.00  0.00    +0.000 A 
ENDBRANCH   5   7
BRANCH   1  14
ATOM     13  F   UNL     1      43.947   6.545  11.166  0.00  0.00    +0.000 F 
ATOM     14  C   UNL     1      44.552   5.335  11.319  0.00  0.00    +0.000 C 
ATOM     15  F   UNL     1      43.573   4.470  11.700  0.00  0.00    +0.000 F 
ATOM     16  F   UNL     1      44.930   4.945  10.070  0.00  0.00    +0.000 F 
ENDBRANCH   1  14
BRANCH   3  17
ATOM     17  N   UNL     1      46.721   3.858  15.469  0.00  0.00    +0.000 N 
ATOM     18  H   UNL     1      46.698   2.863  15.287  0.00  0.00    +0.000 HD
BRANCH  17  19
ATOM     19  C   UNL     1      47.453   4.290  16.648  0.00  0.00    +0.000 C 
BRANCH  19  20
ATOM     20  C   UNL     1      48.715   3.556  16.975  0.00  0.00    +0.000 A 
ATOM     21  C   UNL     1      48.954   2.312  16.412  0.00  0.00    +0.000 A 
ATOM     22  N   UNL     1      50.096   1.612  16.562  0.00  0.00    +0.000 NA
ATOM     23  C   UNL     1      51.038   2.201  17.311  0.00  0.00    +0.000 A 
ATOM     24  N   UNL     1      50.935   3.402  17.902  0.00  0.00    +0.000 NA
ATOM     25  C   UNL     1      49.767   4.053  17.714  0.00  0.00    +0.000 A 
ENDBRANCH  19  20
ENDBRANCH  17  19
ENDBRANCH   3  17
TORSDOF 5
ENDMDL
MODEL 7
REMARK VINA RESULT:    -6.816      3.111      4.641
REMARK INTER + INTRA:          -9.486
REMARK INTER:                  -8.690
REMARK INTRA:                  -0.795
REMARK UNBOUND:                -0.677
REMARK  Name = 
REMARK  5 active torsions:
REMARK  status: ('A' for Active; 'I' for Inactive)
REMARK    1  A    between atoms: C_2  and  C_5
REMARK    2  A    between atoms: C_7  and  N_8
REMARK    3  A    between atoms: N_8  and  C_9
REMARK    4  A    between atoms: C_9  and  C_10
REMARK    5  A    between atoms: C_17  and  C_18
REMARK                            x       y       z     vdW  Elec       q    Type
REMARK                         _______ _______ _______ _____ _____    ______ ____
ROOT
ATOM      1  C   UNL     1      47.066   4.835  14.683  0.00  0.00    +0.000 A 
ATOM      2  C   UNL     1      45.977   4.347  13.959  0.00  0.00    +0.000 A 
ATOM      3  C   UNL     1      45.607   4.961  12.768  0.00  0.00    +0.000 A 
ATOM      4  N   UNL     1      46.267   6.034  12.298  0.00  0.00    +0.000 NA
ATOM      5  C   UNL     1      47.305   6.547  13.009  0.00  0.00    +0.000 A 
ATOM      6  C   UNL     1      47.727   5.968  14.203  0.00  0.00    +0.000 A 
ENDROOT
BRANCH   5   7
ATOM      7  C   UNL     1      47.944   7.744  12.437  0.00  0.00    +0.000 A 
ATOM      8  C   UNL     1      47.265   8.966  12.335  0.00  0.00    +0.000 A 
ATOM      9  C   UNL     1      47.893  10.087  11.790  0.00  0.00    +0.000 A 
ATOM     10  C   UNL     1      49.198   9.960  11.353  0.00  0.00    +0.000 A 
ATOM     11  N   UNL     1      49.900   8.810  11.426  0.00  0.00    +0.000 NA
ATOM     12  C   UNL     1      49.256   7.740  11.957  0.00  0.00    +0.000 A 
ENDBRANCH   5   7
BRANCH   1  14
ATOM     13  F   UNL     1      47.914   2.853  15.737  0.00  0.00    +0.000 F 
ATOM     14  C   UNL     1      47.551   4.150  15.931  0.00  0.00    +0.000 C 
ATOM     15  F   UNL     1      46.611   4.135  16.915  0.00  0.00    +0.000 F 
ATOM     16  F   UNL     1      48.642   4.767  16.466  0.00  0.00    +0.000 F 
ENDBRANCH   1  14
BRANCH   3  17
ATOM     17  N   UNL     1      44.569   4.392  12.039  0.00  0.00    +0.000 N 
ATOM     18  H   UNL     1      43.753   4.171  12.595  0.00  0.00    +0.000 HD
BRANCH  17  19
ATOM     19  C   UNL     1      44.329   4.851  10.681  0.00  0.00    +0.000 C 
BRANCH  19  20
ATOM     20  C   UNL     1      44.941   4.053   9.574  0.00  0.00    +0.000 A 
ATOM     21  C   UNL     1      45.656   4.694   8.574  0.00  0.00    +0.000 A 
ATOM     22  N   UNL     1      46.326   4.064   7.589  0.00  0.00    +0.000 NA
ATOM     23  C   UNL     1      46.274   2.726   7.622  0.00  0.00    +0.000 A 
ATOM     24  N   UNL     1      45.628   1.987   8.536  0.00  0.00    +0.000 NA
ATOM     25  C   UNL     1      44.976   2.677   9.498  0.00  0.00    +0.000 A 
ENDBRANCH  19  20
ENDBRANCH  17  19
ENDBRANCH   3  17
TORSDOF 5
ENDMDL
MODEL 8
REMARK VINA RESULT:    -6.554      2.600      6.715
REMARK INTER + INTRA:          -9.147
REMARK INTER:                  -8.353
REMARK INTRA:                  -0.793
REMARK UNBOUND:                -0.677
REMARK  Name = 
REMARK  5 active torsions:
REMARK  status: ('A' for Active; 'I' for Inactive)
REMARK    1  A    between atoms: C_2  and  C_5
REMARK    2  A    between atoms: C_7  and  N_8
REMARK    3  A    between atoms: N_8  and  C_9
REMARK    4  A    between atoms: C_9  and  C_10
REMARK    5  A    between atoms: C_17  and  C_18
REMARK                            x       y       z     vdW  Elec       q    Type
REMARK                         _______ _______ _______ _____ _____    ______ ____
ROOT
ATOM      1  C   UNL     1      48.738   7.311  12.607  0.00  0.00    +0.000 A 
ATOM      2  C   UNL     1      48.900   7.159  13.985  0.00  0.00    +0.000 A 
ATOM      3  C   UNL     1      48.029   6.344  14.699  0.00  0.00    +0.000 A 
ATOM      4  N   UNL     1      47.013   5.703  14.093  0.00  0.00    +0.000 NA
ATOM      5  C   UNL     1      46.816   5.871  12.759  0.00  0.00    +0.000 A 
ATOM      6  C   UNL     1      47.662   6.666  11.992  0.00  0.00    +0.000 A 
ENDROOT
BRANCH   5   7
ATOM      7  C   UNL     1      45.659   5.161  12.189  0.00  0.00    +0.000 A 
ATOM      8  C   UNL     1      44.882   4.280  12.955  0.00  0.00    +0.000 A 
ATOM      9  C   UNL     1      43.790   3.620  12.392  0.00  0.00    +0.000 A 
ATOM     10  C   UNL     1      43.494   3.856  11.062  0.00  0.00    +0.000 A 
ATOM     11  N   UNL     1      44.205   4.692  10.278  0.00  0.00    +0.000 NA
ATOM     12  C   UNL     1      45.263   5.313  10.858  0.00  0.00    +0.000 A 
ENDBRANCH   5   7
BRANCH   1  14
ATOM     13  F   UNL     1      50.774   8.575  12.493  0.00  0.00    +0.000 F 
ATOM     14  C   UNL     1      49.706   8.116  11.785  0.00  0.00    +0.000 C 
ATOM     15  F   UNL     1      49.127   9.212  11.225  0.00  0.00    +0.000 F 
ATOM     16  F   UNL     1      50.225   7.397  10.751  0.00  0.00    +0.000 F 
ENDBRANCH   1  14
BRANCH   3  17
ATOM     17  N   UNL     1      48.278   6.156  16.054  0.00  0.00    +0.000 N 
ATOM     18  H   UNL     1      48.230   7.007  16.599  0.00  0.00    +0.000 HD
BRANCH  17  19
ATOM     19  C   UNL     1      47.801   4.942  16.695  0.00  0.00    +0.000 C 
BRANCH  19  20
ATOM     20  C   UNL     1      48.796   3.843  16.898  0.00  0.00    +0.000 A 
ATOM     21  C   UNL     1      48.639   2.639  16.231  0.00  0.00    +0.000 A 
ATOM     22  N   UNL     1      49.525   1.623  16.268  0.00  0.00    +0.000 NA
ATOM     23  C   UNL     1      50.619   1.841  17.008  0.00  0.00    +0.000 A 
ATOM     24  N   UNL     1      50.895   2.962  17.693  0.00  0.00    +0.000 NA
ATOM     25  C   UNL     1      49.968   3.942  17.616  0.00  0.00    +0.000 A 
ENDBRANCH  19  20
ENDBRANCH  17  19
ENDBRANCH   3  17
TORSDOF 5
ENDMDL
MODEL 9
REMARK VINA RESULT:    -6.213      3.233      6.859
REMARK INTER + INTRA:          -8.706
REMARK INTER:                  -7.926
REMARK INTRA:                  -0.780
REMARK UNBOUND:                -0.677
REMARK  Name = 
REMARK  5 active torsions:
REMARK  status: ('A' for Active; 'I' for Inactive)
REMARK    1  A    between atoms: C_2  and  C_5
REMARK    2  A    between atoms: C_7  and  N_8
REMARK    3  A    between atoms: N_8  and  C_9
REMARK    4  A    between atoms: C_9  and  C_10
REMARK    5  A    between atoms: C_17  and  C_18
REMARK                            x       y       z     vdW  Elec       q    Type
REMARK                         _______ _______ _______ _____ _____    ______ ____
ROOT
ATOM      1  C   UNL     1      45.787   5.427  12.279  0.00  0.00    +0.000 A 
ATOM      2  C   UNL     1      45.754   4.615  13.414  0.00  0.00    +0.000 A 
ATOM      3  C   UNL     1      46.784   4.684  14.345  0.00  0.00    +0.000 A 
ATOM      4  N   UNL     1      47.830   5.512  14.172  0.00  0.00    +0.000 NA
ATOM      5  C   UNL     1      47.899   6.281  13.054  0.00  0.00    +0.000 A 
ATOM      6  C   UNL     1      46.893   6.260  12.093  0.00  0.00    +0.000 A 
ENDROOT
BRANCH   5   7
ATOM      7  C   UNL     1      49.098   7.127  12.932  0.00  0.00    +0.000 A 
ATOM      8  C   UNL     1      49.532   7.617  11.692  0.00  0.00    +0.000 A 
ATOM      9  C   UNL     1      50.671   8.417  11.602  0.00  0.00    +0.000 A 
ATOM     10  C   UNL     1      51.359   8.713  12.764  0.00  0.00    +0.000 A 
ATOM     11  N   UNL     1      50.988   8.271  13.983  0.00  0.00    +0.000 NA
ATOM     12  C   UNL     1      49.879   7.490  14.031  0.00  0.00    +0.000 A 
ENDBRANCH   5   7
BRANCH   1  14
ATOM     13  F   UNL     1      43.957   6.612  11.277  0.00  0.00    +0.000 F 
ATOM     14  C   UNL     1      44.654   5.443  11.290  0.00  0.00    +0.000 C 
ATOM     15  F   UNL     1      43.742   4.463  11.529  0.00  0.00    +0.000 F 
ATOM     16  F   UNL     1      45.084   5.251  10.012  0.00  0.00    +0.000 F 
ENDBRANCH   1  14
BRANCH   3  17
ATOM     17  N   UNL     1      46.669   3.918  15.499  0.00  0.00    +0.000 N 
ATOM     18  H   UNL     1      45.931   3.229  15.460  0.00  0.00    +0.000 HD
BRANCH  17  19
ATOM     19  C   UNL     1      47.876   3.544  16.218  0.00  0.00    +0.000 C 
BRANCH  19  20
ATOM     20  C   UNL     1      48.122   4.213  17.533  0.00  0.00    +0.000 A 
ATOM     21  C   UNL     1      47.198   5.119  18.029  0.00  0.00    +0.000 A 
ATOM     22  N   UNL     1      47.275   5.702  19.242  0.00  0.00    +0.000 NA
ATOM     23  C   UNL     1      48.330   5.347  19.986  0.00  0.00    +0.000 A 
ATOM     24  N   UNL     1      49.287   4.477  19.628  0.00  0.00    +0.000 NA
ATOM     25  C   UNL     1      49.154   3.927  18.401  0.00  0.00    +0.000 A 
ENDBRANCH  19  20
ENDBRANCH  17  19
ENDBRANCH   3  17
TORSDOF 5
ENDMDL
