MODEL 1
REMARK VINA RESULT:    -8.901      0.000      0.000
REMARK INTER + INTRA:         -11.396
REMARK INTER:                 -11.503
REMARK INTRA:                   0.106
REMARK UNBOUND:                 0.106
REMARK  Name = 
REMARK  5 active torsions:
REMARK  status: ('A' for Active; 'I' for Inactive)
REMARK    1  A    between atoms: C_2  and  C_4
REMARK    2  A    between atoms: C_7  and  O_8
REMARK    3  A    between atoms: O_8  and  C_9
REMARK    4  A    between atoms: C_9  and  C_10
REMARK    5  A    between atoms: C_15  and  C_16
REMARK                            x       y       z     vdW  Elec       q    Type
REMARK                         _______ _______ _______ _____ _____    ______ ____
ROOT
ATOM      1  C   UNL     1      43.717   5.020  11.075  0.00  0.00    +0.000 C 
ATOM      2  C   UNL     1      42.951   3.976  11.885  0.00  0.00    +0.000 C 
ATOM      3  C   UNL     1      42.488   5.393  11.887  0.00  0.00    +0.000 C 
ENDROOT
BRANCH   1   4
ATOM      4  C   UNL     1      45.074   5.485  11.588  0.00  0.00    +0.000 A 
ATOM      5  C   UNL     1      45.707   6.586  11.006  0.00  0.00    +0.000 A 
ATOM      6  C   UNL     1      46.889   7.074  11.549  0.00  0.00    +0.000 A 
ATOM      7  C   UNL     1      47.417   6.456  12.670  0.00  0.00    +0.000 A 
ATOM      8  F   UNL     1      48.547   6.947  13.199  0.00  0.00    +0.000 F 
ATOM      9  C   UNL     1      46.768   5.353  13.221  0.00  0.00    +0.000 A 
ATOM     10  N   UNL     1      45.620   4.861  12.672  0.00  0.00    +0.000 NA
BRANCH   9  11
ATOM     11  C   UNL     1      47.236   4.662  14.436  0.00  0.00    +0.000 A 
ATOM     12  C   UNL     1      47.518   5.356  15.622  0.00  0.00    +0.000 A 
ATOM     13  C   UNL     1      47.969   4.676  16.754  0.00  0.00    +0.000 A 
ATOM     14  C   UNL     1      48.140   3.306  16.672  0.00  0.00    +0.000 A 
ATOM     15  N   UNL     1      47.893   2.590  15.557  0.00  0.00    +0.000 NA
ATOM     16  C   UNL     1      47.453   3.283  14.476  0.00  0.00    +0.000 A 
ENDBRANCH   9  11
ENDBRANCH   1   4
BRANCH   1  17
ATOM     17  O   UNL     1      43.608   4.733   9.659  0.00  0.00    +0.000 OA
BRANCH  17  21
ATOM     18  C   UNL     1      46.356   2.314   7.914  0.00  0.00    +0.000 A 
ATOM     19  C   UNL     1      46.368   3.677   7.642  0.00  0.00    +0.000 A 
ATOM     20  N   UNL     1      45.489   4.549   8.211  0.00  0.00    +0.000 NA
ATOM     21  C   UNL     1      44.605   3.987   9.067  0.00  0.00    +0.000 A 
ATOM     22  C   UNL     1      44.621   2.627   9.367  0.00  0.00    +0.000 A 
ATOM     23  N   UNL     1      45.484   1.749   8.797  0.00  0.00    +0.000 NA
BRANCH  18  25
ATOM     24  N   UNL     1      48.345   1.994   6.574  0.00  0.00    +0.000 N 
ATOM     25  C   UNL     1      47.271   1.400   7.180  0.00  0.00    +0.000 C 
ATOM     26  O   UNL     1      47.093   0.186   7.143  0.00  0.00    +0.000 OA
ATOM     27  H   UNL     1      49.040   1.423   6.114  0.00  0.00    +0.000 HD
ATOM     28  H   UNL     1      48.486   2.996   6.659  0.00  0.00    +0.000 HD
ENDBRANCH  18  25
ENDBRANCH  17  21
ENDBRANCH   1  17
TORSDOF 5
ENDMDL
MODEL 2
REMARK VINA RESULT:    -8.623      1.917      3.528
REMARK INTER + INTRA:         -11.038
REMARK INTER:                 -10.286
REMARK INTRA:                  -0.752
REMARK UNBOUND:                 0.106
REMARK  Name = 
REMARK  5 active torsions:
REMARK  status: ('A' for Active; 'I' for Inactive)
REMARK    1  A    between atoms: C_2  and  C_4
REMARK    2  A    between atoms: C_7  and  O_8
REMARK    3  A    between atoms: O_8  and  C_9
REMARK    4  A    between atoms: C_9  and  C_10
REMARK    5  A    between atoms: C_15  and  C_16
REMARK                            x       y       z     vdW  Elec       q    Type
REMARK                         _______ _______ _______ _____ _____    ______ ____
ROOT
ATOM      1  C   UNL     1      43.851   4.912  11.417  0.00  0.00    +0.000 C 
ATOM      2  C   UNL     1      42.481   5.220  12.019  0.00  0.00    +0.000 C 
ATOM      3  C   UNL     1      43.009   6.073  10.915  0.00  0.00    +0.000 C 
ENDROOT
BRANCH   1   4
ATOM      4  C   UNL     1      45.093   5.239  12.236  0.00  0.00    +0.000 A 
ATOM      5  C   UNL     1      45.585   4.320  13.166  0.00  0.00    +0.000 A 
ATOM      6  C   UNL     1      46.779   4.574  13.829  0.00  0.00    +0.000 A 
ATOM      7  C   UNL     1      47.467   5.742  13.545  0.00  0.00    +0.000 A 
ATOM      8  F   UNL     1      48.630   5.969  14.175  0.00  0.00    +0.000 F 
ATOM      9  C   UNL     1      46.946   6.644  12.620  0.00  0.00    +0.000 A 
ATOM     10  N   UNL     1      45.761   6.404  11.989  0.00  0.00    +0.000 NA
BRANCH   9  11
ATOM     11  C   UNL     1      47.631   7.889  12.229  0.00  0.00    +0.000 A 
ATOM     12  C   UNL     1      48.934   7.886  11.708  0.00  0.00    +0.000 A 
ATOM     13  C   UNL     1      49.561   9.082  11.354  0.00  0.00    +0.000 A 
ATOM     14  C   UNL     1      48.871  10.266  11.541  0.00  0.00    +0.000 A 
ATOM     15  N   UNL     1      47.623  10.327  12.046  0.00  0.00    +0.000 NA
ATOM     16  C   UNL     1      47.042   9.146  12.376  0.00  0.00    +0.000 A 
ENDBRANCH   9  11
ENDBRANCH   1   4
BRANCH   1  17
ATOM     17  O   UNL     1      43.822   3.631  10.740  0.00  0.00    +0.000 OA
BRANCH  17  21
ATOM     18  C   UNL     1      46.365   2.723   7.714  0.00  0.00    +0.000 A 
ATOM     19  C   UNL     1      46.038   4.051   7.961  0.00  0.00    +0.000 A 
ATOM     20  N   UNL     1      45.209   4.428   8.975  0.00  0.00    +0.000 NA
ATOM     21  C   UNL     1      44.732   3.409   9.728  0.00  0.00    +0.000 A 
ATOM     22  C   UNL     1      45.093   2.084   9.500  0.00  0.00    +0.000 A 
ATOM     23  N   UNL     1      45.908   1.698   8.486  0.00  0.00    +0.000 NA
BRANCH  18  25
ATOM     24  N   UNL     1      47.142   3.255   5.485  0.00  0.00    +0.000 N 
ATOM     25  C   UNL     1      47.188   2.369   6.527  0.00  0.00    +0.000 C 
ATOM     26  O   UNL     1      47.888   1.362   6.494  0.00  0.00    +0.000 OA
ATOM     27  H   UNL     1      47.729   3.107   4.675  0.00  0.00    +0.000 HD
ATOM     28  H   UNL     1      46.585   4.100   5.561  0.00  0.00    +0.000 HD
ENDBRANCH  18  25
ENDBRANCH  17  21
ENDBRANCH   1  17
TORSDOF 5
ENDMDL
MODEL 3
REMARK VINA RESULT:    -8.178      2.199      2.839
REMARK INTER + INTRA:         -10.463
REMARK INTER:                 -10.565
REMARK INTRA:                   0.102
REMARK UNBOUND:                 0.106
REMARK  Name = 
REMARK  5 active torsions:
REMARK  status: ('A' for Active; 'I' for Inactive)
REMARK    1  A    between atoms: C_2  and  C_4
REMARK    2  A    between atoms: C_7  and  O_8
REMARK    3  A    between atoms: O_8  and  C_9
REMARK    4  A    between atoms: C_9  and  C_10
REMARK    5  A    between atoms: C_15  and  C_16
REMARK                            x       y       z     vdW  Elec       q    Type
REMARK                         _______ _______ _______ _____ _____    ______ ____
ROOT
ATOM      1  C   UNL     1      44.043   4.059  11.421  0.00  0.00    +0.000 C 
ATOM      2  C   UNL     1      44.796   3.028  12.261  0.00  0.00    +0.000 C 
ATOM      3  C   UNL     1      43.445   3.488  12.695  0.00  0.00    +0.000 C 
ENDROOT
BRANCH   1   4
ATOM      4  C   UNL     1      44.521   5.505  11.448  0.00  0.00    +0.000 A 
ATOM      5  C   UNL     1      43.623   6.548  11.204  0.00  0.00    +0.000 A 
ATOM      6  C   UNL     1      44.037   7.867  11.340  0.00  0.00    +0.000 A 
ATOM      7  C   UNL     1      45.342   8.123  11.725  0.00  0.00    +0.000 A 
ATOM      8  F   UNL     1      45.726   9.399  11.874  0.00  0.00    +0.000 F 
ATOM      9  C   UNL     1      46.217   7.062  11.951  0.00  0.00    +0.000 A 
ATOM     10  N   UNL     1      45.815   5.768  11.793  0.00  0.00    +0.000 NA
BRANCH   9  11
ATOM     11  C   UNL     1      47.608   7.243  12.402  0.00  0.00    +0.000 A 
ATOM     12  C   UNL     1      48.583   7.832  11.583  0.00  0.00    +0.000 A 
ATOM     13  C   UNL     1      49.895   7.982  12.034  0.00  0.00    +0.000 A 
ATOM     14  C   UNL     1      50.209   7.528  13.302  0.00  0.00    +0.000 A 
ATOM     15  N   UNL     1      49.316   6.948  14.127  0.00  0.00    +0.000 NA
ATOM     16  C   UNL     1      48.049   6.820  13.658  0.00  0.00    +0.000 A 
ENDBRANCH   9  11
ENDBRANCH   1   4
BRANCH   1  17
ATOM     17  O   UNL     1      43.704   3.498  10.128  0.00  0.00    +0.000 OA
BRANCH  17  21
ATOM     18  C   UNL     1      46.589   2.658   7.405  0.00  0.00    +0.000 A 
ATOM     19  C   UNL     1      46.111   3.957   7.520  0.00  0.00    +0.000 A 
ATOM     20  N   UNL     1      45.160   4.314   8.429  0.00  0.00    +0.000 NA
ATOM     21  C   UNL     1      44.720   3.304   9.216  0.00  0.00    +0.000 A 
ATOM     22  C   UNL     1      45.229   2.012   9.124  0.00  0.00    +0.000 A 
ATOM     23  N   UNL     1      46.168   1.645   8.215  0.00  0.00    +0.000 NA
BRANCH  18  25
ATOM     24  N   UNL     1      47.543   3.142   5.235  0.00  0.00    +0.000 N 
ATOM     25  C   UNL     1      47.548   2.311   6.323  0.00  0.00    +0.000 C 
ATOM     26  O   UNL     1      48.318   1.359   6.410  0.00  0.00    +0.000 OA
ATOM     27  H   UNL     1      48.216   3.001   4.494  0.00  0.00    +0.000 HD
ATOM     28  H   UNL     1      46.924   3.946   5.213  0.00  0.00    +0.000 HD
ENDBRANCH  18  25
ENDBRANCH  17  21
ENDBRANCH   1  17
TORSDOF 5
ENDMDL
MODEL 4
REMARK VINA RESULT:    -8.140      2.960      7.173
REMARK INTER + INTRA:         -10.413
REMARK INTER:                  -9.912
REMARK INTRA:                  -0.501
REMARK UNBOUND:                 0.106
REMARK  Name = 
REMARK  5 active torsions:
REMARK  status: ('A' for Active; 'I' for Inactive)
REMARK    1  A    between atoms: C_2  and  C_4
REMARK    2  A    between atoms: C_7  and  O_8
REMARK    3  A    between atoms: O_8  and  C_9
REMARK    4  A    between atoms: C_9  and  C_10
REMARK    5  A    between atoms: C_15  and  C_16
REMARK                            x       y       z     vdW  Elec       q    Type
REMARK                         _______ _______ _______ _____ _____    ______ ____
ROOT
ATOM      1  C   UNL     1      45.470   5.695  12.037  0.00  0.00    +0.000 C 
ATOM      2  C   UNL     1      45.053   7.027  11.414  0.00  0.00    +0.000 C 
ATOM      3  C   UNL     1      44.375   6.549  12.654  0.00  0.00    +0.000 C 
ENDROOT
BRANCH   1   4
ATOM      4  C   UNL     1      45.055   4.406  11.338  0.00  0.00    +0.000 A 
ATOM      5  C   UNL     1      43.962   3.673  11.806  0.00  0.00    +0.000 A 
ATOM      6  C   UNL     1      43.519   2.561  11.102  0.00  0.00    +0.000 A 
ATOM      7  C   UNL     1      44.173   2.203   9.935  0.00  0.00    +0.000 A 
ATOM      8  F   UNL     1      43.725   1.140   9.251  0.00  0.00    +0.000 F 
ATOM      9  C   UNL     1      45.268   2.948   9.500  0.00  0.00    +0.000 A 
ATOM     10  N   UNL     1      45.715   4.025  10.206  0.00  0.00    +0.000 NA
BRANCH   9  11
ATOM     11  C   UNL     1      45.995   2.662   8.251  0.00  0.00    +0.000 A 
ATOM     12  C   UNL     1      46.139   3.623   7.239  0.00  0.00    +0.000 A 
ATOM     13  C   UNL     1      46.825   3.321   6.062  0.00  0.00    +0.000 A 
ATOM     14  C   UNL     1      47.350   2.050   5.916  0.00  0.00    +0.000 A 
ATOM     15  N   UNL     1      47.234   1.085   6.851  0.00  0.00    +0.000 NA
ATOM     16  C   UNL     1      46.563   1.414   7.983  0.00  0.00    +0.000 A 
ENDBRANCH   9  11
ENDBRANCH   1   4
BRANCH   1  17
ATOM     17  O   UNL     1      46.833   5.776  12.522  0.00  0.00    +0.000 OA
BRANCH  17  21
ATOM     18  C   UNL     1      47.839   3.749  15.887  0.00  0.00    +0.000 A 
ATOM     19  C   UNL     1      47.826   5.139  15.900  0.00  0.00    +0.000 A 
ATOM     20  N   UNL     1      47.475   5.882  14.813  0.00  0.00    +0.000 NA
ATOM     21  C   UNL     1      47.135   5.161  13.718  0.00  0.00    +0.000 A 
ATOM     22  C   UNL     1      47.113   3.769  13.721  0.00  0.00    +0.000 A 
ATOM     23  N   UNL     1      47.471   3.021  14.795  0.00  0.00    +0.000 NA
BRANCH  18  25
ATOM     24  N   UNL     1      47.733   3.305  18.263  0.00  0.00    +0.000 N 
ATOM     25  C   UNL     1      48.334   2.999  17.072  0.00  0.00    +0.000 C 
ATOM     26  O   UNL     1      49.206   2.139  16.985  0.00  0.00    +0.000 OA
ATOM     27  H   UNL     1      47.976   2.785  19.095  0.00  0.00    +0.000 HD
ATOM     28  H   UNL     1      46.986   3.991  18.294  0.00  0.00    +0.000 HD
ENDBRANCH  18  25
ENDBRANCH  17  21
ENDBRANCH   1  17
TORSDOF 5
ENDMDL
MODEL 5
REMARK VINA RESULT:    -7.809      3.161      7.382
REMARK INTER + INTRA:          -9.986
REMARK INTER:                  -9.377
REMARK INTRA:                  -0.608
REMARK UNBOUND:                 0.106
REMARK  Name = 
REMARK  5 active torsions:
REMARK  status: ('A' for Active; 'I' for Inactive)
REMARK    1  A    between atoms: C_2  and  C_4
REMARK    2  A    between atoms: C_7  and  O_8
REMARK    3  A    between atoms: O_8  and  C_9
REMARK    4  A    between atoms: C_9  and  C_10
REMARK    5  A    between atoms: C_15  and  C_16
REMARK                            x       y       z     vdW  Elec       q    Type
REMARK                         _______ _______ _______ _____ _____    ______ ____
ROOT
ATOM      1  C   UNL     1      46.640   7.317  12.825  0.00  0.00    +0.000 C 
ATOM      2  C   UNL     1      46.815   8.589  11.997  0.00  0.00    +0.000 C 
ATOM      3  C   UNL     1      46.111   8.656  13.310  0.00  0.00    +0.000 C 
ENDROOT
BRANCH   1   4
ATOM      4  C   UNL     1      45.624   6.281  12.357  0.00  0.00    +0.000 A 
ATOM      5  C   UNL     1      44.373   6.195  12.972  0.00  0.00    +0.000 A 
ATOM      6  C   UNL     1      43.411   5.327  12.471  0.00  0.00    +0.000 A 
ATOM      7  C   UNL     1      43.714   4.563  11.357  0.00  0.00    +0.000 A 
ATOM      8  F   UNL     1      42.772   3.743  10.868  0.00  0.00    +0.000 F 
ATOM      9  C   UNL     1      44.975   4.663  10.772  0.00  0.00    +0.000 A 
ATOM     10  N   UNL     1      45.926   5.498  11.281  0.00  0.00    +0.000 NA
BRANCH   9  11
ATOM     11  C   UNL     1      45.367   3.918   9.563  0.00  0.00    +0.000 A 
ATOM     12  C   UNL     1      45.348   2.516   9.515  0.00  0.00    +0.000 A 
ATOM     13  C   UNL     1      45.733   1.838   8.358  0.00  0.00    +0.000 A 
ATOM     14  C   UNL     1      46.142   2.582   7.266  0.00  0.00    +0.000 A 
ATOM     15  N   UNL     1      46.188   3.929   7.259  0.00  0.00    +0.000 NA
ATOM     16  C   UNL     1      45.804   4.556   8.399  0.00  0.00    +0.000 A 
ENDBRANCH   9  11
ENDBRANCH   1   4
BRANCH   1  17
ATOM     17  O   UNL     1      47.930   6.827  13.266  0.00  0.00    +0.000 OA
BRANCH  17  21
ATOM     18  C   UNL     1      48.061   4.805  16.779  0.00  0.00    +0.000 A 
ATOM     19  C   UNL     1      47.436   4.230  15.679  0.00  0.00    +0.000 A 
ATOM     20  N   UNL     1      47.376   4.844  14.464  0.00  0.00    +0.000 NA
ATOM     21  C   UNL     1      47.977   6.055  14.408  0.00  0.00    +0.000 A 
ATOM     22  C   UNL     1      48.636   6.610  15.502  0.00  0.00    +0.000 A 
ATOM     23  N   UNL     1      48.691   6.012  16.719  0.00  0.00    +0.000 NA
BRANCH  18  25
ATOM     24  N   UNL     1      47.389   2.908  18.123  0.00  0.00    +0.000 N 
ATOM     25  C   UNL     1      48.000   4.133  18.104  0.00  0.00    +0.000 C 
ATOM     26  O   UNL     1      48.492   4.629  19.113  0.00  0.00    +0.000 OA
ATOM     27  H   UNL     1      47.372   2.369  18.978  0.00  0.00    +0.000 HD
ATOM     28  H   UNL     1      47.030   2.507  17.262  0.00  0.00    +0.000 HD
ENDBRANCH  18  25
ENDBRANCH  17  21
ENDBRANCH   1  17
TORSDOF 5
ENDMDL
MODEL 6
REMARK VINA RESULT:    -7.679      3.064      7.137
REMARK INTER + INTRA:          -9.817
REMARK INTER:                  -9.308
REMARK INTRA:                  -0.509
REMARK UNBOUND:                 0.106
REMARK  Name = 
REMARK  5 active torsions:
REMARK  status: ('A' for Active; 'I' for Inactive)
REMARK    1  A    between atoms: C_2  and  C_4
REMARK    2  A    between atoms: C_7  and  O_8
REMARK    3  A    between atoms: O_8  and  C_9
REMARK    4  A    between atoms: C_9  and  C_10
REMARK    5  A    between atoms: C_15  and  C_16
REMARK                            x       y       z     vdW  Elec       q    Type
REMARK                         _______ _______ _______ _____ _____    ______ ____
ROOT
ATOM      1  C   UNL     1      47.942   7.491  12.643  0.00  0.00    +0.000 C 
ATOM      2  C   UNL     1      48.794   8.384  11.742  0.00  0.00    +0.000 C 
ATOM      3  C   UNL     1      48.261   8.927  13.025  0.00  0.00    +0.000 C 
ENDROOT
BRANCH   1   4
ATOM      4  C   UNL     1      46.516   7.173  12.210  0.00  0.00    +0.000 A 
ATOM      5  C   UNL     1      45.484   8.079  12.467  0.00  0.00    +0.000 A 
ATOM      6  C   UNL     1      44.208   7.837  11.974  0.00  0.00    +0.000 A 
ATOM      7  C   UNL     1      43.986   6.695  11.223  0.00  0.00    +0.000 A 
ATOM      8  F   UNL     1      42.756   6.480  10.733  0.00  0.00    +0.000 F 
ATOM      9  C   UNL     1      45.033   5.805  10.992  0.00  0.00    +0.000 A 
ATOM     10  N   UNL     1      46.279   6.032  11.499  0.00  0.00    +0.000 NA
BRANCH   9  11
ATOM     11  C   UNL     1      44.895   4.589  10.172  0.00  0.00    +0.000 A 
ATOM     12  C   UNL     1      45.410   4.509   8.869  0.00  0.00    +0.000 A 
ATOM     13  C   UNL     1      45.256   3.347   8.112  0.00  0.00    +0.000 A 
ATOM     14  C   UNL     1      44.576   2.283   8.675  0.00  0.00    +0.000 A 
ATOM     15  N   UNL     1      44.053   2.307   9.917  0.00  0.00    +0.000 NA
ATOM     16  C   UNL     1      44.224   3.451  10.626  0.00  0.00    +0.000 A 
ENDBRANCH   9  11
ENDBRANCH   1   4
BRANCH   1  17
ATOM     17  O   UNL     1      48.738   6.395  13.155  0.00  0.00    +0.000 OA
BRANCH  17  21
ATOM     18  C   UNL     1      47.607   4.487  16.551  0.00  0.00    +0.000 A 
ATOM     19  C   UNL     1      48.567   5.490  16.614  0.00  0.00    +0.000 A 
ATOM     20  N   UNL     1      48.976   6.187  15.516  0.00  0.00    +0.000 NA
ATOM     21  C   UNL     1      48.371   5.831  14.359  0.00  0.00    +0.000 A 
ATOM     22  C   UNL     1      47.382   4.852  14.307  0.00  0.00    +0.000 A 
ATOM     23  N   UNL     1      46.976   4.145  15.392  0.00  0.00    +0.000 NA
BRANCH  18  25
ATOM     24  N   UNL     1      47.860   4.121  18.929  0.00  0.00    +0.000 N 
ATOM     25  C   UNL     1      47.282   3.692  17.765  0.00  0.00    +0.000 C 
ATOM     26  O   UNL     1      46.521   2.730  17.733  0.00  0.00    +0.000 OA
ATOM     27  H   UNL     1      47.629   3.665  19.801  0.00  0.00    +0.000 HD
ATOM     28  H   UNL     1      48.452   4.945  18.929  0.00  0.00    +0.000 HD
ENDBRANCH  18  25
ENDBRANCH  17  21
ENDBRANCH   1  17
TORSDOF 5
ENDMDL
MODEL 7
REMARK VINA RESULT:    -7.199      2.954      4.675
REMARK INTER + INTRA:          -9.197
REMARK INTER:                  -8.610
REMARK INTRA:                  -0.587
REMARK UNBOUND:                 0.106
REMARK  Name = 
REMARK  5 active torsions:
REMARK  status: ('A' for Active; 'I' for Inactive)
REMARK    1  A    between atoms: C_2  and  C_4
REMARK    2  A    between atoms: C_7  and  O_8
REMARK    3  A    between atoms: O_8  and  C_9
REMARK    4  A    between atoms: C_9  and  C_10
REMARK    5  A    between atoms: C_15  and  C_16
REMARK                            x       y       z     vdW  Elec       q    Type
REMARK                         _______ _______ _______ _____ _____    ______ ____
ROOT
ATOM      1  C   UNL     1      47.677   7.756  13.029  0.00  0.00    +0.000 C 
ATOM      2  C   UNL     1      48.222   8.819  12.076  0.00  0.00    +0.000 C 
ATOM      3  C   UNL     1      48.633   7.395  11.904  0.00  0.00    +0.000 C 
ENDROOT
BRANCH   1   4
ATOM      4  C   UNL     1      48.212   7.715  14.454  0.00  0.00    +0.000 A 
ATOM      5  C   UNL     1      48.210   8.871  15.240  0.00  0.00    +0.000 A 
ATOM      6  C   UNL     1      48.594   8.805  16.573  0.00  0.00    +0.000 A 
ATOM      7  C   UNL     1      48.969   7.582  17.103  0.00  0.00    +0.000 A 
ATOM      8  F   UNL     1      49.319   7.525  18.396  0.00  0.00    +0.000 F 
ATOM      9  C   UNL     1      48.972   6.449  16.291  0.00  0.00    +0.000 A 
ATOM     10  N   UNL     1      48.617   6.521  14.976  0.00  0.00    +0.000 NA
BRANCH   9  11
ATOM     11  C   UNL     1      49.316   5.104  16.782  0.00  0.00    +0.000 A 
ATOM     12  C   UNL     1      50.592   4.799  17.280  0.00  0.00    +0.000 A 
ATOM     13  C   UNL     1      50.892   3.512  17.730  0.00  0.00    +0.000 A 
ATOM     14  C   UNL     1      49.904   2.547  17.664  0.00  0.00    +0.000 A 
ATOM     15  N   UNL     1      48.665   2.781  17.188  0.00  0.00    +0.000 NA
ATOM     16  C   UNL     1      48.407   4.043  16.761  0.00  0.00    +0.000 A 
ENDBRANCH   9  11
ENDBRANCH   1   4
BRANCH   1  17
ATOM     17  O   UNL     1      46.245   7.617  12.855  0.00  0.00    +0.000 OA
BRANCH  17  21
ATOM     18  C   UNL     1      44.681   4.095  11.592  0.00  0.00    +0.000 A 
ATOM     19  C   UNL     1      44.962   5.093  10.666  0.00  0.00    +0.000 A 
ATOM     20  N   UNL     1      45.509   6.290  11.019  0.00  0.00    +0.000 NA
ATOM     21  C   UNL     1      45.763   6.431  12.341  0.00  0.00    +0.000 A 
ATOM     22  C   UNL     1      45.516   5.414  13.259  0.00  0.00    +0.000 A 
ATOM     23  N   UNL     1      44.961   4.224  12.919  0.00  0.00    +0.000 NA
BRANCH  18  25
ATOM     24  N   UNL     1      44.520   2.222  10.068  0.00  0.00    +0.000 N 
ATOM     25  C   UNL     1      43.985   2.854  11.158  0.00  0.00    +0.000 C 
ATOM     26  O   UNL     1      43.012   2.406  11.756  0.00  0.00    +0.000 OA
ATOM     27  H   UNL     1      44.135   1.339   9.762  0.00  0.00    +0.000 HD
ATOM     28  H   UNL     1      45.351   2.596   9.621  0.00  0.00    +0.000 HD
ENDBRANCH  18  25
ENDBRANCH  17  21
ENDBRANCH   1  17
TORSDOF 5
ENDMDL
MODEL 8
REMARK VINA RESULT:    -7.065      4.248      6.580
REMARK INTER + INTRA:          -9.023
REMARK INTER:                  -9.036
REMARK INTRA:                   0.013
REMARK UNBOUND:                 0.106
REMARK  Name = 
REMARK  5 active torsions:
REMARK  status: ('A' for Active; 'I' for Inactive)
REMARK    1  A    between atoms: C_2  and  C_4
REMARK    2  A    between atoms: C_7  and  O_8
REMARK    3  A    between atoms: O_8  and  C_9
REMARK    4  A    between atoms: C_9  and  C_10
REMARK    5  A    between atoms: C_15  and  C_16
REMARK                            x       y       z     vdW  Elec       q    Type
REMARK                         _______ _______ _______ _____ _____    ______ ____
ROOT
ATOM      1  C   UNL     1      49.382   7.269  15.138  0.00  0.00    +0.000 C 
ATOM      2  C   UNL     1      48.876   8.711  15.171  0.00  0.00    +0.000 C 
ATOM      3  C   UNL     1      50.343   8.445  15.144  0.00  0.00    +0.000 C 
ENDROOT
BRANCH   1   4
ATOM      4  C   UNL     1      49.276   6.434  16.408  0.00  0.00    +0.000 A 
ATOM      5  C   UNL     1      48.284   6.712  17.353  0.00  0.00    +0.000 A 
ATOM      6  C   UNL     1      48.120   5.880  18.453  0.00  0.00    +0.000 A 
ATOM      7  C   UNL     1      48.947   4.778  18.588  0.00  0.00    +0.000 A 
ATOM      8  F   UNL     1      48.768   3.969  19.643  0.00  0.00    +0.000 F 
ATOM      9  C   UNL     1      49.934   4.533  17.635  0.00  0.00    +0.000 A 
ATOM     10  N   UNL     1      50.109   5.365  16.569  0.00  0.00    +0.000 NA
BRANCH   9  11
ATOM     11  C   UNL     1      50.829   3.363  17.680  0.00  0.00    +0.000 A 
ATOM     12  C   UNL     1      52.145   3.452  18.159  0.00  0.00    +0.000 A 
ATOM     13  C   UNL     1      52.972   2.329  18.181  0.00  0.00    +0.000 A 
ATOM     14  C   UNL     1      52.465   1.131  17.711  0.00  0.00    +0.000 A 
ATOM     15  N   UNL     1      51.213   0.990  17.232  0.00  0.00    +0.000 NA
ATOM     16  C   UNL     1      50.435   2.102  17.228  0.00  0.00    +0.000 A 
ENDBRANCH   9  11
ENDBRANCH   1   4
BRANCH   1  17
ATOM     17  O   UNL     1      48.998   6.633  13.894  0.00  0.00    +0.000 OA
BRANCH  17  21
ATOM     18  C   UNL     1      45.250   5.172  13.386  0.00  0.00    +0.000 A 
ATOM     19  C   UNL     1      46.214   4.387  14.006  0.00  0.00    +0.000 A 
ATOM     20  N   UNL     1      47.486   4.824  14.229  0.00  0.00    +0.000 NA
ATOM     21  C   UNL     1      47.736   6.085  13.805  0.00  0.00    +0.000 A 
ATOM     22  C   UNL     1      46.756   6.882  13.220  0.00  0.00    +0.000 A 
ATOM     23  N   UNL     1      45.491   6.452  12.983  0.00  0.00    +0.000 NA
BRANCH  18  25
ATOM     24  N   UNL     1      42.903   5.507  12.896  0.00  0.00    +0.000 N 
ATOM     25  C   UNL     1      43.913   4.600  13.075  0.00  0.00    +0.000 C 
ATOM     26  O   UNL     1      43.729   3.392  12.957  0.00  0.00    +0.000 OA
ATOM     27  H   UNL     1      41.986   5.188  12.618  0.00  0.00    +0.000 HD
ATOM     28  H   UNL     1      43.098   6.501  12.960  0.00  0.00    +0.000 HD
ENDBRANCH  18  25
ENDBRANCH  17  21
ENDBRANCH   1  17
TORSDOF 5
ENDMDL
MODEL 9
REMARK VINA RESULT:    -6.784      2.404      4.328
REMARK INTER + INTRA:          -8.660
REMARK INTER:                  -9.245
REMARK INTRA:                   0.585
REMARK UNBOUND:                 0.106
REMARK  Name = 
REMARK  5 active torsions:
REMARK  status: ('A' for Active; 'I' for Inactive)
REMARK    1  A    between atoms: C_2  and  C_4
REMARK    2  A    between atoms: C_7  and  O_8
REMARK    3  A    between atoms: O_8  and  C_9
REMARK    4  A    between atoms: C_9  and  C_10
REMARK    5  A    between atoms: C_15  and  C_16
REMARK                            x       y       z     vdW  Elec       q    Type
REMARK                         _______ _______ _______ _____ _____    ______ ____
ROOT
ATOM      1  C   UNL     1      43.968   4.266  11.834  0.00  0.00    +0.000 C 
ATOM      2  C   UNL     1      44.191   2.910  12.502  0.00  0.00    +0.000 C 
ATOM      3  C   UNL     1      43.083   3.790  12.974  0.00  0.00    +0.000 C 
ENDROOT
BRANCH   1   4
ATOM      4  C   UNL     1      44.956   5.389  12.125  0.00  0.00    +0.000 A 
ATOM      5  C   UNL     1      46.243   5.094  12.581  0.00  0.00    +0.000 A 
ATOM      6  C   UNL     1      47.174   6.112  12.738  0.00  0.00    +0.000 A 
ATOM      7  C   UNL     1      46.806   7.410  12.430  0.00  0.00    +0.000 A 
ATOM      8  F   UNL     1      47.719   8.384  12.564  0.00  0.00    +0.000 F 
ATOM      9  C   UNL     1      45.511   7.675  11.987  0.00  0.00    +0.000 A 
ATOM     10  N   UNL     1      44.591   6.677  11.857  0.00  0.00    +0.000 NA
BRANCH   9  11
ATOM     11  C   UNL     1      45.048   9.018  11.598  0.00  0.00    +0.000 A 
ATOM     12  C   UNL     1      45.812  10.168  11.849  0.00  0.00    +0.000 A 
ATOM     13  C   UNL     1      45.344  11.429  11.477  0.00  0.00    +0.000 A 
ATOM     14  C   UNL     1      44.106  11.516  10.866  0.00  0.00    +0.000 A 
ATOM     15  N   UNL     1      43.327  10.447  10.609  0.00  0.00    +0.000 NA
ATOM     16  C   UNL     1      43.814   9.236  10.981  0.00  0.00    +0.000 A 
ENDBRANCH   9  11
ENDBRANCH   1   4
BRANCH   1  17
ATOM     17  O   UNL     1      43.561   4.083  10.456  0.00  0.00    +0.000 OA
BRANCH  17  21
ATOM     18  C   UNL     1      46.262   2.830   7.703  0.00  0.00    +0.000 A 
ATOM     19  C   UNL     1      45.964   4.184   7.806  0.00  0.00    +0.000 A 
ATOM     20  N   UNL     1      45.084   4.675   8.724  0.00  0.00    +0.000 NA
ATOM     21  C   UNL     1      44.526   3.744   9.532  0.00  0.00    +0.000 A 
ATOM     22  C   UNL     1      44.857   2.393   9.450  0.00  0.00    +0.000 A 
ATOM     23  N   UNL     1      45.723   1.894   8.533  0.00  0.00    +0.000 NA
BRANCH  18  25
ATOM     24  N   UNL     1      47.829   1.186   6.868  0.00  0.00    +0.000 N 
ATOM     25  C   UNL     1      47.148   2.345   6.612  0.00  0.00    +0.000 C 
ATOM     26  O   UNL     1      47.243   2.930   5.536  0.00  0.00    +0.000 OA
ATOM     27  H   UNL     1      48.397   0.768   6.145  0.00  0.00    +0.000 HD
ATOM     28  H   UNL     1      47.697   0.705   7.752  0.00  0.00    +0.000 HD
ENDBRANCH  18  25
ENDBRANCH  17  21
ENDBRANCH   1  17
TORSDOF 5
ENDMDL
