MODEL 1
REMARK VINA RESULT:    -8.034      0.000      0.000
REMARK INTER + INTRA:         -11.989
REMARK INTER:                 -10.851
REMARK INTRA:                  -1.138
REMARK UNBOUND:                -1.138
REMARK  Name = 
REMARK  7 active torsions:
REMARK  status: ('A' for Active; 'I' for Inactive)
REMARK    1  A    between atoms: C_1  and  C_2
REMARK    2  A    between atoms: C_2  and  N_3
REMARK    3  A    between atoms: C_2  and  C_16
REMARK    4  A    between atoms: C_4  and  C_6
REMARK    5  A    between atoms: C_19  and  C_20
REMARK    6  A    between atoms: C_20  and  N_21
REMARK    7  A    between atoms: C_22  and  C_24
REMARK                            x       y       z     vdW  Elec       q    Type
REMARK                         _______ _______ _______ _____ _____    ______ ____
ROOT
ATOM      1  C   UNL     1      47.210   4.023  16.125  0.00  0.00    +0.000 C 
ATOM      2  C   UNL     1      47.626   4.894  14.936  0.00  0.00    +0.000 C 
ENDROOT
BRANCH   2   3
ATOM      3  C   UNL     1      46.699   4.789  13.735  0.00  0.00    +0.000 A 
ATOM      4  C   UNL     1      46.314   5.959  13.059  0.00  0.00    +0.000 A 
ATOM      5  C   UNL     1      45.458   5.905  11.954  0.00  0.00    +0.000 A 
ATOM      6  C   UNL     1      44.950   4.679  11.508  0.00  0.00    +0.000 A 
ATOM      7  C   UNL     1      45.319   3.512  12.185  0.00  0.00    +0.000 A 
ATOM      8  C   UNL     1      46.171   3.568  13.293  0.00  0.00    +0.000 A 
BRANCH   6   9
ATOM      9  C   UNL     1      44.033   4.607  10.317  0.00  0.00    +0.000 C 
BRANCH   9  10
ATOM     10  N   UNL     1      44.554   3.753   9.284  0.00  0.00    +0.000 N 
ATOM     11  C   UNL     1      45.585   4.161   8.471  0.00  0.00    +0.000 C 
ATOM     12  O   UNL     1      46.064   5.290   8.509  0.00  0.00    +0.000 OA
ATOM     13  H   UNL     1      44.315   2.765   9.247  0.00  0.00    +0.000 HD
BRANCH  11  14
ATOM     14  C   UNL     1      46.044   3.116   7.447  0.00  0.00    +0.000 C 
ATOM     15  C   UNL     1      46.290   1.765   8.088  0.00  0.00    +0.000 C 
ATOM     16  C   UNL     1      47.166   1.065   7.068  0.00  0.00    +0.000 C 
ATOM     17  C   UNL     1      47.932   2.187   6.380  0.00  0.00    +0.000 C 
ATOM     18  N   UNL     1      47.376   3.448   6.881  0.00  0.00    +0.000 NA
ATOM     19  H   UNL     1      47.264   4.115   6.118  0.00  0.00    +0.000 HD
ENDBRANCH  11  14
ENDBRANCH   9  10
ENDBRANCH   6   9
ENDBRANCH   2   3
BRANCH   2  20
ATOM     20  N   UNL     1      47.723   6.282  15.343  0.00  0.00    +0.000 N 
ATOM     21  C   UNL     1      48.910   6.858  15.722  0.00  0.00    +0.000 C 
ATOM     22  O   UNL     1      49.980   6.264  15.653  0.00  0.00    +0.000 OA
ATOM     23  H   UNL     1      46.852   6.742  15.579  0.00  0.00    +0.000 HD
BRANCH  21  24
ATOM     24  C   UNL     1      48.839   8.257  16.163  0.00  0.00    +0.000 A 
ATOM     25  C   UNL     1      49.338   9.262  15.348  0.00  0.00    +0.000 A 
ATOM     26  S   UNL     1      49.154  10.826  16.002  0.00  0.00    +0.000 S 
ATOM     27  C   UNL     1      48.448  10.208  17.421  0.00  0.00    +0.000 A 
ATOM     28  N   UNL     1      48.078  11.035  18.435  0.00  0.00    +0.000 NA
ATOM     29  C   UNL     1      47.595  10.430  19.468  0.00  0.00    +0.000 A 
ATOM     30  N   UNL     1      47.438   9.072  19.575  0.00  0.00    +0.000 N 
ATOM     31  C   UNL     1      47.751   8.201  18.558  0.00  0.00    +0.000 A 
ATOM     32  O   UNL     1      47.524   6.999  18.655  0.00  0.00    +0.000 OA
ATOM     33  C   UNL     1      48.328   8.831  17.385  0.00  0.00    +0.000 A 
ATOM     34  H   UNL     1      47.034   8.663  20.404  0.00  0.00    +0.000 HD
ENDBRANCH  21  24
ENDBRANCH   2  20
TORSDOF 6
ENDMDL
MODEL 2
REMARK VINA RESULT:    -7.853      1.513      2.375
REMARK INTER + INTRA:         -11.745
REMARK INTER:                 -10.548
REMARK INTRA:                  -1.197
REMARK UNBOUND:                -1.138
REMARK  Name = 
REMARK  7 active torsions:
REMARK  status: ('A' for Active; 'I' for Inactive)
REMARK    1  A    between atoms: C_1  and  C_2
REMARK    2  A    between atoms: C_2  and  N_3
REMARK    3  A    between atoms: C_2  and  C_16
REMARK    4  A    between atoms: C_4  and  C_6
REMARK    5  A    between atoms: C_19  and  C_20
REMARK    6  A    between atoms: C_20  and  N_21
REMARK    7  A    between atoms: C_22  and  C_24
REMARK                            x       y       z     vdW  Elec       q    Type
REMARK                         _______ _______ _______ _____ _____    ______ ____
ROOT
ATOM      1  C   UNL     1      47.017   3.909  16.295  0.00  0.00    +0.000 C 
ATOM      2  C   UNL     1      47.559   4.657  15.073  0.00  0.00    +0.000 C 
ENDROOT
BRANCH   2   3
ATOM      3  C   UNL     1      46.629   4.635  13.869  0.00  0.00    +0.000 A 
ATOM      4  C   UNL     1      46.252   3.401  13.315  0.00  0.00    +0.000 A 
ATOM      5  C   UNL     1      45.404   3.338  12.204  0.00  0.00    +0.000 A 
ATOM      6  C   UNL     1      44.925   4.511  11.608  0.00  0.00    +0.000 A 
ATOM      7  C   UNL     1      45.308   5.744  12.148  0.00  0.00    +0.000 A 
ATOM      8  C   UNL     1      46.160   5.805  13.255  0.00  0.00    +0.000 A 
BRANCH   6   9
ATOM      9  C   UNL     1      44.008   4.456  10.417  0.00  0.00    +0.000 C 
BRANCH   9  10
ATOM     10  N   UNL     1      44.542   3.640   9.360  0.00  0.00    +0.000 N 
ATOM     11  C   UNL     1      45.535   4.104   8.530  0.00  0.00    +0.000 C 
ATOM     12  O   UNL     1      45.964   5.253   8.574  0.00  0.00    +0.000 OA
ATOM     13  H   UNL     1      44.345   2.643   9.314  0.00  0.00    +0.000 HD
BRANCH  11  14
ATOM     14  C   UNL     1      46.015   3.095   7.481  0.00  0.00    +0.000 C 
ATOM     15  C   UNL     1      46.299   1.737   8.090  0.00  0.00    +0.000 C 
ATOM     16  C   UNL     1      47.188   1.083   7.050  0.00  0.00    +0.000 C 
ATOM     17  C   UNL     1      47.921   2.240   6.384  0.00  0.00    +0.000 C 
ATOM     18  N   UNL     1      47.335   3.474   6.917  0.00  0.00    +0.000 NA
ATOM     19  H   UNL     1      47.201   4.156   6.169  0.00  0.00    +0.000 HD
ENDBRANCH  11  14
ENDBRANCH   9  10
ENDBRANCH   6   9
ENDBRANCH   2   3
BRANCH   2  20
ATOM     20  N   UNL     1      47.855   6.034  15.420  0.00  0.00    +0.000 N 
ATOM     21  C   UNL     1      48.986   6.392  16.111  0.00  0.00    +0.000 C 
ATOM     22  O   UNL     1      49.865   5.587  16.398  0.00  0.00    +0.000 OA
ATOM     23  H   UNL     1      47.084   6.688  15.360  0.00  0.00    +0.000 HD
BRANCH  21  24
ATOM     24  C   UNL     1      49.119   7.817  16.440  0.00  0.00    +0.000 A 
ATOM     25  C   UNL     1      49.295   8.205  17.761  0.00  0.00    +0.000 A 
ATOM     26  S   UNL     1      49.454   9.891  17.961  0.00  0.00    +0.000 S 
ATOM     27  C   UNL     1      49.241  10.164  16.295  0.00  0.00    +0.000 A 
ATOM     28  N   UNL     1      49.233  11.426  15.789  0.00  0.00    +0.000 NA
ATOM     29  C   UNL     1      49.020  11.490  14.517  0.00  0.00    +0.000 A 
ATOM     30  N   UNL     1      48.824  10.404  13.704  0.00  0.00    +0.000 N 
ATOM     31  C   UNL     1      48.873   9.108  14.161  0.00  0.00    +0.000 A 
ATOM     32  O   UNL     1      48.773   8.156  13.393  0.00  0.00    +0.000 OA
ATOM     33  C   UNL     1      49.079   8.984  15.592  0.00  0.00    +0.000 A 
ATOM     34  H   UNL     1      48.682  10.522  12.711  0.00  0.00    +0.000 HD
ENDBRANCH  21  24
ENDBRANCH   2  20
TORSDOF 6
ENDMDL
MODEL 3
REMARK VINA RESULT:    -7.788      2.605      3.830
REMARK INTER + INTRA:         -11.657
REMARK INTER:                 -10.417
REMARK INTRA:                  -1.240
REMARK UNBOUND:                -1.138
REMARK  Name = 
REMARK  7 active torsions:
REMARK  status: ('A' for Active; 'I' for Inactive)
REMARK    1  A    between atoms: C_1  and  C_2
REMARK    2  A    between atoms: C_2  and  N_3
REMARK    3  A    between atoms: C_2  and  C_16
REMARK    4  A    between atoms: C_4  and  C_6
REMARK    5  A    between atoms: C_19  and  C_20
REMARK    6  A    between atoms: C_20  and  N_21
REMARK    7  A    between atoms: C_22  and  C_24
REMARK                            x       y       z     vdW  Elec       q    Type
REMARK                         _______ _______ _______ _____ _____    ______ ____
ROOT
ATOM      1  C   UNL     1      48.458   9.139  13.239  0.00  0.00    +0.000 C 
ATOM      2  C   UNL     1      47.570   8.170  14.026  0.00  0.00    +0.000 C 
ENDROOT
BRANCH   2   3
ATOM      3  C   UNL     1      46.565   7.414  13.170  0.00  0.00    +0.000 A 
ATOM      4  C   UNL     1      45.609   8.135  12.435  0.00  0.00    +0.000 A 
ATOM      5  C   UNL     1      44.663   7.477  11.641  0.00  0.00    +0.000 A 
ATOM      6  C   UNL     1      44.640   6.079  11.576  0.00  0.00    +0.000 A 
ATOM      7  C   UNL     1      45.581   5.355  12.316  0.00  0.00    +0.000 A 
ATOM      8  C   UNL     1      46.522   6.014  13.114  0.00  0.00    +0.000 A 
BRANCH   6   9
ATOM      9  C   UNL     1      43.632   5.360  10.721  0.00  0.00    +0.000 C 
BRANCH   9  10
ATOM     10  N   UNL     1      44.235   4.766   9.557  0.00  0.00    +0.000 N 
ATOM     11  C   UNL     1      44.409   3.406   9.458  0.00  0.00    +0.000 C 
ATOM     12  O   UNL     1      44.151   2.627  10.370  0.00  0.00    +0.000 OA
ATOM     13  H   UNL     1      44.372   5.302   8.704  0.00  0.00    +0.000 HD
BRANCH  11  14
ATOM     14  C   UNL     1      45.033   2.936   8.138  0.00  0.00    +0.000 C 
ATOM     15  C   UNL     1      46.038   1.822   8.352  0.00  0.00    +0.000 C 
ATOM     16  C   UNL     1      46.853   1.858   7.073  0.00  0.00    +0.000 C 
ATOM     17  C   UNL     1      46.798   3.311   6.619  0.00  0.00    +0.000 C 
ATOM     18  N   UNL     1      45.861   3.998   7.512  0.00  0.00    +0.000 NA
ATOM     19  H   UNL     1      45.259   4.627   6.980  0.00  0.00    +0.000 HD
ENDBRANCH  11  14
ENDBRANCH   9  10
ENDBRANCH   6   9
ENDBRANCH   2   3
BRANCH   2  20
ATOM     20  N   UNL     1      48.389   7.218  14.751  0.00  0.00    +0.000 N 
ATOM     21  C   UNL     1      48.871   7.471  16.011  0.00  0.00    +0.000 C 
ATOM     22  O   UNL     1      48.566   8.475  16.643  0.00  0.00    +0.000 OA
ATOM     23  H   UNL     1      48.801   6.472  14.203  0.00  0.00    +0.000 HD
BRANCH  21  24
ATOM     24  C   UNL     1      49.734   6.435  16.593  0.00  0.00    +0.000 A 
ATOM     25  C   UNL     1      51.045   6.741  16.932  0.00  0.00    +0.000 A 
ATOM     26  S   UNL     1      51.897   5.432  17.615  0.00  0.00    +0.000 S 
ATOM     27  C   UNL     1      50.560   4.396  17.433  0.00  0.00    +0.000 A 
ATOM     28  N   UNL     1      50.633   3.088  17.799  0.00  0.00    +0.000 NA
ATOM     29  C   UNL     1      49.561   2.408  17.567  0.00  0.00    +0.000 A 
ATOM     30  N   UNL     1      48.416   2.920  17.012  0.00  0.00    +0.000 N 
ATOM     31  C   UNL     1      48.278   4.246  16.673  0.00  0.00    +0.000 A 
ATOM     32  O   UNL     1      47.214   4.689  16.253  0.00  0.00    +0.000 OA
ATOM     33  C   UNL     1      49.469   5.047  16.885  0.00  0.00    +0.000 A 
ATOM     34  H   UNL     1      47.603   2.338  16.876  0.00  0.00    +0.000 HD
ENDBRANCH  21  24
ENDBRANCH   2  20
TORSDOF 6
ENDMDL
MODEL 4
REMARK VINA RESULT:    -7.424      2.239      3.309
REMARK INTER + INTRA:         -11.166
REMARK INTER:                 -10.124
REMARK INTRA:                  -1.041
REMARK UNBOUND:                -1.138
REMARK  Name = 
REMARK  7 active torsions:
REMARK  status: ('A' for Active; 'I' for Inactive)
REMARK    1  A    between atoms: C_1  and  C_2
REMARK    2  A    between atoms: C_2  and  N_3
REMARK    3  A    between atoms: C_2  and  C_16
REMARK    4  A    between atoms: C_4  and  C_6
REMARK    5  A    between atoms: C_19  and  C_20
REMARK    6  A    between atoms: C_20  and  N_21
REMARK    7  A    between atoms: C_22  and  C_24
REMARK                            x       y       z     vdW  Elec       q    Type
REMARK                         _______ _______ _______ _____ _____    ______ ____
ROOT
ATOM      1  C   UNL     1      49.243   8.416  13.073  0.00  0.00    +0.000 C 
ATOM      2  C   UNL     1      47.842   8.525  13.683  0.00  0.00    +0.000 C 
ENDROOT
BRANCH   2   3
ATOM      3  C   UNL     1      46.773   7.754  12.922  0.00  0.00    +0.000 A 
ATOM      4  C   UNL     1      47.007   6.412  12.580  0.00  0.00    +0.000 A 
ATOM      5  C   UNL     1      46.052   5.670  11.875  0.00  0.00    +0.000 A 
ATOM      6  C   UNL     1      44.845   6.259  11.481  0.00  0.00    +0.000 A 
ATOM      7  C   UNL     1      44.612   7.599  11.808  0.00  0.00    +0.000 A 
ATOM      8  C   UNL     1      45.570   8.341  12.507  0.00  0.00    +0.000 A 
BRANCH   6   9
ATOM      9  C   UNL     1      43.808   5.471  10.728  0.00  0.00    +0.000 C 
BRANCH   9  10
ATOM     10  N   UNL     1      44.355   4.831   9.562  0.00  0.00    +0.000 N 
ATOM     11  C   UNL     1      44.476   3.464   9.486  0.00  0.00    +0.000 C 
ATOM     12  O   UNL     1      44.214   2.713  10.421  0.00  0.00    +0.000 OA
ATOM     13  H   UNL     1      44.488   5.345   8.693  0.00  0.00    +0.000 HD
BRANCH  11  14
ATOM     14  C   UNL     1      45.043   2.945   8.160  0.00  0.00    +0.000 C 
ATOM     15  C   UNL     1      46.028   1.812   8.370  0.00  0.00    +0.000 C 
ATOM     16  C   UNL     1      46.801   1.794   7.065  0.00  0.00    +0.000 C 
ATOM     17  C   UNL     1      46.766   3.236   6.575  0.00  0.00    +0.000 C 
ATOM     18  N   UNL     1      45.875   3.969   7.479  0.00  0.00    +0.000 NA
ATOM     19  H   UNL     1      45.272   4.599   6.950  0.00  0.00    +0.000 HD
ENDBRANCH  11  14
ENDBRANCH   9  10
ENDBRANCH   6   9
ENDBRANCH   2   3
BRANCH   2  20
ATOM     20  N   UNL     1      47.860   8.079  15.062  0.00  0.00    +0.000 N 
ATOM     21  C   UNL     1      48.321   8.870  16.086  0.00  0.00    +0.000 C 
ATOM     22  O   UNL     1      48.660  10.035  15.916  0.00  0.00    +0.000 OA
ATOM     23  H   UNL     1      47.759   7.082  15.213  0.00  0.00    +0.000 HD
BRANCH  21  24
ATOM     24  C   UNL     1      48.331   8.258  17.421  0.00  0.00    +0.000 A 
ATOM     25  C   UNL     1      47.840   8.968  18.507  0.00  0.00    +0.000 A 
ATOM     26  S   UNL     1      47.905   8.102  19.974  0.00  0.00    +0.000 S 
ATOM     27  C   UNL     1      48.640   6.767  19.217  0.00  0.00    +0.000 A 
ATOM     28  N   UNL     1      49.001   5.669  19.932  0.00  0.00    +0.000 NA
ATOM     29  C   UNL     1      49.585   4.749  19.240  0.00  0.00    +0.000 A 
ATOM     30  N   UNL     1      49.832   4.824  17.893  0.00  0.00    +0.000 N 
ATOM     31  C   UNL     1      49.441   5.892  17.120  0.00  0.00    +0.000 A 
ATOM     32  O   UNL     1      49.605   5.893  15.904  0.00  0.00    +0.000 OA
ATOM     33  C   UNL     1      48.807   6.968  17.859  0.00  0.00    +0.000 A 
ATOM     34  H   UNL     1      50.275   4.059  17.406  0.00  0.00    +0.000 HD
ENDBRANCH  21  24
ENDBRANCH   2  20
TORSDOF 6
ENDMDL
MODEL 5
REMARK VINA RESULT:    -7.045      3.095      4.220
REMARK INTER + INTRA:         -10.653
REMARK INTER:                  -9.523
REMARK INTRA:                  -1.130
REMARK UNBOUND:                -1.138
REMARK  Name = 
REMARK  7 active torsions:
REMARK  status: ('A' for Active; 'I' for Inactive)
REMARK    1  A    between atoms: C_1  and  C_2
REMARK    2  A    between atoms: C_2  and  N_3
REMARK    3  A    between atoms: C_2  and  C_16
REMARK    4  A    between atoms: C_4  and  C_6
REMARK    5  A    between atoms: C_19  and  C_20
REMARK    6  A    between atoms: C_20  and  N_21
REMARK    7  A    between atoms: C_22  and  C_24
REMARK                            x       y       z     vdW  Elec       q    Type
REMARK                         _______ _______ _______ _____ _____    ______ ____
ROOT
ATOM      1  C   UNL     1      50.464   9.259  12.869  0.00  0.00    +0.000 C 
ATOM      2  C   UNL     1      49.426   8.682  13.837  0.00  0.00    +0.000 C 
ENDROOT
BRANCH   2   3
ATOM      3  C   UNL     1      48.171   8.156  13.159  0.00  0.00    +0.000 A 
ATOM      4  C   UNL     1      46.928   8.732  13.471  0.00  0.00    +0.000 A 
ATOM      5  C   UNL     1      45.749   8.272  12.873  0.00  0.00    +0.000 A 
ATOM      6  C   UNL     1      45.783   7.211  11.961  0.00  0.00    +0.000 A 
ATOM      7  C   UNL     1      47.016   6.624  11.656  0.00  0.00    +0.000 A 
ATOM      8  C   UNL     1      48.193   7.081  12.258  0.00  0.00    +0.000 A 
BRANCH   6   9
ATOM      9  C   UNL     1      44.524   6.711  11.307  0.00  0.00    +0.000 C 
BRANCH   9  10
ATOM     10  N   UNL     1      44.796   5.751  10.271  0.00  0.00    +0.000 N 
ATOM     11  C   UNL     1      44.049   4.603  10.144  0.00  0.00    +0.000 C 
ATOM     12  O   UNL     1      43.174   4.280  10.942  0.00  0.00    +0.000 OA
ATOM     13  H   UNL     1      45.412   5.976   9.493  0.00  0.00    +0.000 HD
BRANCH  11  14
ATOM     14  C   UNL     1      44.448   3.708   8.966  0.00  0.00    +0.000 C 
ATOM     15  C   UNL     1      45.130   2.435   9.428  0.00  0.00    +0.000 C 
ATOM     16  C   UNL     1      45.850   1.969   8.177  0.00  0.00    +0.000 C 
ATOM     17  C   UNL     1      46.160   3.248   7.409  0.00  0.00    +0.000 C 
ATOM     18  N   UNL     1      45.492   4.341   8.122  0.00  0.00    +0.000 NA
ATOM     19  H   UNL     1      45.051   4.980   7.460  0.00  0.00    +0.000 HD
ENDBRANCH  11  14
ENDBRANCH   9  10
ENDBRANCH   6   9
ENDBRANCH   2   3
BRANCH   2  20
ATOM     20  N   UNL     1      50.018   7.624  14.632  0.00  0.00    +0.000 N 
ATOM     21  C   UNL     1      50.594   7.856  15.857  0.00  0.00    +0.000 C 
ATOM     22  O   UNL     1      50.564   8.954  16.400  0.00  0.00    +0.000 OA
ATOM     23  H   UNL     1      50.217   6.757  14.148  0.00  0.00    +0.000 HD
BRANCH  21  24
ATOM     24  C   UNL     1      51.203   6.694  16.516  0.00  0.00    +0.000 A 
ATOM     25  C   UNL     1      52.569   6.678  16.760  0.00  0.00    +0.000 A 
ATOM     26  S   UNL     1      53.104   5.266  17.552  0.00  0.00    +0.000 S 
ATOM     27  C   UNL     1      51.537   4.604  17.549  0.00  0.00    +0.000 A 
ATOM     28  N   UNL     1      51.299   3.367  18.059  0.00  0.00    +0.000 NA
ATOM     29  C   UNL     1      50.074   2.972  17.955  0.00  0.00    +0.000 A 
ATOM     30  N   UNL     1      49.062   3.709  17.395  0.00  0.00    +0.000 N 
ATOM     31  C   UNL     1      49.244   4.983  16.912  0.00  0.00    +0.000 A 
ATOM     32  O   UNL     1      48.302   5.646  16.490  0.00  0.00    +0.000 OA
ATOM     33  C   UNL     1      50.613   5.460  16.978  0.00  0.00    +0.000 A 
ATOM     34  H   UNL     1      48.120   3.349  17.363  0.00  0.00    +0.000 HD
ENDBRANCH  21  24
ENDBRANCH   2  20
TORSDOF 6
ENDMDL
MODEL 6
REMARK VINA RESULT:    -7.008      2.848      3.798
REMARK INTER + INTRA:         -10.604
REMARK INTER:                  -9.394
REMARK INTRA:                  -1.211
REMARK UNBOUND:                -1.138
REMARK  Name = 
REMARK  7 active torsions:
REMARK  status: ('A' for Active; 'I' for Inactive)
REMARK    1  A    between atoms: C_1  and  C_2
REMARK    2  A    between atoms: C_2  and  N_3
REMARK    3  A    between atoms: C_2  and  C_16
REMARK    4  A    between atoms: C_4  and  C_6
REMARK    5  A    between atoms: C_19  and  C_20
REMARK    6  A    between atoms: C_20  and  N_21
REMARK    7  A    between atoms: C_22  and  C_24
REMARK                            x       y       z     vdW  Elec       q    Type
REMARK                         _______ _______ _______ _____ _____    ______ ____
ROOT
ATOM      1  C   UNL     1      49.302   7.897  12.985  0.00  0.00    +0.000 C 
ATOM      2  C   UNL     1      48.283   7.284  13.952  0.00  0.00    +0.000 C 
ENDROOT
BRANCH   2   3
ATOM      3  C   UNL     1      47.313   6.314  13.296  0.00  0.00    +0.000 A 
ATOM      4  C   UNL     1      46.618   6.711  12.142  0.00  0.00    +0.000 A 
ATOM      5  C   UNL     1      45.712   5.850  11.513  0.00  0.00    +0.000 A 
ATOM      6  C   UNL     1      45.465   4.574  12.034  0.00  0.00    +0.000 A 
ATOM      7  C   UNL     1      46.145   4.177  13.191  0.00  0.00    +0.000 A 
ATOM      8  C   UNL     1      47.046   5.042  13.821  0.00  0.00    +0.000 A 
BRANCH   6   9
ATOM      9  C   UNL     1      44.498   3.637  11.363  0.00  0.00    +0.000 C 
BRANCH   9  10
ATOM     10  N   UNL     1      45.068   3.014  10.198  0.00  0.00    +0.000 N 
ATOM     11  C   UNL     1      44.838   3.512   8.937  0.00  0.00    +0.000 C 
ATOM     12  O   UNL     1      44.076   4.448   8.713  0.00  0.00    +0.000 OA
ATOM     13  H   UNL     1      45.803   2.316  10.280  0.00  0.00    +0.000 HD
BRANCH  11  14
ATOM     14  C   UNL     1      45.548   2.753   7.811  0.00  0.00    +0.000 C 
ATOM     15  C   UNL     1      46.129   1.438   8.292  0.00  0.00    +0.000 C 
ATOM     16  C   UNL     1      47.155   1.114   7.225  0.00  0.00    +0.000 C 
ATOM     17  C   UNL     1      47.612   2.471   6.702  0.00  0.00    +0.000 C 
ATOM     18  N   UNL     1      46.753   3.478   7.333  0.00  0.00    +0.000 NA
ATOM     19  H   UNL     1      46.476   4.185   6.652  0.00  0.00    +0.000 HD
ENDBRANCH  11  14
ENDBRANCH   9  10
ENDBRANCH   6   9
ENDBRANCH   2   3
BRANCH   2  20
ATOM     20  N   UNL     1      48.967   6.612  15.040  0.00  0.00    +0.000 N 
ATOM     21  C   UNL     1      49.032   7.139  16.305  0.00  0.00    +0.000 C 
ATOM     22  O   UNL     1      48.440   8.164  16.623  0.00  0.00    +0.000 OA
ATOM     23  H   UNL     1      49.606   5.871  14.778  0.00  0.00    +0.000 HD
BRANCH  21  24
ATOM     24  C   UNL     1      49.810   6.370  17.286  0.00  0.00    +0.000 A 
ATOM     25  C   UNL     1      49.171   5.808  18.383  0.00  0.00    +0.000 A 
ATOM     26  S   UNL     1      50.216   4.932  19.406  0.00  0.00    +0.000 S 
ATOM     27  C   UNL     1      51.567   5.318  18.446  0.00  0.00    +0.000 A 
ATOM     28  N   UNL     1      52.813   4.896  18.792  0.00  0.00    +0.000 NA
ATOM     29  C   UNL     1      53.750   5.295  17.999  0.00  0.00    +0.000 A 
ATOM     30  N   UNL     1      53.553   6.070  16.885  0.00  0.00    +0.000 N 
ATOM     31  C   UNL     1      52.307   6.478  16.468  0.00  0.00    +0.000 A 
ATOM     32  O   UNL     1      52.157   7.102  15.423  0.00  0.00    +0.000 OA
ATOM     33  C   UNL     1      51.222   6.080  17.346  0.00  0.00    +0.000 A 
ATOM     34  H   UNL     1      54.329   6.331  16.294  0.00  0.00    +0.000 HD
ENDBRANCH  21  24
ENDBRANCH   2  20
TORSDOF 6
ENDMDL
MODEL 7
REMARK VINA RESULT:    -6.939      4.351      8.891
REMARK INTER + INTRA:         -10.511
REMARK INTER:                  -9.334
REMARK INTRA:                  -1.177
REMARK UNBOUND:                -1.138
REMARK  Name = 
REMARK  7 active torsions:
REMARK  status: ('A' for Active; 'I' for Inactive)
REMARK    1  A    between atoms: C_1  and  C_2
REMARK    2  A    between atoms: C_2  and  N_3
REMARK    3  A    between atoms: C_2  and  C_16
REMARK    4  A    between atoms: C_4  and  C_6
REMARK    5  A    between atoms: C_19  and  C_20
REMARK    6  A    between atoms: C_20  and  N_21
REMARK    7  A    between atoms: C_22  and  C_24
REMARK                            x       y       z     vdW  Elec       q    Type
REMARK                         _______ _______ _______ _____ _____    ______ ____
ROOT
ATOM      1  C   UNL     1      48.057   8.827  14.702  0.00  0.00    +0.000 C 
ATOM      2  C   UNL     1      48.261   7.352  14.342  0.00  0.00    +0.000 C 
ENDROOT
BRANCH   2   3
ATOM      3  C   UNL     1      48.708   6.484  15.509  0.00  0.00    +0.000 A 
ATOM      4  C   UNL     1      47.924   5.380  15.883  0.00  0.00    +0.000 A 
ATOM      5  C   UNL     1      48.298   4.561  16.955  0.00  0.00    +0.000 A 
ATOM      6  C   UNL     1      49.457   4.837  17.690  0.00  0.00    +0.000 A 
ATOM      7  C   UNL     1      50.235   5.943  17.329  0.00  0.00    +0.000 A 
ATOM      8  C   UNL     1      49.857   6.764  16.262  0.00  0.00    +0.000 A 
BRANCH   6   9
ATOM      9  C   UNL     1      49.872   3.961  18.840  0.00  0.00    +0.000 C 
BRANCH   9  10
ATOM     10  N   UNL     1      51.216   3.470  18.688  0.00  0.00    +0.000 N 
ATOM     11  C   UNL     1      51.516   2.473  17.790  0.00  0.00    +0.000 C 
ATOM     12  O   UNL     1      50.664   1.882  17.132  0.00  0.00    +0.000 OA
ATOM     13  H   UNL     1      52.007   3.967  19.091  0.00  0.00    +0.000 HD
BRANCH  11  14
ATOM     14  C   UNL     1      53.000   2.094  17.728  0.00  0.00    +0.000 C 
ATOM     15  C   UNL     1      53.198   0.639  17.352  0.00  0.00    +0.000 C 
ATOM     16  C   UNL     1      54.614   0.362  17.817  0.00  0.00    +0.000 C 
ATOM     17  C   UNL     1      54.825   1.302  18.997  0.00  0.00    +0.000 C 
ATOM     18  N   UNL     1      53.643   2.168  19.064  0.00  0.00    +0.000 NA
ATOM     19  H   UNL     1      53.919   3.132  19.255  0.00  0.00    +0.000 HD
ENDBRANCH  11  14
ENDBRANCH   9  10
ENDBRANCH   6   9
ENDBRANCH   2   3
BRANCH   2  20
ATOM     20  N   UNL     1      47.044   6.801  13.778  0.00  0.00    +0.000 N 
ATOM     21  C   UNL     1      46.812   6.760  12.426  0.00  0.00    +0.000 C 
ATOM     22  O   UNL     1      47.655   7.098  11.603  0.00  0.00    +0.000 OA
ATOM     23  H   UNL     1      46.268   6.681  14.418  0.00  0.00    +0.000 HD
BRANCH  21  24
ATOM     24  C   UNL     1      45.508   6.227  12.009  0.00  0.00    +0.000 A 
ATOM     25  C   UNL     1      44.557   7.079  11.466  0.00  0.00    +0.000 A 
ATOM     26  S   UNL     1      43.113   6.292  11.017  0.00  0.00    +0.000 S 
ATOM     27  C   UNL     1      43.689   4.794  11.581  0.00  0.00    +0.000 A 
ATOM     28  N   UNL     1      42.912   3.680  11.525  0.00  0.00    +0.000 NA
ATOM     29  C   UNL     1      43.458   2.623  12.025  0.00  0.00    +0.000 A 
ATOM     30  N   UNL     1      44.716   2.576  12.569  0.00  0.00    +0.000 N 
ATOM     31  C   UNL     1      45.556   3.664  12.603  0.00  0.00    +0.000 A 
ATOM     32  O   UNL     1      46.705   3.570  13.023  0.00  0.00    +0.000 OA
ATOM     33  C   UNL     1      44.976   4.887  12.080  0.00  0.00    +0.000 A 
ATOM     34  H   UNL     1      45.092   1.711  12.926  0.00  0.00    +0.000 HD
ENDBRANCH  21  24
ENDBRANCH   2  20
TORSDOF 6
ENDMDL
MODEL 8
REMARK VINA RESULT:    -6.828      5.956      9.566
REMARK INTER + INTRA:         -10.361
REMARK INTER:                  -9.413
REMARK INTRA:                  -0.949
REMARK UNBOUND:                -1.138
REMARK  Name = 
REMARK  7 active torsions:
REMARK  status: ('A' for Active; 'I' for Inactive)
REMARK    1  A    between atoms: C_1  and  C_2
REMARK    2  A    between atoms: C_2  and  N_3
REMARK    3  A    between atoms: C_2  and  C_16
REMARK    4  A    between atoms: C_4  and  C_6
REMARK    5  A    between atoms: C_19  and  C_20
REMARK    6  A    between atoms: C_20  and  N_21
REMARK    7  A    between atoms: C_22  and  C_24
REMARK                            x       y       z     vdW  Elec       q    Type
REMARK                         _______ _______ _______ _____ _____    ______ ____
ROOT
ATOM      1  C   UNL     1      47.864   4.912  19.022  0.00  0.00    +0.000 C 
ATOM      2  C   UNL     1      48.842   5.118  17.860  0.00  0.00    +0.000 C 
ENDROOT
BRANCH   2   3
ATOM      3  C   UNL     1      49.879   4.015  17.719  0.00  0.00    +0.000 A 
ATOM      4  C   UNL     1      51.219   4.287  18.041  0.00  0.00    +0.000 A 
ATOM      5  C   UNL     1      52.205   3.301  17.919  0.00  0.00    +0.000 A 
ATOM      6  C   UNL     1      51.877   2.022  17.455  0.00  0.00    +0.000 A 
ATOM      7  C   UNL     1      50.546   1.749  17.120  0.00  0.00    +0.000 A 
ATOM      8  C   UNL     1      49.563   2.737  17.238  0.00  0.00    +0.000 A 
BRANCH   6   9
ATOM      9  C   UNL     1      52.926   0.951  17.325  0.00  0.00    +0.000 C 
BRANCH   9  10
ATOM     10  N   UNL     1      52.702  -0.139  18.237  0.00  0.00    +0.000 N 
ATOM     11  C   UNL     1      53.714  -1.007  18.576  0.00  0.00    +0.000 C 
ATOM     12  O   UNL     1      54.831  -0.967  18.069  0.00  0.00    +0.000 OA
ATOM     13  H   UNL     1      51.857  -0.189  18.801  0.00  0.00    +0.000 HD
BRANCH  11  14
ATOM     14  C   UNL     1      53.316  -2.089  19.586  0.00  0.00    +0.000 C 
ATOM     15  C   UNL     1      54.524  -2.706  20.261  0.00  0.00    +0.000 C 
ATOM     16  C   UNL     1      53.976  -4.012  20.802  0.00  0.00    +0.000 C 
ATOM     17  C   UNL     1      52.856  -4.389  19.840  0.00  0.00    +0.000 C 
ATOM     18  N   UNL     1      52.690  -3.259  18.920  0.00  0.00    +0.000 NA
ATOM     19  H   UNL     1      51.699  -3.071  18.764  0.00  0.00    +0.000 HD
ENDBRANCH  11  14
ENDBRANCH   9  10
ENDBRANCH   6   9
ENDBRANCH   2   3
BRANCH   2  20
ATOM     20  N   UNL     1      48.115   5.250  16.612  0.00  0.00    +0.000 N 
ATOM     21  C   UNL     1      48.609   5.956  15.544  0.00  0.00    +0.000 C 
ATOM     22  O   UNL     1      49.734   6.443  15.540  0.00  0.00    +0.000 OA
ATOM     23  H   UNL     1      47.129   5.020  16.641  0.00  0.00    +0.000 HD
BRANCH  21  24
ATOM     24  C   UNL     1      47.732   6.050  14.370  0.00  0.00    +0.000 A 
ATOM     25  C   UNL     1      47.493   7.286  13.785  0.00  0.00    +0.000 A 
ATOM     26  S   UNL     1      46.474   7.210  12.421  0.00  0.00    +0.000 S 
ATOM     27  C   UNL     1      46.274   5.529  12.595  0.00  0.00    +0.000 A 
ATOM     28  N   UNL     1      45.472   4.829  11.750  0.00  0.00    +0.000 NA
ATOM     29  C   UNL     1      45.379   3.570  12.023  0.00  0.00    +0.000 A 
ATOM     30  N   UNL     1      46.024   2.946  13.059  0.00  0.00    +0.000 N 
ATOM     31  C   UNL     1      46.883   3.603  13.909  0.00  0.00    +0.000 A 
ATOM     32  O   UNL     1      47.507   3.000  14.776  0.00  0.00    +0.000 OA
ATOM     33  C   UNL     1      46.998   5.029  13.663  0.00  0.00    +0.000 A 
ATOM     34  H   UNL     1      45.924   1.953  13.206  0.00  0.00    +0.000 HD
ENDBRANCH  21  24
ENDBRANCH   2  20
TORSDOF 6
ENDMDL
MODEL 9
REMARK VINA RESULT:    -6.618      3.360      4.990
REMARK INTER + INTRA:         -10.078
REMARK INTER:                  -8.926
REMARK INTRA:                  -1.152
REMARK UNBOUND:                -1.138
REMARK  Name = 
REMARK  7 active torsions:
REMARK  status: ('A' for Active; 'I' for Inactive)
REMARK    1  A    between atoms: C_1  and  C_2
REMARK    2  A    between atoms: C_2  and  N_3
REMARK    3  A    between atoms: C_2  and  C_16
REMARK    4  A    between atoms: C_4  and  C_6
REMARK    5  A    between atoms: C_19  and  C_20
REMARK    6  A    between atoms: C_20  and  N_21
REMARK    7  A    between atoms: C_22  and  C_24
REMARK                            x       y       z     vdW  Elec       q    Type
REMARK                         _______ _______ _______ _____ _____    ______ ____
ROOT
ATOM      1  C   UNL     1      50.543   9.077  14.032  0.00  0.00    +0.000 C 
ATOM      2  C   UNL     1      49.371   8.433  14.779  0.00  0.00    +0.000 C 
ENDROOT
BRANCH   2   3
ATOM      3  C   UNL     1      48.126   8.236  13.927  0.00  0.00    +0.000 A 
ATOM      4  C   UNL     1      47.714   6.932  13.604  0.00  0.00    +0.000 A 
ATOM      5  C   UNL     1      46.578   6.709  12.818  0.00  0.00    +0.000 A 
ATOM      6  C   UNL     1      45.835   7.786  12.321  0.00  0.00    +0.000 A 
ATOM      7  C   UNL     1      46.248   9.087  12.629  0.00  0.00    +0.000 A 
ATOM      8  C   UNL     1      47.387   9.309  13.410  0.00  0.00    +0.000 A 
BRANCH   6   9
ATOM      9  C   UNL     1      44.608   7.559  11.480  0.00  0.00    +0.000 C 
BRANCH   9  10
ATOM     10  N   UNL     1      44.631   6.279  10.824  0.00  0.00    +0.000 N 
ATOM     11  C   UNL     1      43.555   5.425  10.885  0.00  0.00    +0.000 C 
ATOM     12  O   UNL     1      42.556   5.651  11.562  0.00  0.00    +0.000 OA
ATOM     13  H   UNL     1      45.352   6.048  10.145  0.00  0.00    +0.000 HD
BRANCH  11  14
ATOM     14  C   UNL     1      43.730   4.119  10.101  0.00  0.00    +0.000 C 
ATOM     15  C   UNL     1      44.889   3.296  10.626  0.00  0.00    +0.000 C 
ATOM     16  C   UNL     1      45.186   2.362   9.468  0.00  0.00    +0.000 C 
ATOM     17  C   UNL     1      44.775   3.142   8.226  0.00  0.00    +0.000 C 
ATOM     18  N   UNL     1      44.129   4.372   8.693  0.00  0.00    +0.000 NA
ATOM     19  H   UNL     1      43.297   4.570   8.136  0.00  0.00    +0.000 HD
ENDBRANCH  11  14
ENDBRANCH   9  10
ENDBRANCH   6   9
ENDBRANCH   2   3
BRANCH   2  20
ATOM     20  N   UNL     1      49.774   7.156  15.335  0.00  0.00    +0.000 N 
ATOM     21  C   UNL     1      49.414   6.756  16.598  0.00  0.00    +0.000 C 
ATOM     22  O   UNL     1      48.652   7.409  17.303  0.00  0.00    +0.000 OA
ATOM     23  H   UNL     1      50.535   6.681  14.863  0.00  0.00    +0.000 HD
BRANCH  21  24
ATOM     24  C   UNL     1      49.947   5.462  17.044  0.00  0.00    +0.000 A 
ATOM     25  C   UNL     1      49.076   4.422  17.336  0.00  0.00    +0.000 A 
ATOM     26  S   UNL     1      49.862   2.988  17.815  0.00  0.00    +0.000 S 
ATOM     27  C   UNL     1      51.392   3.723  17.699  0.00  0.00    +0.000 A 
ATOM     28  N   UNL     1      52.523   3.037  18.015  0.00  0.00    +0.000 NA
ATOM     29  C   UNL     1      53.610   3.728  17.922  0.00  0.00    +0.000 A 
ATOM     30  N   UNL     1      53.668   5.042  17.533  0.00  0.00    +0.000 N 
ATOM     31  C   UNL     1      52.558   5.761  17.157  0.00  0.00    +0.000 A 
ATOM     32  O   UNL     1      52.654   6.909  16.737  0.00  0.00    +0.000 OA
ATOM     33  C   UNL     1      51.306   5.036  17.274  0.00  0.00    +0.000 A 
ATOM     34  H   UNL     1      54.555   5.520  17.462  0.00  0.00    +0.000 HD
ENDBRANCH  21  24
ENDBRANCH   2  20
TORSDOF 6
ENDMDL
