MODEL 1
REMARK VINA RESULT:    -8.383      0.000      0.000
REMARK INTER + INTRA:         -12.859
REMARK INTER:                 -11.814
REMARK INTRA:                  -1.045
REMARK UNBOUND:                -1.045
REMARK  Name = 
REMARK  7 active torsions:
REMARK  status: ('A' for Active; 'I' for Inactive)
REMARK    1  A    between atoms: C_2  and  C_3
REMARK    2  A    between atoms: C_2  and  C_25
REMARK    3  A    between atoms: C_3  and  C_4
REMARK    4  A    between atoms: C_4  and  C_5
REMARK    5  A    between atoms: C_8  and  C_9
REMARK    6  A    between atoms: C_9  and  N_10
REMARK    7  A    between atoms: C_11  and  C_13
REMARK                            x       y       z     vdW  Elec       q    Type
REMARK                         _______ _______ _______ _____ _____    ______ ____
ROOT
ATOM      1  C   UNL     1      44.998   5.101  11.459  0.00  0.00    +0.000 A 
ATOM      2  C   UNL     1      45.778   6.005  10.747  0.00  0.00    +0.000 A 
ATOM      3  C   UNL     1      46.838   6.639  11.396  0.00  0.00    +0.000 A 
ATOM      4  C   UNL     1      47.107   6.346  12.734  0.00  0.00    +0.000 A 
ATOM      5  C   UNL     1      46.261   5.443  13.366  0.00  0.00    +0.000 A 
ATOM      6  N   UNL     1      45.224   4.818  12.763  0.00  0.00    +0.000 NA
ENDROOT
BRANCH   1   7
ATOM      7  C   UNL     1      43.859   4.368  10.793  0.00  0.00    +0.000 C 
BRANCH   7   8
ATOM      8  C   UNL     1      44.161   4.105   9.318  0.00  0.00    +0.000 C 
BRANCH   8  10
ATOM      9  O   UNL     1      44.225   1.728   9.716  0.00  0.00    +0.000 OA
ATOM     10  C   UNL     1      44.668   2.695   9.097  0.00  0.00    +0.000 C 
BRANCH  10  11
ATOM     11  C   UNL     1      45.755   2.477   8.103  0.00  0.00    +0.000 A 
ATOM     12  C   UNL     1      46.110   3.508   7.227  0.00  0.00    +0.000 A 
ATOM     13  C   UNL     1      47.129   3.305   6.298  0.00  0.00    +0.000 A 
ATOM     14  C   UNL     1      47.758   2.071   6.274  0.00  0.00    +0.000 A 
ATOM     15  N   UNL     1      47.440   1.051   7.100  0.00  0.00    +0.000 NA
ATOM     16  C   UNL     1      46.447   1.278   7.997  0.00  0.00    +0.000 A 
ENDBRANCH  10  11
ENDBRANCH   8  10
ENDBRANCH   7   8
ENDBRANCH   1   7
BRANCH   4  17
ATOM     17  C   UNL     1      48.235   6.990  13.479  0.00  0.00    +0.000 C 
BRANCH  17  18
ATOM     18  N   UNL     1      48.052   6.898  14.905  0.00  0.00    +0.000 N 
ATOM     19  C   UNL     1      49.128   6.748  15.746  0.00  0.00    +0.000 C 
ATOM     20  O   UNL     1      50.283   6.703  15.338  0.00  0.00    +0.000 OA
ATOM     21  H   UNL     1      47.110   6.759  15.259  0.00  0.00    +0.000 HD
BRANCH  19  22
ATOM     22  C   UNL     1      48.814   6.700  17.163  0.00  0.00    +0.000 A 
ATOM     23  C   UNL     1      48.381   7.800  17.885  0.00  0.00    +0.000 A 
ATOM     24  O   UNL     1      48.113   7.472  19.175  0.00  0.00    +0.000 OA
ATOM     25  C   UNL     1      48.399   6.149  19.324  0.00  0.00    +0.000 A 
ATOM     26  N   UNL     1      48.257   5.476  20.491  0.00  0.00    +0.000 NA
ATOM     27  C   UNL     1      48.632   4.240  20.419  0.00  0.00    +0.000 A 
ATOM     28  N   UNL     1      49.125   3.626  19.288  0.00  0.00    +0.000 N 
ATOM     29  C   UNL     1      49.234   4.267  18.073  0.00  0.00    +0.000 A 
ATOM     30  O   UNL     1      49.607   3.697  17.054  0.00  0.00    +0.000 OA
ATOM     31  C   UNL     1      48.846   5.649  18.117  0.00  0.00    +0.000 A 
ATOM     32  H   UNL     1      49.394   2.653  19.307  0.00  0.00    +0.000 HD
ENDBRANCH  19  22
ENDBRANCH  17  18
ENDBRANCH   4  17
TORSDOF 7
ENDMDL
MODEL 2
REMARK VINA RESULT:    -8.081      1.417      2.372
REMARK INTER + INTRA:         -12.433
REMARK INTER:                 -11.317
REMARK INTRA:                  -1.116
REMARK UNBOUND:                -1.045
REMARK  Name = 
REMARK  7 active torsions:
REMARK  status: ('A' for Active; 'I' for Inactive)
REMARK    1  A    between atoms: C_2  and  C_3
REMARK    2  A    between atoms: C_2  and  C_25
REMARK    3  A    between atoms: C_3  and  C_4
REMARK    4  A    between atoms: C_4  and  C_5
REMARK    5  A    between atoms: C_8  and  C_9
REMARK    6  A    between atoms: C_9  and  N_10
REMARK    7  A    between atoms: C_11  and  C_13
REMARK                            x       y       z     vdW  Elec       q    Type
REMARK                         _______ _______ _______ _____ _____    ______ ____
ROOT
ATOM      1  C   UNL     1      45.087   5.035  11.671  0.00  0.00    +0.000 A 
ATOM      2  C   UNL     1      45.407   4.422  12.877  0.00  0.00    +0.000 A 
ATOM      3  C   UNL     1      46.451   4.943  13.643  0.00  0.00    +0.000 A 
ATOM      4  C   UNL     1      47.141   6.071  13.198  0.00  0.00    +0.000 A 
ATOM      5  C   UNL     1      46.760   6.602  11.971  0.00  0.00    +0.000 A 
ATOM      6  N   UNL     1      45.757   6.115  11.207  0.00  0.00    +0.000 NA
ENDROOT
BRANCH   1   7
ATOM      7  C   UNL     1      43.948   4.526  10.822  0.00  0.00    +0.000 C 
BRANCH   7   8
ATOM      8  C   UNL     1      44.393   4.303   9.377  0.00  0.00    +0.000 C 
BRANCH   8  10
ATOM      9  O   UNL     1      44.261   1.927   9.766  0.00  0.00    +0.000 OA
ATOM     10  C   UNL     1      44.754   2.854   9.125  0.00  0.00    +0.000 C 
BRANCH  10  11
ATOM     11  C   UNL     1      45.758   2.544   8.068  0.00  0.00    +0.000 A 
ATOM     12  C   UNL     1      46.030   3.488   7.073  0.00  0.00    +0.000 A 
ATOM     13  C   UNL     1      46.969   3.199   6.085  0.00  0.00    +0.000 A 
ATOM     14  C   UNL     1      47.605   1.969   6.124  0.00  0.00    +0.000 A 
ATOM     15  N   UNL     1      47.365   1.031   7.066  0.00  0.00    +0.000 NA
ATOM     16  C   UNL     1      46.448   1.340   8.017  0.00  0.00    +0.000 A 
ENDBRANCH  10  11
ENDBRANCH   8  10
ENDBRANCH   7   8
ENDBRANCH   1   7
BRANCH   4  17
ATOM     17  C   UNL     1      48.264   6.678  13.981  0.00  0.00    +0.000 C 
BRANCH  17  18
ATOM     18  N   UNL     1      47.980   6.694  15.393  0.00  0.00    +0.000 N 
ATOM     19  C   UNL     1      48.925   6.295  16.307  0.00  0.00    +0.000 C 
ATOM     20  O   UNL     1      50.048   5.928  15.978  0.00  0.00    +0.000 OA
ATOM     21  H   UNL     1      47.016   6.824  15.686  0.00  0.00    +0.000 HD
BRANCH  19  22
ATOM     22  C   UNL     1      48.528   6.388  17.701  0.00  0.00    +0.000 A 
ATOM     23  C   UNL     1      48.519   5.306  18.564  0.00  0.00    +0.000 A 
ATOM     24  O   UNL     1      48.154   5.674  19.819  0.00  0.00    +0.000 OA
ATOM     25  C   UNL     1      47.886   7.010  19.786  0.00  0.00    +0.000 A 
ATOM     26  N   UNL     1      47.482   7.723  20.864  0.00  0.00    +0.000 NA
ATOM     27  C   UNL     1      47.239   8.964  20.597  0.00  0.00    +0.000 A 
ATOM     28  N   UNL     1      47.369   9.548  19.355  0.00  0.00    +0.000 N 
ATOM     29  C   UNL     1      47.826   8.864  18.249  0.00  0.00    +0.000 A 
ATOM     30  O   UNL     1      48.006   9.404  17.164  0.00  0.00    +0.000 OA
ATOM     31  C   UNL     1      48.088   7.475  18.502  0.00  0.00    +0.000 A 
ATOM     32  H   UNL     1      47.164  10.527  19.223  0.00  0.00    +0.000 HD
ENDBRANCH  19  22
ENDBRANCH  17  18
ENDBRANCH   4  17
TORSDOF 7
ENDMDL
MODEL 3
REMARK VINA RESULT:    -8.066      2.000      2.694
REMARK INTER + INTRA:         -12.412
REMARK INTER:                 -11.436
REMARK INTRA:                  -0.976
REMARK UNBOUND:                -1.045
REMARK  Name = 
REMARK  7 active torsions:
REMARK  status: ('A' for Active; 'I' for Inactive)
REMARK    1  A    between atoms: C_2  and  C_3
REMARK    2  A    between atoms: C_2  and  C_25
REMARK    3  A    between atoms: C_3  and  C_4
REMARK    4  A    between atoms: C_4  and  C_5
REMARK    5  A    between atoms: C_8  and  C_9
REMARK    6  A    between atoms: C_9  and  N_10
REMARK    7  A    between atoms: C_11  and  C_13
REMARK                            x       y       z     vdW  Elec       q    Type
REMARK                         _______ _______ _______ _____ _____    ______ ____
ROOT
ATOM      1  C   UNL     1      45.817   4.195  12.689  0.00  0.00    +0.000 A 
ATOM      2  C   UNL     1      46.059   5.512  12.314  0.00  0.00    +0.000 A 
ATOM      3  C   UNL     1      46.849   6.314  13.138  0.00  0.00    +0.000 A 
ATOM      4  C   UNL     1      47.395   5.781  14.307  0.00  0.00    +0.000 A 
ATOM      5  C   UNL     1      47.082   4.460  14.606  0.00  0.00    +0.000 A 
ATOM      6  N   UNL     1      46.314   3.663  13.829  0.00  0.00    +0.000 NA
ENDROOT
BRANCH   1   7
ATOM      7  C   UNL     1      44.993   3.281  11.816  0.00  0.00    +0.000 C 
BRANCH   7   8
ATOM      8  C   UNL     1      45.010   3.746  10.359  0.00  0.00    +0.000 C 
BRANCH   8  10
ATOM      9  O   UNL     1      43.922   1.758   9.536  0.00  0.00    +0.000 OA
ATOM     10  C   UNL     1      44.823   2.586   9.404  0.00  0.00    +0.000 C 
BRANCH  10  11
ATOM     11  C   UNL     1      45.779   2.436   8.272  0.00  0.00    +0.000 A 
ATOM     12  C   UNL     1      46.032   3.523   7.429  0.00  0.00    +0.000 A 
ATOM     13  C   UNL     1      46.927   3.384   6.370  0.00  0.00    +0.000 A 
ATOM     14  C   UNL     1      47.539   2.154   6.187  0.00  0.00    +0.000 A 
ATOM     15  N   UNL     1      47.316   1.081   6.976  0.00  0.00    +0.000 NA
ATOM     16  C   UNL     1      46.443   1.246   8.001  0.00  0.00    +0.000 A 
ENDBRANCH  10  11
ENDBRANCH   8  10
ENDBRANCH   7   8
ENDBRANCH   1   7
BRANCH   4  17
ATOM     17  C   UNL     1      48.256   6.592  15.226  0.00  0.00    +0.000 C 
BRANCH  17  18
ATOM     18  N   UNL     1      49.347   5.815  15.755  0.00  0.00    +0.000 N 
ATOM     19  C   UNL     1      49.620   5.808  17.102  0.00  0.00    +0.000 C 
ATOM     20  O   UNL     1      48.951   6.438  17.914  0.00  0.00    +0.000 OA
ATOM     21  H   UNL     1      50.020   5.424  15.101  0.00  0.00    +0.000 HD
BRANCH  19  22
ATOM     22  C   UNL     1      50.724   4.960  17.514  0.00  0.00    +0.000 A 
ATOM     23  C   UNL     1      51.884   5.446  18.092  0.00  0.00    +0.000 A 
ATOM     24  O   UNL     1      52.733   4.439  18.425  0.00  0.00    +0.000 OA
ATOM     25  C   UNL     1      52.147   3.272  18.037  0.00  0.00    +0.000 A 
ATOM     26  N   UNL     1      52.715   2.054  18.205  0.00  0.00    +0.000 NA
ATOM     27  C   UNL     1      52.006   1.086  17.721  0.00  0.00    +0.000 A 
ATOM     28  N   UNL     1      50.787   1.233  17.095  0.00  0.00    +0.000 N 
ATOM     29  C   UNL     1      50.159   2.451  16.953  0.00  0.00    +0.000 A 
ATOM     30  O   UNL     1      49.044   2.568  16.458  0.00  0.00    +0.000 OA
ATOM     31  C   UNL     1      50.925   3.554  17.461  0.00  0.00    +0.000 A 
ATOM     32  H   UNL     1      50.289   0.428  16.745  0.00  0.00    +0.000 HD
ENDBRANCH  19  22
ENDBRANCH  17  18
ENDBRANCH   4  17
TORSDOF 7
ENDMDL
MODEL 4
REMARK VINA RESULT:    -8.019      2.871      4.059
REMARK INTER + INTRA:         -12.346
REMARK INTER:                 -11.155
REMARK INTRA:                  -1.191
REMARK UNBOUND:                -1.045
REMARK  Name = 
REMARK  7 active torsions:
REMARK  status: ('A' for Active; 'I' for Inactive)
REMARK    1  A    between atoms: C_2  and  C_3
REMARK    2  A    between atoms: C_2  and  C_25
REMARK    3  A    between atoms: C_3  and  C_4
REMARK    4  A    between atoms: C_4  and  C_5
REMARK    5  A    between atoms: C_8  and  C_9
REMARK    6  A    between atoms: C_9  and  N_10
REMARK    7  A    between atoms: C_11  and  C_13
REMARK                            x       y       z     vdW  Elec       q    Type
REMARK                         _______ _______ _______ _____ _____    ______ ____
ROOT
ATOM      1  C   UNL     1      46.797   4.307  13.980  0.00  0.00    +0.000 A 
ATOM      2  C   UNL     1      47.374   5.564  13.829  0.00  0.00    +0.000 A 
ATOM      3  C   UNL     1      48.070   6.120  14.902  0.00  0.00    +0.000 A 
ATOM      4  C   UNL     1      48.191   5.406  16.096  0.00  0.00    +0.000 A 
ATOM      5  C   UNL     1      47.565   4.167  16.157  0.00  0.00    +0.000 A 
ATOM      6  N   UNL     1      46.880   3.606  15.135  0.00  0.00    +0.000 NA
ENDROOT
BRANCH   1   7
ATOM      7  C   UNL     1      46.060   3.652  12.839  0.00  0.00    +0.000 C 
BRANCH   7   8
ATOM      8  C   UNL     1      44.866   4.497  12.395  0.00  0.00    +0.000 C 
BRANCH   8  10
ATOM      9  O   UNL     1      42.990   3.472  11.282  0.00  0.00    +0.000 OA
ATOM     10  C   UNL     1      44.151   3.873  11.215  0.00  0.00    +0.000 C 
BRANCH  10  11
ATOM     11  C   UNL     1      44.891   3.727   9.931  0.00  0.00    +0.000 A 
ATOM     12  C   UNL     1      45.058   2.458   9.368  0.00  0.00    +0.000 A 
ATOM     13  C   UNL     1      45.750   2.321   8.166  0.00  0.00    +0.000 A 
ATOM     14  C   UNL     1      46.257   3.463   7.568  0.00  0.00    +0.000 A 
ATOM     15  N   UNL     1      46.121   4.703   8.084  0.00  0.00    +0.000 NA
ATOM     16  C   UNL     1      45.440   4.807   9.253  0.00  0.00    +0.000 A 
ENDBRANCH  10  11
ENDBRANCH   8  10
ENDBRANCH   7   8
ENDBRANCH   1   7
BRANCH   4  17
ATOM     17  C   UNL     1      48.932   5.950  17.278  0.00  0.00    +0.000 C 
BRANCH  17  18
ATOM     18  N   UNL     1      49.964   5.047  17.719  0.00  0.00    +0.000 N 
ATOM     19  C   UNL     1      51.255   5.175  17.267  0.00  0.00    +0.000 C 
ATOM     20  O   UNL     1      51.597   6.061  16.491  0.00  0.00    +0.000 OA
ATOM     21  H   UNL     1      49.684   4.207  18.219  0.00  0.00    +0.000 HD
BRANCH  19  22
ATOM     22  C   UNL     1      52.208   4.224  17.812  0.00  0.00    +0.000 A 
ATOM     23  C   UNL     1      53.355   4.599  18.491  0.00  0.00    +0.000 A 
ATOM     24  O   UNL     1      54.044   3.517  18.935  0.00  0.00    +0.000 OA
ATOM     25  C   UNL     1      53.367   2.409  18.523  0.00  0.00    +0.000 A 
ATOM     26  N   UNL     1      53.771   1.142  18.780  0.00  0.00    +0.000 NA
ATOM     27  C   UNL     1      53.006   0.242  18.253  0.00  0.00    +0.000 A 
ATOM     28  N   UNL     1      51.879   0.501  17.503  0.00  0.00    +0.000 N 
ATOM     29  C   UNL     1      51.413   1.776  17.265  0.00  0.00    +0.000 A 
ATOM     30  O   UNL     1      50.372   1.998  16.656  0.00  0.00    +0.000 OA
ATOM     31  C   UNL     1      52.248   2.805  17.818  0.00  0.00    +0.000 A 
ATOM     32  H   UNL     1      51.327  -0.255  17.126  0.00  0.00    +0.000 HD
ENDBRANCH  19  22
ENDBRANCH  17  18
ENDBRANCH   4  17
TORSDOF 7
ENDMDL
MODEL 5
REMARK VINA RESULT:    -7.816      1.868      9.409
REMARK INTER + INTRA:         -12.060
REMARK INTER:                 -11.007
REMARK INTRA:                  -1.053
REMARK UNBOUND:                -1.045
REMARK  Name = 
REMARK  7 active torsions:
REMARK  status: ('A' for Active; 'I' for Inactive)
REMARK    1  A    between atoms: C_2  and  C_3
REMARK    2  A    between atoms: C_2  and  C_25
REMARK    3  A    between atoms: C_3  and  C_4
REMARK    4  A    between atoms: C_4  and  C_5
REMARK    5  A    between atoms: C_8  and  C_9
REMARK    6  A    between atoms: C_9  and  N_10
REMARK    7  A    between atoms: C_11  and  C_13
REMARK                            x       y       z     vdW  Elec       q    Type
REMARK                         _______ _______ _______ _____ _____    ______ ____
ROOT
ATOM      1  C   UNL     1      47.836   7.806  13.898  0.00  0.00    +0.000 A 
ATOM      2  C   UNL     1      48.052   6.591  13.258  0.00  0.00    +0.000 A 
ATOM      3  C   UNL     1      47.139   6.164  12.293  0.00  0.00    +0.000 A 
ATOM      4  C   UNL     1      46.040   6.965  11.976  0.00  0.00    +0.000 A 
ATOM      5  C   UNL     1      45.900   8.154  12.682  0.00  0.00    +0.000 A 
ATOM      6  N   UNL     1      46.766   8.588  13.625  0.00  0.00    +0.000 NA
ENDROOT
BRANCH   1   7
ATOM      7  C   UNL     1      48.811   8.323  14.926  0.00  0.00    +0.000 C 
BRANCH   7   8
ATOM      8  C   UNL     1      48.602   7.640  16.278  0.00  0.00    +0.000 C 
BRANCH   8  10
ATOM      9  O   UNL     1      50.561   6.254  16.057  0.00  0.00    +0.000 OA
ATOM     10  C   UNL     1      49.375   6.341  16.369  0.00  0.00    +0.000 C 
BRANCH  10  11
ATOM     11  C   UNL     1      48.662   5.121  16.841  0.00  0.00    +0.000 A 
ATOM     12  C   UNL     1      49.183   4.384  17.909  0.00  0.00    +0.000 A 
ATOM     13  C   UNL     1      48.515   3.243  18.351  0.00  0.00    +0.000 A 
ATOM     14  C   UNL     1      47.346   2.875  17.705  0.00  0.00    +0.000 A 
ATOM     15  N   UNL     1      46.816   3.559  16.668  0.00  0.00    +0.000 NA
ATOM     16  C   UNL     1      47.485   4.667  16.261  0.00  0.00    +0.000 A 
ENDBRANCH  10  11
ENDBRANCH   8  10
ENDBRANCH   7   8
ENDBRANCH   1   7
BRANCH   4  17
ATOM     17  C   UNL     1      45.032   6.562  10.944  0.00  0.00    +0.000 C 
BRANCH  17  18
ATOM     18  N   UNL     1      45.417   5.348  10.271  0.00  0.00    +0.000 N 
ATOM     19  C   UNL     1      44.507   4.341  10.059  0.00  0.00    +0.000 C 
ATOM     20  O   UNL     1      43.335   4.426  10.408  0.00  0.00    +0.000 OA
ATOM     21  H   UNL     1      46.408   5.174  10.125  0.00  0.00    +0.000 HD
BRANCH  19  22
ATOM     22  C   UNL     1      45.010   3.183   9.341  0.00  0.00    +0.000 A 
ATOM     23  C   UNL     1      44.574   1.890   9.579  0.00  0.00    +0.000 A 
ATOM     24  O   UNL     1      45.169   1.004   8.740  0.00  0.00    +0.000 OA
ATOM     25  C   UNL     1      46.032   1.706   7.955  0.00  0.00    +0.000 A 
ATOM     26  N   UNL     1      46.809   1.142   7.000  0.00  0.00    +0.000 NA
ATOM     27  C   UNL     1      47.590   1.987   6.408  0.00  0.00    +0.000 A 
ATOM     28  N   UNL     1      47.653   3.335   6.684  0.00  0.00    +0.000 N 
ATOM     29  C   UNL     1      46.841   3.949   7.613  0.00  0.00    +0.000 A 
ATOM     30  O   UNL     1      46.852   5.160   7.806  0.00  0.00    +0.000 OA
ATOM     31  C   UNL     1      45.974   3.040   8.307  0.00  0.00    +0.000 A 
ATOM     32  H   UNL     1      48.286   3.935   6.176  0.00  0.00    +0.000 HD
ENDBRANCH  19  22
ENDBRANCH  17  18
ENDBRANCH   4  17
TORSDOF 7
ENDMDL
MODEL 6
REMARK VINA RESULT:    -7.432      3.604      8.592
REMARK INTER + INTRA:         -11.518
REMARK INTER:                  -9.766
REMARK INTRA:                  -1.752
REMARK UNBOUND:                -1.045
REMARK  Name = 
REMARK  7 active torsions:
REMARK  status: ('A' for Active; 'I' for Inactive)
REMARK    1  A    between atoms: C_2  and  C_3
REMARK    2  A    between atoms: C_2  and  C_25
REMARK    3  A    between atoms: C_3  and  C_4
REMARK    4  A    between atoms: C_4  and  C_5
REMARK    5  A    between atoms: C_8  and  C_9
REMARK    6  A    between atoms: C_9  and  N_10
REMARK    7  A    between atoms: C_11  and  C_13
REMARK                            x       y       z     vdW  Elec       q    Type
REMARK                         _______ _______ _______ _____ _____    ______ ____
ROOT
ATOM      1  C   UNL     1      50.306   7.195  18.003  0.00  0.00    +0.000 A 
ATOM      2  C   UNL     1      50.919   6.782  16.825  0.00  0.00    +0.000 A 
ATOM      3  C   UNL     1      50.338   7.128  15.605  0.00  0.00    +0.000 A 
ATOM      4  C   UNL     1      49.169   7.892  15.585  0.00  0.00    +0.000 A 
ATOM      5  C   UNL     1      48.621   8.241  16.813  0.00  0.00    +0.000 A 
ATOM      6  N   UNL     1      49.160   7.915  18.010  0.00  0.00    +0.000 NA
ENDROOT
BRANCH   1   7
ATOM      7  C   UNL     1      50.912   6.870  19.346  0.00  0.00    +0.000 C 
BRANCH   7   8
ATOM      8  C   UNL     1      51.014   5.359  19.555  0.00  0.00    +0.000 C 
BRANCH   8  10
ATOM      9  O   UNL     1      49.026   4.699  20.746  0.00  0.00    +0.000 OA
ATOM     10  C   UNL     1      49.647   4.722  19.685  0.00  0.00    +0.000 C 
BRANCH  10  11
ATOM     11  C   UNL     1      49.040   4.087  18.482  0.00  0.00    +0.000 A 
ATOM     12  C   UNL     1      47.751   4.451  18.081  0.00  0.00    +0.000 A 
ATOM     13  C   UNL     1      47.184   3.858  16.954  0.00  0.00    +0.000 A 
ATOM     14  C   UNL     1      47.929   2.913  16.266  0.00  0.00    +0.000 A 
ATOM     15  N   UNL     1      49.174   2.533  16.626  0.00  0.00    +0.000 NA
ATOM     16  C   UNL     1      49.702   3.129  17.724  0.00  0.00    +0.000 A 
ENDBRANCH  10  11
ENDBRANCH   8  10
ENDBRANCH   7   8
ENDBRANCH   1   7
BRANCH   4  17
ATOM     17  C   UNL     1      48.506   8.299  14.305  0.00  0.00    +0.000 C 
BRANCH  17  18
ATOM     18  N   UNL     1      47.394   7.441  13.987  0.00  0.00    +0.000 N 
ATOM     19  C   UNL     1      47.578   6.288  13.262  0.00  0.00    +0.000 C 
ATOM     20  O   UNL     1      48.681   5.924  12.870  0.00  0.00    +0.000 OA
ATOM     21  H   UNL     1      46.454   7.795  14.144  0.00  0.00    +0.000 HD
BRANCH  19  22
ATOM     22  C   UNL     1      46.384   5.493  13.035  0.00  0.00    +0.000 A 
ATOM     23  C   UNL     1      46.271   4.164  13.408  0.00  0.00    +0.000 A 
ATOM     24  O   UNL     1      45.037   3.672  13.125  0.00  0.00    +0.000 OA
ATOM     25  C   UNL     1      44.331   4.672  12.528  0.00  0.00    +0.000 A 
ATOM     26  N   UNL     1      43.053   4.537  12.099  0.00  0.00    +0.000 NA
ATOM     27  C   UNL     1      42.592   5.597  11.518  0.00  0.00    +0.000 A 
ATOM     28  N   UNL     1      43.293   6.770  11.339  0.00  0.00    +0.000 N 
ATOM     29  C   UNL     1      44.575   6.958  11.808  0.00  0.00    +0.000 A 
ATOM     30  O   UNL     1      45.168   8.026  11.707  0.00  0.00    +0.000 OA
ATOM     31  C   UNL     1      45.129   5.795  12.442  0.00  0.00    +0.000 A 
ATOM     32  H   UNL     1      42.864   7.560  10.878  0.00  0.00    +0.000 HD
ENDBRANCH  19  22
ENDBRANCH  17  18
ENDBRANCH   4  17
TORSDOF 7
ENDMDL
MODEL 7
REMARK VINA RESULT:    -7.365      1.719      2.116
REMARK INTER + INTRA:         -11.425
REMARK INTER:                 -10.384
REMARK INTRA:                  -1.041
REMARK UNBOUND:                -1.045
REMARK  Name = 
REMARK  7 active torsions:
REMARK  status: ('A' for Active; 'I' for Inactive)
REMARK    1  A    between atoms: C_2  and  C_3
REMARK    2  A    between atoms: C_2  and  C_25
REMARK    3  A    between atoms: C_3  and  C_4
REMARK    4  A    between atoms: C_4  and  C_5
REMARK    5  A    between atoms: C_8  and  C_9
REMARK    6  A    between atoms: C_9  and  N_10
REMARK    7  A    between atoms: C_11  and  C_13
REMARK                            x       y       z     vdW  Elec       q    Type
REMARK                         _______ _______ _______ _____ _____    ______ ____
ROOT
ATOM      1  C   UNL     1      45.366   4.848  11.811  0.00  0.00    +0.000 A 
ATOM      2  C   UNL     1      46.353   4.908  12.789  0.00  0.00    +0.000 A 
ATOM      3  C   UNL     1      46.760   6.156  13.261  0.00  0.00    +0.000 A 
ATOM      4  C   UNL     1      46.163   7.315  12.761  0.00  0.00    +0.000 A 
ATOM      5  C   UNL     1      45.199   7.154  11.773  0.00  0.00    +0.000 A 
ATOM      6  N   UNL     1      44.790   5.958  11.293  0.00  0.00    +0.000 NA
ENDROOT
BRANCH   1   7
ATOM      7  C   UNL     1      44.872   3.521  11.290  0.00  0.00    +0.000 C 
BRANCH   7   8
ATOM      8  C   UNL     1      44.383   3.642   9.846  0.00  0.00    +0.000 C 
BRANCH   8  10
ATOM      9  O   UNL     1      43.969   1.369   9.161  0.00  0.00    +0.000 OA
ATOM     10  C   UNL     1      44.662   2.380   9.058  0.00  0.00    +0.000 C 
BRANCH  10  11
ATOM     11  C   UNL     1      45.830   2.361   8.135  0.00  0.00    +0.000 A 
ATOM     12  C   UNL     1      46.189   3.525   7.447  0.00  0.00    +0.000 A 
ATOM     13  C   UNL     1      47.284   3.508   6.584  0.00  0.00    +0.000 A 
ATOM     14  C   UNL     1      47.983   2.321   6.435  0.00  0.00    +0.000 A 
ATOM     15  N   UNL     1      47.663   1.177   7.078  0.00  0.00    +0.000 NA
ATOM     16  C   UNL     1      46.596   1.224   7.914  0.00  0.00    +0.000 A 
ENDBRANCH  10  11
ENDBRANCH   8  10
ENDBRANCH   7   8
ENDBRANCH   1   7
BRANCH   4  17
ATOM     17  C   UNL     1      46.554   8.681  13.236  0.00  0.00    +0.000 C 
BRANCH  17  18
ATOM     18  N   UNL     1      47.118   8.641  14.561  0.00  0.00    +0.000 N 
ATOM     19  C   UNL     1      48.327   9.236  14.831  0.00  0.00    +0.000 C 
ATOM     20  O   UNL     1      48.971   9.838  13.979  0.00  0.00    +0.000 OA
ATOM     21  H   UNL     1      46.702   8.011  15.241  0.00  0.00    +0.000 HD
BRANCH  19  22
ATOM     22  C   UNL     1      48.771   9.155  16.211  0.00  0.00    +0.000 A 
ATOM     23  C   UNL     1      48.893  10.258  17.039  0.00  0.00    +0.000 A 
ATOM     24  O   UNL     1      49.280   9.900  18.290  0.00  0.00    +0.000 OA
ATOM     25  C   UNL     1      49.449   8.549  18.289  0.00  0.00    +0.000 A 
ATOM     26  N   UNL     1      49.843   7.840  19.374  0.00  0.00    +0.000 NA
ATOM     27  C   UNL     1      49.986   6.576  19.137  0.00  0.00    +0.000 A 
ATOM     28  N   UNL     1      49.764   5.968  17.921  0.00  0.00    +0.000 N 
ATOM     29  C   UNL     1      49.315   6.651  16.812  0.00  0.00    +0.000 A 
ATOM     30  O   UNL     1      49.053   6.094  15.751  0.00  0.00    +0.000 OA
ATOM     31  C   UNL     1      49.163   8.062  17.029  0.00  0.00    +0.000 A 
ATOM     32  H   UNL     1      49.893   4.973  17.812  0.00  0.00    +0.000 HD
ENDBRANCH  19  22
ENDBRANCH  17  18
ENDBRANCH   4  17
TORSDOF 7
ENDMDL
MODEL 8
REMARK VINA RESULT:    -7.232      3.386      8.403
REMARK INTER + INTRA:         -11.236
REMARK INTER:                  -9.467
REMARK INTRA:                  -1.769
REMARK UNBOUND:                -1.045
REMARK  Name = 
REMARK  7 active torsions:
REMARK  status: ('A' for Active; 'I' for Inactive)
REMARK    1  A    between atoms: C_2  and  C_3
REMARK    2  A    between atoms: C_2  and  C_25
REMARK    3  A    between atoms: C_3  and  C_4
REMARK    4  A    between atoms: C_4  and  C_5
REMARK    5  A    between atoms: C_8  and  C_9
REMARK    6  A    between atoms: C_9  and  N_10
REMARK    7  A    between atoms: C_11  and  C_13
REMARK                            x       y       z     vdW  Elec       q    Type
REMARK                         _______ _______ _______ _____ _____    ______ ____
ROOT
ATOM      1  C   UNL     1      49.306   7.943  16.241  0.00  0.00    +0.000 A 
ATOM      2  C   UNL     1      49.438   6.833  15.414  0.00  0.00    +0.000 A 
ATOM      3  C   UNL     1      48.981   6.913  14.098  0.00  0.00    +0.000 A 
ATOM      4  C   UNL     1      48.418   8.102  13.631  0.00  0.00    +0.000 A 
ATOM      5  C   UNL     1      48.312   9.151  14.537  0.00  0.00    +0.000 A 
ATOM      6  N   UNL     1      48.741   9.098  15.818  0.00  0.00    +0.000 NA
ENDROOT
BRANCH   1   7
ATOM      7  C   UNL     1      49.812   7.914  17.662  0.00  0.00    +0.000 C 
BRANCH   7   8
ATOM      8  C   UNL     1      48.781   7.290  18.602  0.00  0.00    +0.000 C 
BRANCH   8  10
ATOM      9  O   UNL     1      49.809   5.776  20.171  0.00  0.00    +0.000 OA
ATOM     10  C   UNL     1      49.231   5.931  19.097  0.00  0.00    +0.000 C 
BRANCH  10  11
ATOM     11  C   UNL     1      48.975   4.741  18.238  0.00  0.00    +0.000 A 
ATOM     12  C   UNL     1      47.669   4.445  17.834  0.00  0.00    +0.000 A 
ATOM     13  C   UNL     1      47.430   3.332  17.029  0.00  0.00    +0.000 A 
ATOM     14  C   UNL     1      48.510   2.548  16.658  0.00  0.00    +0.000 A 
ATOM     15  N   UNL     1      49.783   2.800  17.032  0.00  0.00    +0.000 NA
ATOM     16  C   UNL     1      49.987   3.891  17.812  0.00  0.00    +0.000 A 
ENDBRANCH  10  11
ENDBRANCH   8  10
ENDBRANCH   7   8
ENDBRANCH   1   7
BRANCH   4  17
ATOM     17  C   UNL     1      47.917   8.249  12.227  0.00  0.00    +0.000 C 
BRANCH  17  18
ATOM     18  N   UNL     1      46.865   7.309  11.938  0.00  0.00    +0.000 N 
ATOM     19  C   UNL     1      45.564   7.577  12.289  0.00  0.00    +0.000 C 
ATOM     20  O   UNL     1      45.231   8.619  12.842  0.00  0.00    +0.000 OA
ATOM     21  H   UNL     1      47.126   6.373  11.641  0.00  0.00    +0.000 HD
BRANCH  19  22
ATOM     22  C   UNL     1      44.592   6.565  11.913  0.00  0.00    +0.000 A 
ATOM     23  C   UNL     1      43.406   6.854  11.258  0.00  0.00    +0.000 A 
ATOM     24  O   UNL     1      42.704   5.725  10.982  0.00  0.00    +0.000 OA
ATOM     25  C   UNL     1      43.412   4.676  11.485  0.00  0.00    +0.000 A 
ATOM     26  N   UNL     1      43.007   3.386  11.400  0.00  0.00    +0.000 NA
ATOM     27  C   UNL     1      43.808   2.557  11.987  0.00  0.00    +0.000 A 
ATOM     28  N   UNL     1      44.971   2.906  12.639  0.00  0.00    +0.000 N 
ATOM     29  C   UNL     1      45.437   4.201  12.700  0.00  0.00    +0.000 A 
ATOM     30  O   UNL     1      46.507   4.496  13.220  0.00  0.00    +0.000 OA
ATOM     31  C   UNL     1      44.564   5.155  12.076  0.00  0.00    +0.000 A 
ATOM     32  H   UNL     1      45.549   2.200  13.072  0.00  0.00    +0.000 HD
ENDBRANCH  19  22
ENDBRANCH  17  18
ENDBRANCH   4  17
TORSDOF 7
ENDMDL
MODEL 9
REMARK VINA RESULT:    -6.881      4.306      5.468
REMARK INTER + INTRA:         -10.742
REMARK INTER:                  -9.886
REMARK INTRA:                  -0.857
REMARK UNBOUND:                -1.045
REMARK  Name = 
REMARK  7 active torsions:
REMARK  status: ('A' for Active; 'I' for Inactive)
REMARK    1  A    between atoms: C_2  and  C_3
REMARK    2  A    between atoms: C_2  and  C_25
REMARK    3  A    between atoms: C_3  and  C_4
REMARK    4  A    between atoms: C_4  and  C_5
REMARK    5  A    between atoms: C_8  and  C_9
REMARK    6  A    between atoms: C_9  and  N_10
REMARK    7  A    between atoms: C_11  and  C_13
REMARK                            x       y       z     vdW  Elec       q    Type
REMARK                         _______ _______ _______ _____ _____    ______ ____
ROOT
ATOM      1  C   UNL     1      44.773   5.294  10.994  0.00  0.00    +0.000 A 
ATOM      2  C   UNL     1      44.081   5.710  12.126  0.00  0.00    +0.000 A 
ATOM      3  C   UNL     1      44.598   6.760  12.886  0.00  0.00    +0.000 A 
ATOM      4  C   UNL     1      45.783   7.383  12.491  0.00  0.00    +0.000 A 
ATOM      5  C   UNL     1      46.411   6.886  11.355  0.00  0.00    +0.000 A 
ATOM      6  N   UNL     1      45.936   5.867  10.604  0.00  0.00    +0.000 NA
ENDROOT
BRANCH   1   7
ATOM      7  C   UNL     1      44.238   4.183  10.124  0.00  0.00    +0.000 C 
BRANCH   7   8
ATOM      8  C   UNL     1      45.057   2.904  10.299  0.00  0.00    +0.000 C 
BRANCH   8  10
ATOM      9  O   UNL     1      44.017   1.161   8.999  0.00  0.00    +0.000 OA
ATOM     10  C   UNL     1      44.921   1.989   9.100  0.00  0.00    +0.000 C 
BRANCH  10  11
ATOM     11  C   UNL     1      45.931   2.089   8.010  0.00  0.00    +0.000 A 
ATOM     12  C   UNL     1      45.993   3.245   7.226  0.00  0.00    +0.000 A 
ATOM     13  C   UNL     1      46.940   3.340   6.207  0.00  0.00    +0.000 A 
ATOM     14  C   UNL     1      47.793   2.267   6.004  0.00  0.00    +0.000 A 
ATOM     15  N   UNL     1      47.759   1.133   6.736  0.00  0.00    +0.000 NA
ATOM     16  C   UNL     1      46.831   1.070   7.724  0.00  0.00    +0.000 A 
ENDBRANCH  10  11
ENDBRANCH   8  10
ENDBRANCH   7   8
ENDBRANCH   1   7
BRANCH   4  17
ATOM     17  C   UNL     1      46.380   8.519  13.262  0.00  0.00    +0.000 C 
BRANCH  17  18
ATOM     18  N   UNL     1      47.699   8.849  12.787  0.00  0.00    +0.000 N 
ATOM     19  C   UNL     1      47.900   9.922  11.952  0.00  0.00    +0.000 C 
ATOM     20  O   UNL     1      46.987  10.654  11.587  0.00  0.00    +0.000 OA
ATOM     21  H   UNL     1      48.443   8.171  12.927  0.00  0.00    +0.000 HD
BRANCH  19  22
ATOM     22  C   UNL     1      49.279  10.169  11.570  0.00  0.00    +0.000 A 
ATOM     23  C   UNL     1      49.763  11.420  11.229  0.00  0.00    +0.000 A 
ATOM     24  O   UNL     1      51.093  11.383  10.960  0.00  0.00    +0.000 OA
ATOM     25  C   UNL     1      51.495  10.088  11.093  0.00  0.00    +0.000 A 
ATOM     26  N   UNL     1      52.769   9.672  10.892  0.00  0.00    +0.000 NA
ATOM     27  C   UNL     1      52.918   8.394  11.025  0.00  0.00    +0.000 A 
ATOM     28  N   UNL     1      51.912   7.508  11.346  0.00  0.00    +0.000 N 
ATOM     29  C   UNL     1      50.619   7.904  11.606  0.00  0.00    +0.000 A 
ATOM     30  O   UNL     1      49.744   7.121  11.959  0.00  0.00    +0.000 OA
ATOM     31  C   UNL     1      50.408   9.315  11.449  0.00  0.00    +0.000 A 
ATOM     32  H   UNL     1      52.106   6.521  11.436  0.00  0.00    +0.000 HD
ENDBRANCH  19  22
ENDBRANCH  17  18
ENDBRANCH   4  17
TORSDOF 7
ENDMDL
