MODEL 1
REMARK VINA RESULT:    -7.004      0.000      0.000
REMARK INTER + INTRA:         -11.269
REMARK INTER:                  -9.871
REMARK INTRA:                  -1.398
REMARK UNBOUND:                -1.398
REMARK  Name = 
REMARK  7 active torsions:
REMARK  status: ('A' for Active; 'I' for Inactive)
REMARK    1  A    between atoms: C_2  and  C_20
REMARK    2  A    between atoms: N_3  and  C_4
REMARK    3  A    between atoms: C_4  and  C_5
REMARK    4  A    between atoms: C_8  and  C_9
REMARK    5  A    between atoms: C_9  and  N_10
REMARK    6  A    between atoms: N_10  and  C_11
REMARK    7  A    between atoms: C_11  and  C_12
REMARK                            x       y       z     vdW  Elec       q    Type
REMARK                         _______ _______ _______ _____ _____    ______ ____
ROOT
ATOM      1  C   UNL     1      46.640   7.825  12.955  0.00  0.00    +0.000 C 
ENDROOT
BRANCH   1   2
ATOM      2  C   UNL     1      45.950   6.760  12.147  0.00  0.00    +0.000 A 
ATOM      3  C   UNL     1      46.304   6.552  10.808  0.00  0.00    +0.000 A 
ATOM      4  C   UNL     1      45.664   5.572  10.046  0.00  0.00    +0.000 A 
ATOM      5  C   UNL     1      44.662   4.763  10.606  0.00  0.00    +0.000 A 
ATOM      6  C   UNL     1      44.287   4.996  11.938  0.00  0.00    +0.000 A 
ATOM      7  C   UNL     1      44.924   5.983  12.700  0.00  0.00    +0.000 A 
BRANCH   5   8
ATOM      8  C   UNL     1      43.942   3.709   9.787  0.00  0.00    +0.000 C 
BRANCH   8   9
ATOM      9  N   UNL     1      44.600   2.407   9.878  0.00  0.00    +0.000 NA
ATOM     10  H   UNL     1      43.971   1.749  10.333  0.00  0.00    +0.000 HD
BRANCH   9  11
ATOM     11  C   UNL     1      45.019   1.884   8.576  0.00  0.00    +0.000 C 
BRANCH  11  12
ATOM     12  C   UNL     1      46.529   2.147   8.378  0.00  0.00    +0.000 C 
ATOM     13  C   UNL     1      46.808   3.453   7.612  0.00  0.00    +0.000 C 
ATOM     14  C   UNL     1      46.439   3.318   6.136  0.00  0.00    +0.000 C 
ATOM     15  C   UNL     1      47.120   2.103   5.509  0.00  0.00    +0.000 C 
ATOM     16  N   UNL     1      46.839   0.869   6.246  0.00  0.00    +0.000 NA
ATOM     17  C   UNL     1      47.228   0.983   7.654  0.00  0.00    +0.000 C 
ATOM     18  H   UNL     1      47.363   0.105   5.818  0.00  0.00    +0.000 HD
ENDBRANCH  11  12
ENDBRANCH   9  11
ENDBRANCH   8   9
ENDBRANCH   5   8
ENDBRANCH   1   2
BRANCH   1  21
ATOM     19  O   UNL     1      49.158   6.640  13.301  0.00  0.00    +0.000 OA
ATOM     20  C   UNL     1      48.423   6.754  14.275  0.00  0.00    +0.000 C 
ATOM     21  N   UNL     1      47.162   7.294  14.194  0.00  0.00    +0.000 N 
ATOM     22  H   UNL     1      46.613   7.408  15.033  0.00  0.00    +0.000 HD
BRANCH  20  23
ATOM     23  C   UNL     1      48.823   6.291  15.597  0.00  0.00    +0.000 A 
ATOM     24  C   UNL     1      49.653   6.951  16.482  0.00  0.00    +0.000 A 
ATOM     25 CL   UNL     1      50.525   8.411  16.402  0.00  0.00    +0.000 Cl
ATOM     26  N   UNL     1      49.708   6.283  17.663  0.00  0.00    +0.000 N 
ATOM     27  C   UNL     1      48.936   5.163  17.572  0.00  0.00    +0.000 A 
ATOM     28  N   UNL     1      48.768   4.289  18.574  0.00  0.00    +0.000 NA
ATOM     29  C   UNL     1      47.981   3.261  18.221  0.00  0.00    +0.000 A 
ATOM     30  N   UNL     1      47.412   3.042  17.028  0.00  0.00    +0.000 NA
ATOM     31  C   UNL     1      47.616   3.966  16.072  0.00  0.00    +0.000 A 
ATOM     32 CL   UNL     1      46.997   3.609  14.535  0.00  0.00    +0.000 Cl
ATOM     33  C   UNL     1      48.387   5.105  16.295  0.00  0.00    +0.000 A 
ATOM     34  H   UNL     1      50.217   6.566  18.489  0.00  0.00    +0.000 HD
ENDBRANCH  20  23
ENDBRANCH   1  21
TORSDOF 7
ENDMDL
MODEL 2
REMARK VINA RESULT:    -6.925      3.470      8.956
REMARK INTER + INTRA:         -11.157
REMARK INTER:                  -9.346
REMARK INTRA:                  -1.812
REMARK UNBOUND:                -1.398
REMARK  Name = 
REMARK  7 active torsions:
REMARK  status: ('A' for Active; 'I' for Inactive)
REMARK    1  A    between atoms: C_2  and  C_20
REMARK    2  A    between atoms: N_3  and  C_4
REMARK    3  A    between atoms: C_4  and  C_5
REMARK    4  A    between atoms: C_8  and  C_9
REMARK    5  A    between atoms: C_9  and  N_10
REMARK    6  A    between atoms: N_10  and  C_11
REMARK    7  A    between atoms: C_11  and  C_12
REMARK                            x       y       z     vdW  Elec       q    Type
REMARK                         _______ _______ _______ _____ _____    ______ ____
ROOT
ATOM      1  C   UNL     1      48.436   8.042  14.491  0.00  0.00    +0.000 C 
ENDROOT
BRANCH   1   2
ATOM      2  C   UNL     1      48.974   7.002  15.435  0.00  0.00    +0.000 A 
ATOM      3  C   UNL     1      48.154   5.952  15.868  0.00  0.00    +0.000 A 
ATOM      4  C   UNL     1      48.642   4.986  16.751  0.00  0.00    +0.000 A 
ATOM      5  C   UNL     1      49.966   5.035  17.214  0.00  0.00    +0.000 A 
ATOM      6  C   UNL     1      50.774   6.105  16.804  0.00  0.00    +0.000 A 
ATOM      7  C   UNL     1      50.285   7.078  15.924  0.00  0.00    +0.000 A 
BRANCH   5   8
ATOM      8  C   UNL     1      50.504   4.006  18.190  0.00  0.00    +0.000 C 
BRANCH   8   9
ATOM      9  N   UNL     1      50.241   4.383  19.577  0.00  0.00    +0.000 NA
ATOM     10  H   UNL     1      50.614   5.316  19.743  0.00  0.00    +0.000 HD
BRANCH   9  11
ATOM     11  C   UNL     1      48.819   4.343  19.923  0.00  0.00    +0.000 C 
BRANCH  11  12
ATOM     12  C   UNL     1      48.511   5.449  20.959  0.00  0.00    +0.000 C 
ATOM     13  C   UNL     1      47.247   6.255  20.607  0.00  0.00    +0.000 C 
ATOM     14  C   UNL     1      47.491   7.173  19.411  0.00  0.00    +0.000 C 
ATOM     15  C   UNL     1      48.717   8.055  19.637  0.00  0.00    +0.000 C 
ATOM     16  N   UNL     1      49.910   7.272  19.963  0.00  0.00    +0.000 NA
ATOM     17  C   UNL     1      49.692   6.420  21.134  0.00  0.00    +0.000 C 
ATOM     18  H   UNL     1      50.680   7.913  20.158  0.00  0.00    +0.000 HD
ENDBRANCH  11  12
ENDBRANCH   9  11
ENDBRANCH   8   9
ENDBRANCH   5   8
ENDBRANCH   1   2
BRANCH   1  21
ATOM     19  O   UNL     1      48.031   6.874  11.974  0.00  0.00    +0.000 OA
ATOM     20  C   UNL     1      47.061   7.055  12.702  0.00  0.00    +0.000 C 
ATOM     21  N   UNL     1      47.161   7.647  13.938  0.00  0.00    +0.000 N 
ATOM     22  H   UNL     1      46.340   7.732  14.518  0.00  0.00    +0.000 HD
BRANCH  20  23
ATOM     23  C   UNL     1      45.714   6.682  12.292  0.00  0.00    +0.000 A 
ATOM     24  C   UNL     1      44.760   7.518  11.746  0.00  0.00    +0.000 A 
ATOM     25 CL   UNL     1      44.725   9.185  11.401  0.00  0.00    +0.000 Cl
ATOM     26  N   UNL     1      43.666   6.806  11.375  0.00  0.00    +0.000 N 
ATOM     27  C   UNL     1      43.866   5.495  11.688  0.00  0.00    +0.000 A 
ATOM     28  N   UNL     1      42.976   4.523  11.441  0.00  0.00    +0.000 NA
ATOM     29  C   UNL     1      43.405   3.325  11.868  0.00  0.00    +0.000 A 
ATOM     30  N   UNL     1      44.555   3.047  12.496  0.00  0.00    +0.000 NA
ATOM     31  C   UNL     1      45.404   4.070  12.703  0.00  0.00    +0.000 A 
ATOM     32 CL   UNL     1      46.793   3.724  13.611  0.00  0.00    +0.000 Cl
ATOM     33  C   UNL     1      45.114   5.368  12.291  0.00  0.00    +0.000 A 
ATOM     34  H   UNL     1      42.839   7.170  10.921  0.00  0.00    +0.000 HD
ENDBRANCH  20  23
ENDBRANCH   1  21
TORSDOF 7
ENDMDL
MODEL 3
REMARK VINA RESULT:    -6.714      3.811      7.985
REMARK INTER + INTRA:         -10.860
REMARK INTER:                  -9.185
REMARK INTRA:                  -1.675
REMARK UNBOUND:                -1.398
REMARK  Name = 
REMARK  7 active torsions:
REMARK  status: ('A' for Active; 'I' for Inactive)
REMARK    1  A    between atoms: C_2  and  C_20
REMARK    2  A    between atoms: N_3  and  C_4
REMARK    3  A    between atoms: C_4  and  C_5
REMARK    4  A    between atoms: C_8  and  C_9
REMARK    5  A    between atoms: C_9  and  N_10
REMARK    6  A    between atoms: N_10  and  C_11
REMARK    7  A    between atoms: C_11  and  C_12
REMARK                            x       y       z     vdW  Elec       q    Type
REMARK                         _______ _______ _______ _____ _____    ______ ____
ROOT
ATOM      1  C   UNL     1      48.141   9.872  13.315  0.00  0.00    +0.000 C 
ENDROOT
BRANCH   1   2
ATOM      2  C   UNL     1      48.854   9.212  14.464  0.00  0.00    +0.000 A 
ATOM      3  C   UNL     1      50.103   8.610  14.267  0.00  0.00    +0.000 A 
ATOM      4  C   UNL     1      50.769   7.988  15.324  0.00  0.00    +0.000 A 
ATOM      5  C   UNL     1      50.212   7.963  16.612  0.00  0.00    +0.000 A 
ATOM      6  C   UNL     1      48.946   8.538  16.800  0.00  0.00    +0.000 A 
ATOM      7  C   UNL     1      48.275   9.156  15.738  0.00  0.00    +0.000 A 
BRANCH   5   8
ATOM      8  C   UNL     1      50.912   7.273  17.768  0.00  0.00    +0.000 C 
BRANCH   8   9
ATOM      9  N   UNL     1      50.179   6.093  18.220  0.00  0.00    +0.000 NA
ATOM     10  H   UNL     1      49.180   6.289  18.182  0.00  0.00    +0.000 HD
BRANCH   9  11
ATOM     11  C   UNL     1      50.483   4.893  17.438  0.00  0.00    +0.000 C 
BRANCH  11  12
ATOM     12  C   UNL     1      49.949   3.647  18.181  0.00  0.00    +0.000 C 
ATOM     13  C   UNL     1      49.556   2.508  17.223  0.00  0.00    +0.000 C 
ATOM     14  C   UNL     1      48.276   2.843  16.460  0.00  0.00    +0.000 C 
ATOM     15  C   UNL     1      47.151   3.229  17.418  0.00  0.00    +0.000 C 
ATOM     16  N   UNL     1      47.539   4.318  18.318  0.00  0.00    +0.000 NA
ATOM     17  C   UNL     1      48.745   3.982  19.079  0.00  0.00    +0.000 C 
ATOM     18  H   UNL     1      46.774   4.493  18.969  0.00  0.00    +0.000 HD
ENDBRANCH  11  12
ENDBRANCH   9  11
ENDBRANCH   8   9
ENDBRANCH   5   8
ENDBRANCH   1   2
BRANCH   1  21
ATOM     19  O   UNL     1      47.795   7.624  11.675  0.00  0.00    +0.000 OA
ATOM     20  C   UNL     1      46.814   8.103  12.231  0.00  0.00    +0.000 C 
ATOM     21  N   UNL     1      46.884   9.220  13.028  0.00  0.00    +0.000 N 
ATOM     22  H   UNL     1      46.055   9.549  13.499  0.00  0.00    +0.000 HD
BRANCH  20  23
ATOM     23  C   UNL     1      45.482   7.538  12.059  0.00  0.00    +0.000 A 
ATOM     24  C   UNL     1      44.418   8.128  11.404  0.00  0.00    +0.000 A 
ATOM     25 CL   UNL     1      44.203   9.636  10.643  0.00  0.00    +0.000 Cl
ATOM     26  N   UNL     1      43.372   7.266  11.334  0.00  0.00    +0.000 N 
ATOM     27  C   UNL     1      43.716   6.103  11.957  0.00  0.00    +0.000 A 
ATOM     28  N   UNL     1      42.906   5.040  12.054  0.00  0.00    +0.000 NA
ATOM     29  C   UNL     1      43.475   4.033  12.736  0.00  0.00    +0.000 A 
ATOM     30  N   UNL     1      44.687   4.015  13.305  0.00  0.00    +0.000 NA
ATOM     31  C   UNL     1      45.449   5.115  13.160  0.00  0.00    +0.000 A 
ATOM     32 CL   UNL     1      46.925   5.124  13.994  0.00  0.00    +0.000 Cl
ATOM     33  C   UNL     1      45.010   6.232  12.453  0.00  0.00    +0.000 A 
ATOM     34  H   UNL     1      42.485   7.435  10.880  0.00  0.00    +0.000 HD
ENDBRANCH  20  23
ENDBRANCH   1  21
TORSDOF 7
ENDMDL
MODEL 4
REMARK VINA RESULT:    -6.654      4.211      9.239
REMARK INTER + INTRA:         -10.774
REMARK INTER:                  -9.028
REMARK INTRA:                  -1.746
REMARK UNBOUND:                -1.398
REMARK  Name = 
REMARK  7 active torsions:
REMARK  status: ('A' for Active; 'I' for Inactive)
REMARK    1  A    between atoms: C_2  and  C_20
REMARK    2  A    between atoms: N_3  and  C_4
REMARK    3  A    between atoms: C_4  and  C_5
REMARK    4  A    between atoms: C_8  and  C_9
REMARK    5  A    between atoms: C_9  and  N_10
REMARK    6  A    between atoms: N_10  and  C_11
REMARK    7  A    between atoms: C_11  and  C_12
REMARK                            x       y       z     vdW  Elec       q    Type
REMARK                         _______ _______ _______ _____ _____    ______ ____
ROOT
ATOM      1  C   UNL     1      47.409   3.726  15.903  0.00  0.00    +0.000 C 
ENDROOT
BRANCH   1   2
ATOM      2  C   UNL     1      48.128   4.292  17.098  0.00  0.00    +0.000 A 
ATOM      3  C   UNL     1      48.796   5.519  17.002  0.00  0.00    +0.000 A 
ATOM      4  C   UNL     1      49.472   6.050  18.102  0.00  0.00    +0.000 A 
ATOM      5  C   UNL     1      49.488   5.374  19.332  0.00  0.00    +0.000 A 
ATOM      6  C   UNL     1      48.846   4.130  19.416  0.00  0.00    +0.000 A 
ATOM      7  C   UNL     1      48.173   3.595  18.312  0.00  0.00    +0.000 A 
BRANCH   5   8
ATOM      8  C   UNL     1      50.237   5.926  20.532  0.00  0.00    +0.000 C 
BRANCH   8   9
ATOM      9  N   UNL     1      51.681   5.951  20.306  0.00  0.00    +0.000 NA
ATOM     10  H   UNL     1      52.110   6.582  20.979  0.00  0.00    +0.000 HD
BRANCH   9  11
ATOM     11  C   UNL     1      52.299   4.627  20.394  0.00  0.00    +0.000 C 
BRANCH  11  12
ATOM     12  C   UNL     1      53.310   4.454  19.238  0.00  0.00    +0.000 C 
ATOM     13  C   UNL     1      52.629   4.385  17.859  0.00  0.00    +0.000 C 
ATOM     14  C   UNL     1      51.892   3.060  17.672  0.00  0.00    +0.000 C 
ATOM     15  C   UNL     1      52.819   1.875  17.939  0.00  0.00    +0.000 C 
ATOM     16  N   UNL     1      53.453   1.954  19.257  0.00  0.00    +0.000 NA
ATOM     17  C   UNL     1      54.192   3.207  19.424  0.00  0.00    +0.000 C 
ATOM     18  H   UNL     1      54.100   1.171  19.356  0.00  0.00    +0.000 HD
ENDBRANCH  11  12
ENDBRANCH   9  11
ENDBRANCH   8   9
ENDBRANCH   5   8
ENDBRANCH   1   2
BRANCH   1  21
ATOM     19  O   UNL     1      46.353   3.419  13.324  0.00  0.00    +0.000 OA
ATOM     20  C   UNL     1      46.280   4.518  13.862  0.00  0.00    +0.000 C 
ATOM     21  N   UNL     1      46.796   4.767  15.111  0.00  0.00    +0.000 N 
ATOM     22  H   UNL     1      46.670   5.677  15.530  0.00  0.00    +0.000 HD
BRANCH  20  23
ATOM     23  C   UNL     1      45.664   5.658  13.199  0.00  0.00    +0.000 A 
ATOM     24  C   UNL     1      44.337   5.777  12.832  0.00  0.00    +0.000 A 
ATOM     25 CL   UNL     1      42.997   4.732  12.932  0.00  0.00    +0.000 Cl
ATOM     26  N   UNL     1      44.093   7.021  12.347  0.00  0.00    +0.000 N 
ATOM     27  C   UNL     1      45.253   7.737  12.363  0.00  0.00    +0.000 A 
ATOM     28  N   UNL     1      45.351   9.011  11.957  0.00  0.00    +0.000 NA
ATOM     29  C   UNL     1      46.606   9.476  12.052  0.00  0.00    +0.000 A 
ATOM     30  N   UNL     1      47.693   8.812  12.467  0.00  0.00    +0.000 NA
ATOM     31  C   UNL     1      47.519   7.539  12.868  0.00  0.00    +0.000 A 
ATOM     32 CL   UNL     1      48.922   6.676  13.266  0.00  0.00    +0.000 Cl
ATOM     33  C   UNL     1      46.269   6.923  12.856  0.00  0.00    +0.000 A 
ATOM     34  H   UNL     1      43.200   7.380  12.038  0.00  0.00    +0.000 HD
ENDBRANCH  20  23
ENDBRANCH   1  21
TORSDOF 7
ENDMDL
MODEL 5
REMARK VINA RESULT:    -6.640      2.107      3.044
REMARK INTER + INTRA:         -10.756
REMARK INTER:                  -9.627
REMARK INTRA:                  -1.129
REMARK UNBOUND:                -1.398
REMARK  Name = 
REMARK  7 active torsions:
REMARK  status: ('A' for Active; 'I' for Inactive)
REMARK    1  A    between atoms: C_2  and  C_20
REMARK    2  A    between atoms: N_3  and  C_4
REMARK    3  A    between atoms: C_4  and  C_5
REMARK    4  A    between atoms: C_8  and  C_9
REMARK    5  A    between atoms: C_9  and  N_10
REMARK    6  A    between atoms: N_10  and  C_11
REMARK    7  A    between atoms: C_11  and  C_12
REMARK                            x       y       z     vdW  Elec       q    Type
REMARK                         _______ _______ _______ _____ _____    ______ ____
ROOT
ATOM      1  C   UNL     1      49.469   8.122  13.980  0.00  0.00    +0.000 C 
ENDROOT
BRANCH   1   2
ATOM      2  C   UNL     1      48.151   7.985  13.267  0.00  0.00    +0.000 A 
ATOM      3  C   UNL     1      48.005   7.058  12.228  0.00  0.00    +0.000 A 
ATOM      4  C   UNL     1      46.789   6.928  11.554  0.00  0.00    +0.000 A 
ATOM      5  C   UNL     1      45.681   7.712  11.910  0.00  0.00    +0.000 A 
ATOM      6  C   UNL     1      45.839   8.662  12.930  0.00  0.00    +0.000 A 
ATOM      7  C   UNL     1      47.059   8.797  13.601  0.00  0.00    +0.000 A 
BRANCH   5   8
ATOM      8  C   UNL     1      44.358   7.599  11.175  0.00  0.00    +0.000 C 
BRANCH   8   9
ATOM      9  N   UNL     1      43.554   6.485  11.672  0.00  0.00    +0.000 NA
ATOM     10  H   UNL     1      42.624   6.828  11.908  0.00  0.00    +0.000 HD
BRANCH   9  11
ATOM     11  C   UNL     1      43.454   5.379  10.719  0.00  0.00    +0.000 C 
BRANCH  11  12
ATOM     12  C   UNL     1      44.821   4.665  10.615  0.00  0.00    +0.000 C 
ATOM     13  C   UNL     1      45.333   4.573   9.167  0.00  0.00    +0.000 C 
ATOM     14  C   UNL     1      44.525   3.562   8.356  0.00  0.00    +0.000 C 
ATOM     15  C   UNL     1      44.480   2.206   9.059  0.00  0.00    +0.000 C 
ATOM     16  N   UNL     1      43.984   2.312  10.433  0.00  0.00    +0.000 NA
ATOM     17  C   UNL     1      44.783   3.252  11.223  0.00  0.00    +0.000 C 
ATOM     18  H   UNL     1      44.030   1.390  10.869  0.00  0.00    +0.000 HD
ENDBRANCH  11  12
ENDBRANCH   9  11
ENDBRANCH   8   9
ENDBRANCH   5   8
ENDBRANCH   1   2
BRANCH   1  21
ATOM     19  O   UNL     1      48.661   8.402  16.651  0.00  0.00    +0.000 OA
ATOM     20  C   UNL     1      49.165   7.342  16.297  0.00  0.00    +0.000 C 
ATOM     21  N   UNL     1      49.616   7.127  15.017  0.00  0.00    +0.000 N 
ATOM     22  H   UNL     1      49.982   6.221  14.763  0.00  0.00    +0.000 HD
BRANCH  20  23
ATOM     23  C   UNL     1      49.354   6.235  17.223  0.00  0.00    +0.000 A 
ATOM     24  C   UNL     1      50.227   6.199  18.294  0.00  0.00    +0.000 A 
ATOM     25 CL   UNL     1      51.381   7.294  18.899  0.00  0.00    +0.000 Cl
ATOM     26  N   UNL     1      50.050   5.059  19.008  0.00  0.00    +0.000 N 
ATOM     27  C   UNL     1      49.076   4.312  18.413  0.00  0.00    +0.000 A 
ATOM     28  N   UNL     1      48.654   3.128  18.878  0.00  0.00    +0.000 NA
ATOM     29  C   UNL     1      47.705   2.589  18.098  0.00  0.00    +0.000 A 
ATOM     30  N   UNL     1      47.202   3.089  16.962  0.00  0.00    +0.000 NA
ATOM     31  C   UNL     1      47.666   4.286  16.560  0.00  0.00    +0.000 A 
ATOM     32 CL   UNL     1      47.113   4.842  15.057  0.00  0.00    +0.000 Cl
ATOM     33  C   UNL     1      48.632   4.986  17.279  0.00  0.00    +0.000 A 
ATOM     34  H   UNL     1      50.537   4.799  19.855  0.00  0.00    +0.000 HD
ENDBRANCH  20  23
ENDBRANCH   1  21
TORSDOF 7
ENDMDL
MODEL 6
REMARK VINA RESULT:    -6.468      3.469      8.468
REMARK INTER + INTRA:         -10.513
REMARK INTER:                  -9.167
REMARK INTRA:                  -1.346
REMARK UNBOUND:                -1.398
REMARK  Name = 
REMARK  7 active torsions:
REMARK  status: ('A' for Active; 'I' for Inactive)
REMARK    1  A    between atoms: C_2  and  C_20
REMARK    2  A    between atoms: N_3  and  C_4
REMARK    3  A    between atoms: C_4  and  C_5
REMARK    4  A    between atoms: C_8  and  C_9
REMARK    5  A    between atoms: C_9  and  N_10
REMARK    6  A    between atoms: N_10  and  C_11
REMARK    7  A    between atoms: C_11  and  C_12
REMARK                            x       y       z     vdW  Elec       q    Type
REMARK                         _______ _______ _______ _____ _____    ______ ____
ROOT
ATOM      1  C   UNL     1      48.400   7.885  14.250  0.00  0.00    +0.000 C 
ENDROOT
BRANCH   1   2
ATOM      2  C   UNL     1      48.718   7.271  15.587  0.00  0.00    +0.000 A 
ATOM      3  C   UNL     1      48.418   5.926  15.833  0.00  0.00    +0.000 A 
ATOM      4  C   UNL     1      48.702   5.349  17.073  0.00  0.00    +0.000 A 
ATOM      5  C   UNL     1      49.304   6.097  18.096  0.00  0.00    +0.000 A 
ATOM      6  C   UNL     1      49.573   7.453  17.857  0.00  0.00    +0.000 A 
ATOM      7  C   UNL     1      49.283   8.034  16.617  0.00  0.00    +0.000 A 
BRANCH   5   8
ATOM      8  C   UNL     1      49.599   5.492  19.456  0.00  0.00    +0.000 C 
BRANCH   8   9
ATOM      9  N   UNL     1      50.104   4.125  19.343  0.00  0.00    +0.000 NA
ATOM     10  H   UNL     1      49.710   3.694  18.509  0.00  0.00    +0.000 HD
BRANCH   9  11
ATOM     11  C   UNL     1      51.566   4.054  19.301  0.00  0.00    +0.000 C 
BRANCH  11  12
ATOM     12  C   UNL     1      52.022   3.711  17.864  0.00  0.00    +0.000 C 
ATOM     13  C   UNL     1      51.135   2.641  17.201  0.00  0.00    +0.000 C 
ATOM     14  C   UNL     1      51.375   1.264  17.815  0.00  0.00    +0.000 C 
ATOM     15  C   UNL     1      52.860   0.905  17.793  0.00  0.00    +0.000 C 
ATOM     16  N   UNL     1      53.687   1.929  18.434  0.00  0.00    +0.000 NA
ATOM     17  C   UNL     1      53.488   3.244  17.820  0.00  0.00    +0.000 C 
ATOM     18  H   UNL     1      54.668   1.664  18.338  0.00  0.00    +0.000 HD
ENDBRANCH  11  12
ENDBRANCH   9  11
ENDBRANCH   8   9
ENDBRANCH   5   8
ENDBRANCH   1   2
BRANCH   1  21
ATOM     19  O   UNL     1      47.824   7.162  11.603  0.00  0.00    +0.000 OA
ATOM     20  C   UNL     1      46.934   7.080  12.442  0.00  0.00    +0.000 C 
ATOM     21  N   UNL     1      47.117   7.441  13.755  0.00  0.00    +0.000 N 
ATOM     22  H   UNL     1      46.366   7.312  14.417  0.00  0.00    +0.000 HD
BRANCH  20  23
ATOM     23  C   UNL     1      45.595   6.622  12.098  0.00  0.00    +0.000 A 
ATOM     24  C   UNL     1      44.587   7.380  11.534  0.00  0.00    +0.000 A 
ATOM     25 CL   UNL     1      44.463   9.020  11.095  0.00  0.00    +0.000 Cl
ATOM     26  N   UNL     1      43.518   6.598  11.240  0.00  0.00    +0.000 N 
ATOM     27  C   UNL     1      43.789   5.318  11.623  0.00  0.00    +0.000 A 
ATOM     28  N   UNL     1      42.940   4.294  11.461  0.00  0.00    +0.000 NA
ATOM     29  C   UNL     1      43.437   3.144  11.943  0.00  0.00    +0.000 A 
ATOM     30  N   UNL     1      44.617   2.956  12.549  0.00  0.00    +0.000 NA
ATOM     31  C   UNL     1      45.423   4.028  12.669  0.00  0.00    +0.000 A 
ATOM     32 CL   UNL     1      46.852   3.800  13.551  0.00  0.00    +0.000 Cl
ATOM     33  C   UNL     1      45.059   5.285  12.192  0.00  0.00    +0.000 A 
ATOM     34  H   UNL     1      42.661   6.895  10.794  0.00  0.00    +0.000 HD
ENDBRANCH  20  23
ENDBRANCH   1  21
TORSDOF 7
ENDMDL
MODEL 7
REMARK VINA RESULT:    -6.345      4.052      9.326
REMARK INTER + INTRA:         -10.339
REMARK INTER:                  -8.298
REMARK INTRA:                  -2.041
REMARK UNBOUND:                -1.398
REMARK  Name = 
REMARK  7 active torsions:
REMARK  status: ('A' for Active; 'I' for Inactive)
REMARK    1  A    between atoms: C_2  and  C_20
REMARK    2  A    between atoms: N_3  and  C_4
REMARK    3  A    between atoms: C_4  and  C_5
REMARK    4  A    between atoms: C_8  and  C_9
REMARK    5  A    between atoms: C_9  and  N_10
REMARK    6  A    between atoms: N_10  and  C_11
REMARK    7  A    between atoms: C_11  and  C_12
REMARK                            x       y       z     vdW  Elec       q    Type
REMARK                         _______ _______ _______ _____ _____    ______ ____
ROOT
ATOM      1  C   UNL     1      47.528   3.720  16.400  0.00  0.00    +0.000 C 
ENDROOT
BRANCH   1   2
ATOM      2  C   UNL     1      48.093   4.504  17.553  0.00  0.00    +0.000 A 
ATOM      3  C   UNL     1      47.236   5.149  18.454  0.00  0.00    +0.000 A 
ATOM      4  C   UNL     1      47.750   5.886  19.523  0.00  0.00    +0.000 A 
ATOM      5  C   UNL     1      49.135   5.987  19.729  0.00  0.00    +0.000 A 
ATOM      6  C   UNL     1      49.991   5.368  18.806  0.00  0.00    +0.000 A 
ATOM      7  C   UNL     1      49.476   4.634  17.731  0.00  0.00    +0.000 A 
BRANCH   5   8
ATOM      8  C   UNL     1      49.711   6.801  20.872  0.00  0.00    +0.000 C 
BRANCH   8   9
ATOM      9  N   UNL     1      49.328   8.209  20.783  0.00  0.00    +0.000 NA
ATOM     10  H   UNL     1      49.560   8.672  21.659  0.00  0.00    +0.000 HD
BRANCH   9  11
ATOM     11  C   UNL     1      49.965   8.907  19.664  0.00  0.00    +0.000 C 
BRANCH  11  12
ATOM     12  C   UNL     1      48.955   9.892  19.032  0.00  0.00    +0.000 C 
ATOM     13  C   UNL     1      47.859   9.178  18.221  0.00  0.00    +0.000 C 
ATOM     14  C   UNL     1      48.416   8.610  16.917  0.00  0.00    +0.000 C 
ATOM     15  C   UNL     1      49.145   9.688  16.116  0.00  0.00    +0.000 C 
ATOM     16  N   UNL     1      50.188  10.351  16.901  0.00  0.00    +0.000 NA
ATOM     17  C   UNL     1      49.648  10.931  18.133  0.00  0.00    +0.000 C 
ATOM     18  H   UNL     1      50.599  11.096  16.337  0.00  0.00    +0.000 HD
ENDBRANCH  11  12
ENDBRANCH   9  11
ENDBRANCH   8   9
ENDBRANCH   5   8
ENDBRANCH   1   2
BRANCH   1  21
ATOM     19  O   UNL     1      47.152   3.261  13.659  0.00  0.00    +0.000 OA
ATOM     20  C   UNL     1      46.633   4.249  14.167  0.00  0.00    +0.000 C 
ATOM     21  N   UNL     1      46.788   4.569  15.495  0.00  0.00    +0.000 N 
ATOM     22  H   UNL     1      46.304   5.368  15.875  0.00  0.00    +0.000 HD
BRANCH  20  23
ATOM     23  C   UNL     1      45.835   5.184  13.386  0.00  0.00    +0.000 A 
ATOM     24  C   UNL     1      44.559   4.970  12.902  0.00  0.00    +0.000 A 
ATOM     25 CL   UNL     1      43.496   3.640  12.953  0.00  0.00    +0.000 Cl
ATOM     26  N   UNL     1      44.078   6.099  12.324  0.00  0.00    +0.000 N 
ATOM     27  C   UNL     1      45.032   7.071  12.394  0.00  0.00    +0.000 A 
ATOM     28  N   UNL     1      44.869   8.314  11.921  0.00  0.00    +0.000 NA
ATOM     29  C   UNL     1      45.965   9.068  12.093  0.00  0.00    +0.000 A 
ATOM     30  N   UNL     1      47.132   8.699  12.637  0.00  0.00    +0.000 NA
ATOM     31  C   UNL     1      47.222   7.438  13.099  0.00  0.00    +0.000 A 
ATOM     32 CL   UNL     1      48.743   6.950  13.665  0.00  0.00    +0.000 Cl
ATOM     33  C   UNL     1      46.158   6.542  13.019  0.00  0.00    +0.000 A 
ATOM     34  H   UNL     1      43.160   6.223  11.920  0.00  0.00    +0.000 HD
ENDBRANCH  20  23
ENDBRANCH   1  21
TORSDOF 7
ENDMDL
MODEL 8
REMARK VINA RESULT:    -6.292      3.536      5.800
REMARK INTER + INTRA:         -10.264
REMARK INTER:                  -8.971
REMARK INTRA:                  -1.293
REMARK UNBOUND:                -1.398
REMARK  Name = 
REMARK  7 active torsions:
REMARK  status: ('A' for Active; 'I' for Inactive)
REMARK    1  A    between atoms: C_2  and  C_20
REMARK    2  A    between atoms: N_3  and  C_4
REMARK    3  A    between atoms: C_4  and  C_5
REMARK    4  A    between atoms: C_8  and  C_9
REMARK    5  A    between atoms: C_9  and  N_10
REMARK    6  A    between atoms: N_10  and  C_11
REMARK    7  A    between atoms: C_11  and  C_12
REMARK                            x       y       z     vdW  Elec       q    Type
REMARK                         _______ _______ _______ _____ _____    ______ ____
ROOT
ATOM      1  C   UNL     1      50.579   7.263  16.678  0.00  0.00    +0.000 C 
ENDROOT
BRANCH   1   2
ATOM      2  C   UNL     1      49.518   7.501  15.637  0.00  0.00    +0.000 A 
ATOM      3  C   UNL     1      48.896   8.752  15.538  0.00  0.00    +0.000 A 
ATOM      4  C   UNL     1      47.905   8.981  14.581  0.00  0.00    +0.000 A 
ATOM      5  C   UNL     1      47.519   7.970  13.687  0.00  0.00    +0.000 A 
ATOM      6  C   UNL     1      48.121   6.709  13.810  0.00  0.00    +0.000 A 
ATOM      7  C   UNL     1      49.110   6.477  14.773  0.00  0.00    +0.000 A 
BRANCH   5   8
ATOM      8  C   UNL     1      46.429   8.195  12.656  0.00  0.00    +0.000 C 
BRANCH   8   9
ATOM      9  N   UNL     1      46.170   6.992  11.868  0.00  0.00    +0.000 NA
ATOM     10  H   UNL     1      46.710   6.220  12.256  0.00  0.00    +0.000 HD
BRANCH   9  11
ATOM     11  C   UNL     1      44.751   6.634  11.816  0.00  0.00    +0.000 C 
BRANCH  11  12
ATOM     12  C   UNL     1      44.417   5.687  12.991  0.00  0.00    +0.000 C 
ATOM     13  C   UNL     1      45.360   4.473  13.060  0.00  0.00    +0.000 C 
ATOM     14  C   UNL     1      45.076   3.486  11.930  0.00  0.00    +0.000 C 
ATOM     15  C   UNL     1      43.600   3.093  11.902  0.00  0.00    +0.000 C 
ATOM     16  N   UNL     1      42.718   4.260  11.829  0.00  0.00    +0.000 NA
ATOM     17  C   UNL     1      42.962   5.189  12.935  0.00  0.00    +0.000 C 
ATOM     18  H   UNL     1      41.750   3.942  11.871  0.00  0.00    +0.000 HD
ENDBRANCH  11  12
ENDBRANCH   9  11
ENDBRANCH   8   9
ENDBRANCH   5   8
ENDBRANCH   1   2
BRANCH   1  21
ATOM     19  O   UNL     1      49.485   5.461  18.526  0.00  0.00    +0.000 OA
ATOM     20  C   UNL     1      50.300   5.045  17.710  0.00  0.00    +0.000 C 
ATOM     21  N   UNL     1      50.908   5.861  16.787  0.00  0.00    +0.000 N 
ATOM     22  H   UNL     1      51.537   5.462  16.107  0.00  0.00    +0.000 HD
BRANCH  20  23
ATOM     23  C   UNL     1      50.711   3.648  17.679  0.00  0.00    +0.000 A 
ATOM     24  C   UNL     1      49.983   2.588  17.172  0.00  0.00    +0.000 A 
ATOM     25 CL   UNL     1      48.430   2.457  16.487  0.00  0.00    +0.000 Cl
ATOM     26  N   UNL     1      50.725   1.452  17.200  0.00  0.00    +0.000 N 
ATOM     27  C   UNL     1      51.943   1.733  17.744  0.00  0.00    +0.000 A 
ATOM     28  N   UNL     1      52.917   0.826  17.904  0.00  0.00    +0.000 NA
ATOM     29  C   UNL     1      54.006   1.353  18.484  0.00  0.00    +0.000 A 
ATOM     30  N   UNL     1      54.178   2.613  18.906  0.00  0.00    +0.000 NA
ATOM     31  C   UNL     1      53.161   3.471  18.704  0.00  0.00    +0.000 A 
ATOM     32 CL   UNL     1      53.345   5.024  19.359  0.00  0.00    +0.000 Cl
ATOM     33  C   UNL     1      51.974   3.082  18.088  0.00  0.00    +0.000 A 
ATOM     34  H   UNL     1      50.443   0.543  16.860  0.00  0.00    +0.000 HD
ENDBRANCH  20  23
ENDBRANCH   1  21
TORSDOF 7
ENDMDL
MODEL 9
REMARK VINA RESULT:    -6.161      3.560      5.386
REMARK INTER + INTRA:         -10.080
REMARK INTER:                  -8.636
REMARK INTRA:                  -1.444
REMARK UNBOUND:                -1.398
REMARK  Name = 
REMARK  7 active torsions:
REMARK  status: ('A' for Active; 'I' for Inactive)
REMARK    1  A    between atoms: C_2  and  C_20
REMARK    2  A    between atoms: N_3  and  C_4
REMARK    3  A    between atoms: C_4  and  C_5
REMARK    4  A    between atoms: C_8  and  C_9
REMARK    5  A    between atoms: C_9  and  N_10
REMARK    6  A    between atoms: N_10  and  C_11
REMARK    7  A    between atoms: C_11  and  C_12
REMARK                            x       y       z     vdW  Elec       q    Type
REMARK                         _______ _______ _______ _____ _____    ______ ____
ROOT
ATOM      1  C   UNL     1      49.275   7.635  17.615  0.00  0.00    +0.000 C 
ENDROOT
BRANCH   1   2
ATOM      2  C   UNL     1      48.789   7.714  16.193  0.00  0.00    +0.000 A 
ATOM      3  C   UNL     1      48.370   8.938  15.658  0.00  0.00    +0.000 A 
ATOM      4  C   UNL     1      47.910   9.021  14.342  0.00  0.00    +0.000 A 
ATOM      5  C   UNL     1      47.869   7.884  13.520  0.00  0.00    +0.000 A 
ATOM      6  C   UNL     1      48.258   6.653  14.069  0.00  0.00    +0.000 A 
ATOM      7  C   UNL     1      48.713   6.568  15.390  0.00  0.00    +0.000 A 
BRANCH   5   8
ATOM      8  C   UNL     1      47.351   7.951  12.095  0.00  0.00    +0.000 C 
BRANCH   8   9
ATOM      9  N   UNL     1      46.049   7.303  11.960  0.00  0.00    +0.000 NA
ATOM     10  H   UNL     1      45.388   7.967  11.561  0.00  0.00    +0.000 HD
BRANCH   9  11
ATOM     11  C   UNL     1      46.094   6.089  11.143  0.00  0.00    +0.000 C 
BRANCH  11  12
ATOM     12  C   UNL     1      45.534   4.901  11.958  0.00  0.00    +0.000 C 
ATOM     13  C   UNL     1      44.566   4.025  11.141  0.00  0.00    +0.000 C 
ATOM     14  C   UNL     1      43.238   4.741  10.903  0.00  0.00    +0.000 C 
ATOM     15  C   UNL     1      42.634   5.227  12.220  0.00  0.00    +0.000 C 
ATOM     16  N   UNL     1      43.565   6.064  12.980  0.00  0.00    +0.000 NA
ATOM     17  C   UNL     1      44.825   5.365  13.243  0.00  0.00    +0.000 C 
ATOM     18  H   UNL     1      43.131   6.311  13.870  0.00  0.00    +0.000 HD
ENDBRANCH  11  12
ENDBRANCH   9  11
ENDBRANCH   8   9
ENDBRANCH   5   8
ENDBRANCH   1   2
BRANCH   1  21
ATOM     19  O   UNL     1      49.185   5.262  19.105  0.00  0.00    +0.000 OA
ATOM     20  C   UNL     1      50.209   5.530  18.486  0.00  0.00    +0.000 C 
ATOM     21  N   UNL     1      50.353   6.684  17.754  0.00  0.00    +0.000 N 
ATOM     22  H   UNL     1      51.199   6.837  17.226  0.00  0.00    +0.000 HD
BRANCH  20  23
ATOM     23  C   UNL     1      51.372   4.653  18.509  0.00  0.00    +0.000 A 
ATOM     24  C   UNL     1      52.608   4.941  19.053  0.00  0.00    +0.000 A 
ATOM     25 CL   UNL     1      53.262   6.322  19.805  0.00  0.00    +0.000 Cl
ATOM     26  N   UNL     1      53.412   3.849  19.002  0.00  0.00    +0.000 N 
ATOM     27  C   UNL     1      52.732   2.829  18.405  0.00  0.00    +0.000 A 
ATOM     28  N   UNL     1      53.242   1.605  18.210  0.00  0.00    +0.000 NA
ATOM     29  C   UNL     1      52.379   0.793  17.581  0.00  0.00    +0.000 A 
ATOM     30  N   UNL     1      51.148   1.092  17.143  0.00  0.00    +0.000 NA
ATOM     31  C   UNL     1      50.698   2.337  17.382  0.00  0.00    +0.000 A 
ATOM     32 CL   UNL     1      49.194   2.736  16.710  0.00  0.00    +0.000 Cl
ATOM     33  C   UNL     1      51.466   3.287  18.051  0.00  0.00    +0.000 A 
ATOM     34  H   UNL     1      54.354   3.780  19.360  0.00  0.00    +0.000 HD
ENDBRANCH  20  23
ENDBRANCH   1  21
TORSDOF 7
ENDMDL
