MODEL 1
REMARK VINA RESULT:    -8.232      0.000      0.000
REMARK INTER + INTRA:         -13.029
REMARK INTER:                 -12.082
REMARK INTRA:                  -0.947
REMARK UNBOUND:                -0.947
REMARK  Name = 
REMARK  8 active torsions:
REMARK  status: ('A' for Active; 'I' for Inactive)
REMARK    1  A    between atoms: C_2  and  C_3
REMARK    2  A    between atoms: C_3  and  N_4
REMARK    3  A    between atoms: C_3  and  C_28
REMARK    4  A    between atoms: N_4  and  C_5
REMARK    5  A    between atoms: C_5  and  C_6
REMARK    6  A    between atoms: C_9  and  C_10
REMARK    7  A    between atoms: C_10  and  N_11
REMARK    8  A    between atoms: C_12  and  C_14
REMARK                            x       y       z     vdW  Elec       q    Type
REMARK                         _______ _______ _______ _____ _____    ______ ____
ROOT
ATOM      1  C   UNL     1      45.539   6.524  11.382  0.00  0.00    +0.000 A 
ATOM      2  N   UNL     1      46.752   6.115  11.840  0.00  0.00    +0.000 NA
ATOM      3  C   UNL     1      47.449   6.981  12.613  0.00  0.00    +0.000 A 
ATOM      4  C   UNL     1      46.991   8.242  12.985  0.00  0.00    +0.000 A 
ATOM      5  C   UNL     1      45.756   8.653  12.470  0.00  0.00    +0.000 A 
ATOM      6  C   UNL     1      45.027   7.783  11.670  0.00  0.00    +0.000 A 
ATOM      7  F   UNL     1      43.820   8.151  11.214  0.00  0.00    +0.000 F 
ENDROOT
BRANCH   1   8
ATOM      8  C   UNL     1      44.700   5.529  10.616  0.00  0.00    +0.000 C 
BRANCH   8   9
ATOM      9  N   UNL     1      45.313   5.087   9.348  0.00  0.00    +0.000 NA
ATOM     10  H   UNL     1      45.125   5.783   8.628  0.00  0.00    +0.000 HD
BRANCH   9  11
ATOM     11  C   UNL     1      44.798   3.765   8.921  0.00  0.00    +0.000 C 
BRANCH  11  12
ATOM     12  C   UNL     1      45.967   2.906   8.383  0.00  0.00    +0.000 C 
ATOM     13  C   UNL     1      46.429   3.368   6.990  0.00  0.00    +0.000 C 
ATOM     14  C   UNL     1      47.585   2.507   6.501  0.00  0.00    +0.000 C 
ATOM     15  O   UNL     1      47.216   1.130   6.481  0.00  0.00    +0.000 OA
ATOM     16  C   UNL     1      46.877   0.637   7.774  0.00  0.00    +0.000 C 
ATOM     17  C   UNL     1      45.682   1.392   8.347  0.00  0.00    +0.000 C 
ENDBRANCH  11  12
BRANCH  11  19
ATOM     18  N   UNL     1      43.495   2.535  11.047  0.00  0.00    +0.000 NA
ATOM     19  C   UNL     1      44.085   3.093  10.083  0.00  0.00    +0.000 C 
ENDBRANCH  11  19
ENDBRANCH   9  11
ENDBRANCH   8   9
ENDBRANCH   1   8
BRANCH   4  20
ATOM     20  C   UNL     1      47.785   9.099  13.928  0.00  0.00    +0.000 C 
BRANCH  20  21
ATOM     21  N   UNL     1      47.929   8.506  15.231  0.00  0.00    +0.000 N 
ATOM     22  C   UNL     1      49.151   8.353  15.833  0.00  0.00    +0.000 C 
ATOM     23  O   UNL     1      50.195   8.722  15.300  0.00  0.00    +0.000 OA
ATOM     24  H   UNL     1      47.141   7.974  15.586  0.00  0.00    +0.000 HD
BRANCH  22  25
ATOM     25  C   UNL     1      49.141   7.775  17.181  0.00  0.00    +0.000 A 
ATOM     26  C   UNL     1      49.461   8.570  18.273  0.00  0.00    +0.000 A 
ATOM     27  S   UNL     1      49.361   7.752  19.765  0.00  0.00    +0.000 S 
ATOM     28  C   UNL     1      48.947   6.288  18.996  0.00  0.00    +0.000 A 
ATOM     29  N   UNL     1      48.767   5.150  19.712  0.00  0.00    +0.000 NA
ATOM     30  C   UNL     1      48.504   4.090  19.013  0.00  0.00    +0.000 A 
ATOM     31  N   UNL     1      48.342   2.895  19.619  0.00  0.00    +0.000 N 
ATOM     32  N   UNL     1      48.382   4.106  17.647  0.00  0.00    +0.000 N 
ATOM     33  C   UNL     1      48.501   5.243  16.878  0.00  0.00    +0.000 A 
ATOM     34  O   UNL     1      48.298   5.224  15.670  0.00  0.00    +0.000 OA
ATOM     35  C   UNL     1      48.850   6.434  17.627  0.00  0.00    +0.000 A 
ATOM     36  H   UNL     1      48.285   2.913  20.631  0.00  0.00    +0.000 HD
ATOM     37  H   UNL     1      47.965   2.083  19.154  0.00  0.00    +0.000 HD
ATOM     38  H   UNL     1      48.164   3.259  17.151  0.00  0.00    +0.000 HD
ENDBRANCH  22  25
ENDBRANCH  20  21
ENDBRANCH   4  20
TORSDOF 8
ENDMDL
MODEL 2
REMARK VINA RESULT:    -7.308      2.161      2.498
REMARK INTER + INTRA:         -11.672
REMARK INTER:                 -10.870
REMARK INTRA:                  -0.802
REMARK UNBOUND:                -0.947
REMARK  Name = 
REMARK  8 active torsions:
REMARK  status: ('A' for Active; 'I' for Inactive)
REMARK    1  A    between atoms: C_2  and  C_3
REMARK    2  A    between atoms: C_3  and  N_4
REMARK    3  A    between atoms: C_3  and  C_28
REMARK    4  A    between atoms: N_4  and  C_5
REMARK    5  A    between atoms: C_5  and  C_6
REMARK    6  A    between atoms: C_9  and  C_10
REMARK    7  A    between atoms: C_10  and  N_11
REMARK    8  A    between atoms: C_12  and  C_14
REMARK                            x       y       z     vdW  Elec       q    Type
REMARK                         _______ _______ _______ _____ _____    ______ ____
ROOT
ATOM      1  C   UNL     1      45.535   6.458  11.239  0.00  0.00    +0.000 A 
ATOM      2  N   UNL     1      46.515   5.693  11.789  0.00  0.00    +0.000 NA
ATOM      3  C   UNL     1      47.253   6.245  12.780  0.00  0.00    +0.000 A 
ATOM      4  C   UNL     1      47.053   7.528  13.283  0.00  0.00    +0.000 A 
ATOM      5  C   UNL     1      46.063   8.309  12.674  0.00  0.00    +0.000 A 
ATOM      6  C   UNL     1      45.298   7.763  11.652  0.00  0.00    +0.000 A 
ATOM      7  F   UNL     1      44.314   8.487  11.097  0.00  0.00    +0.000 F 
ENDROOT
BRANCH   1   8
ATOM      8  C   UNL     1      44.629   5.818  10.214  0.00  0.00    +0.000 C 
BRANCH   8   9
ATOM      9  N   UNL     1      45.354   5.091   9.153  0.00  0.00    +0.000 NA
ATOM     10  H   UNL     1      45.519   5.722   8.370  0.00  0.00    +0.000 HD
BRANCH   9  11
ATOM     11  C   UNL     1      44.602   3.900   8.693  0.00  0.00    +0.000 C 
BRANCH  11  12
ATOM     12  C   UNL     1      45.516   3.028   7.799  0.00  0.00    +0.000 C 
ATOM     13  C   UNL     1      45.937   1.725   8.501  0.00  0.00    +0.000 C 
ATOM     14  C   UNL     1      46.824   0.891   7.587  0.00  0.00    +0.000 C 
ATOM     15  O   UNL     1      47.967   1.637   7.176  0.00  0.00    +0.000 OA
ATOM     16  C   UNL     1      47.621   2.802   6.433  0.00  0.00    +0.000 C 
ATOM     17  C   UNL     1      46.772   3.750   7.273  0.00  0.00    +0.000 C 
ENDBRANCH  11  12
BRANCH  11  19
ATOM     18  N   UNL     1      43.643   2.490  10.889  0.00  0.00    +0.000 NA
ATOM     19  C   UNL     1      44.078   3.129   9.893  0.00  0.00    +0.000 C 
ENDBRANCH  11  19
ENDBRANCH   9  11
ENDBRANCH   8   9
ENDBRANCH   1   8
BRANCH   4  20
ATOM     20  C   UNL     1      47.852   8.026  14.453  0.00  0.00    +0.000 C 
BRANCH  20  21
ATOM     21  N   UNL     1      48.326   6.961  15.297  0.00  0.00    +0.000 N 
ATOM     22  C   UNL     1      49.229   7.177  16.306  0.00  0.00    +0.000 C 
ATOM     23  O   UNL     1      49.678   8.292  16.557  0.00  0.00    +0.000 OA
ATOM     24  H   UNL     1      48.177   6.012  14.970  0.00  0.00    +0.000 HD
BRANCH  22  25
ATOM     25  C   UNL     1      49.586   6.006  17.114  0.00  0.00    +0.000 A 
ATOM     26  C   UNL     1      48.596   5.308  17.792  0.00  0.00    +0.000 A 
ATOM     27  S   UNL     1      49.178   3.955  18.648  0.00  0.00    +0.000 S 
ATOM     28  C   UNL     1      50.786   4.292  18.194  0.00  0.00    +0.000 A 
ATOM     29  N   UNL     1      51.814   3.528  18.643  0.00  0.00    +0.000 NA
ATOM     30  C   UNL     1      52.995   3.911  18.270  0.00  0.00    +0.000 A 
ATOM     31  N   UNL     1      54.092   3.246  18.688  0.00  0.00    +0.000 N 
ATOM     32  N   UNL     1      53.207   4.992  17.454  0.00  0.00    +0.000 N 
ATOM     33  C   UNL     1      52.198   5.768  16.926  0.00  0.00    +0.000 A 
ATOM     34  O   UNL     1      52.431   6.670  16.132  0.00  0.00    +0.000 OA
ATOM     35  C   UNL     1      50.869   5.397  17.370  0.00  0.00    +0.000 A 
ATOM     36  H   UNL     1      53.925   2.366  19.165  0.00  0.00    +0.000 HD
ATOM     37  H   UNL     1      55.010   3.385  18.293  0.00  0.00    +0.000 HD
ATOM     38  H   UNL     1      54.143   5.242  17.182  0.00  0.00    +0.000 HD
ENDBRANCH  22  25
ENDBRANCH  20  21
ENDBRANCH   4  20
TORSDOF 8
ENDMDL
MODEL 3
REMARK VINA RESULT:    -7.119      3.592      4.472
REMARK INTER + INTRA:         -11.396
REMARK INTER:                 -10.111
REMARK INTRA:                  -1.285
REMARK UNBOUND:                -0.947
REMARK  Name = 
REMARK  8 active torsions:
REMARK  status: ('A' for Active; 'I' for Inactive)
REMARK    1  A    between atoms: C_2  and  C_3
REMARK    2  A    between atoms: C_3  and  N_4
REMARK    3  A    between atoms: C_3  and  C_28
REMARK    4  A    between atoms: N_4  and  C_5
REMARK    5  A    between atoms: C_5  and  C_6
REMARK    6  A    between atoms: C_9  and  C_10
REMARK    7  A    between atoms: C_10  and  N_11
REMARK    8  A    between atoms: C_12  and  C_14
REMARK                            x       y       z     vdW  Elec       q    Type
REMARK                         _______ _______ _______ _____ _____    ______ ____
ROOT
ATOM      1  C   UNL     1      47.448   5.684  14.141  0.00  0.00    +0.000 A 
ATOM      2  N   UNL     1      48.173   6.824  13.993  0.00  0.00    +0.000 NA
ATOM      3  C   UNL     1      48.927   7.222  15.044  0.00  0.00    +0.000 A 
ATOM      4  C   UNL     1      49.024   6.526  16.247  0.00  0.00    +0.000 A 
ATOM      5  C   UNL     1      48.238   5.376  16.387  0.00  0.00    +0.000 A 
ATOM      6  C   UNL     1      47.453   4.953  15.322  0.00  0.00    +0.000 A 
ATOM      7  F   UNL     1      46.736   3.824  15.431  0.00  0.00    +0.000 F 
ENDROOT
BRANCH   1   8
ATOM      8  C   UNL     1      46.693   5.165  12.940  0.00  0.00    +0.000 C 
BRANCH   8   9
ATOM      9  N   UNL     1      46.144   6.230  12.078  0.00  0.00    +0.000 NA
ATOM     10  H   UNL     1      45.977   7.061  12.643  0.00  0.00    +0.000 HD
BRANCH   9  11
ATOM     11  C   UNL     1      44.888   5.807  11.416  0.00  0.00    +0.000 C 
BRANCH  11  12
ATOM     12  C   UNL     1      45.178   4.611  10.478  0.00  0.00    +0.000 C 
ATOM     13  C   UNL     1      45.562   5.068   9.060  0.00  0.00    +0.000 C 
ATOM     14  C   UNL     1      45.850   3.866   8.172  0.00  0.00    +0.000 C 
ATOM     15  O   UNL     1      44.729   2.987   8.135  0.00  0.00    +0.000 OA
ATOM     16  C   UNL     1      44.404   2.460   9.419  0.00  0.00    +0.000 C 
ATOM     17  C   UNL     1      44.037   3.579  10.387  0.00  0.00    +0.000 C 
ENDBRANCH  11  12
BRANCH  11  19
ATOM     18  N   UNL     1      42.978   5.182  13.338  0.00  0.00    +0.000 NA
ATOM     19  C   UNL     1      43.844   5.465  12.467  0.00  0.00    +0.000 C 
ENDBRANCH  11  19
ENDBRANCH   9  11
ENDBRANCH   8   9
ENDBRANCH   1   8
BRANCH   4  20
ATOM     20  C   UNL     1      49.962   6.986  17.325  0.00  0.00    +0.000 C 
BRANCH  20  21
ATOM     21  N   UNL     1      50.871   5.954  17.748  0.00  0.00    +0.000 N 
ATOM     22  C   UNL     1      52.072   5.738  17.122  0.00  0.00    +0.000 C 
ATOM     23  O   UNL     1      52.447   6.419  16.170  0.00  0.00    +0.000 OA
ATOM     24  H   UNL     1      50.498   5.229  18.351  0.00  0.00    +0.000 HD
BRANCH  22  25
ATOM     25  C   UNL     1      52.917   4.683  17.690  0.00  0.00    +0.000 A 
ATOM     26  C   UNL     1      54.181   4.996  18.171  0.00  0.00    +0.000 A 
ATOM     27  S   UNL     1      55.010   3.662  18.832  0.00  0.00    +0.000 S 
ATOM     28  C   UNL     1      53.732   2.605  18.441  0.00  0.00    +0.000 A 
ATOM     29  N   UNL     1      53.822   1.275  18.695  0.00  0.00    +0.000 NA
ATOM     30  C   UNL     1      52.808   0.565  18.308  0.00  0.00    +0.000 A 
ATOM     31  N   UNL     1      52.808  -0.774  18.478  0.00  0.00    +0.000 N 
ATOM     32  N   UNL     1      51.700   1.109  17.710  0.00  0.00    +0.000 N 
ATOM     33  C   UNL     1      51.533   2.456  17.479  0.00  0.00    +0.000 A 
ATOM     34  O   UNL     1      50.490   2.904  17.022  0.00  0.00    +0.000 OA
ATOM     35  C   UNL     1      52.675   3.269  17.851  0.00  0.00    +0.000 A 
ATOM     36  H   UNL     1      53.556  -1.150  19.050  0.00  0.00    +0.000 HD
ATOM     37  H   UNL     1      51.986  -1.347  18.364  0.00  0.00    +0.000 HD
ATOM     38  H   UNL     1      50.933   0.516  17.440  0.00  0.00    +0.000 HD
ENDBRANCH  22  25
ENDBRANCH  20  21
ENDBRANCH   4  20
TORSDOF 8
ENDMDL
MODEL 4
REMARK VINA RESULT:    -6.886      2.306      3.273
REMARK INTER + INTRA:         -11.053
REMARK INTER:                 -10.194
REMARK INTRA:                  -0.859
REMARK UNBOUND:                -0.947
REMARK  Name = 
REMARK  8 active torsions:
REMARK  status: ('A' for Active; 'I' for Inactive)
REMARK    1  A    between atoms: C_2  and  C_3
REMARK    2  A    between atoms: C_3  and  N_4
REMARK    3  A    between atoms: C_3  and  C_28
REMARK    4  A    between atoms: N_4  and  C_5
REMARK    5  A    between atoms: C_5  and  C_6
REMARK    6  A    between atoms: C_9  and  C_10
REMARK    7  A    between atoms: C_10  and  N_11
REMARK    8  A    between atoms: C_12  and  C_14
REMARK                            x       y       z     vdW  Elec       q    Type
REMARK                         _______ _______ _______ _____ _____    ______ ____
ROOT
ATOM      1  C   UNL     1      46.195   5.837  11.913  0.00  0.00    +0.000 A 
ATOM      2  N   UNL     1      46.117   5.312  13.164  0.00  0.00    +0.000 NA
ATOM      3  C   UNL     1      47.108   5.623  14.032  0.00  0.00    +0.000 A 
ATOM      4  C   UNL     1      48.179   6.461  13.730  0.00  0.00    +0.000 A 
ATOM      5  C   UNL     1      48.255   6.958  12.423  0.00  0.00    +0.000 A 
ATOM      6  C   UNL     1      47.251   6.647  11.516  0.00  0.00    +0.000 A 
ATOM      7  F   UNL     1      47.291   7.160  10.277  0.00  0.00    +0.000 F 
ENDROOT
BRANCH   1   8
ATOM      8  C   UNL     1      45.039   5.594  10.971  0.00  0.00    +0.000 C 
BRANCH   8   9
ATOM      9  N   UNL     1      45.449   5.081   9.648  0.00  0.00    +0.000 NA
ATOM     10  H   UNL     1      45.503   5.859   8.992  0.00  0.00    +0.000 HD
BRANCH   9  11
ATOM     11  C   UNL     1      44.507   4.056   9.142  0.00  0.00    +0.000 C 
BRANCH  11  12
ATOM     12  C   UNL     1      45.247   3.117   8.160  0.00  0.00    +0.000 C 
ATOM     13  C   UNL     1      45.731   1.829   8.847  0.00  0.00    +0.000 C 
ATOM     14  C   UNL     1      46.443   0.927   7.849  0.00  0.00    +0.000 C 
ATOM     15  O   UNL     1      47.532   1.614   7.236  0.00  0.00    +0.000 OA
ATOM     16  C   UNL     1      47.111   2.761   6.502  0.00  0.00    +0.000 C 
ATOM     17  C   UNL     1      46.429   3.772   7.418  0.00  0.00    +0.000 C 
ENDBRANCH  11  12
BRANCH  11  19
ATOM     18  N   UNL     1      43.398   2.663  11.278  0.00  0.00    +0.000 NA
ATOM     19  C   UNL     1      43.901   3.294  10.310  0.00  0.00    +0.000 C 
ENDBRANCH  11  19
ENDBRANCH   9  11
ENDBRANCH   8   9
ENDBRANCH   1   8
BRANCH   4  20
ATOM     20  C   UNL     1      49.181   6.833  14.784  0.00  0.00    +0.000 C 
BRANCH  20  21
ATOM     21  N   UNL     1      48.589   6.984  16.086  0.00  0.00    +0.000 N 
ATOM     22  C   UNL     1      49.289   6.735  17.239  0.00  0.00    +0.000 C 
ATOM     23  O   UNL     1      50.465   6.380  17.229  0.00  0.00    +0.000 OA
ATOM     24  H   UNL     1      47.577   7.031  16.131  0.00  0.00    +0.000 HD
BRANCH  22  25
ATOM     25  C   UNL     1      48.572   6.976  18.495  0.00  0.00    +0.000 A 
ATOM     26  C   UNL     1      48.329   5.920  19.364  0.00  0.00    +0.000 A 
ATOM     27  S   UNL     1      47.521   6.382  20.791  0.00  0.00    +0.000 S 
ATOM     28  C   UNL     1      47.411   8.002  20.270  0.00  0.00    +0.000 A 
ATOM     29  N   UNL     1      46.773   8.935  21.019  0.00  0.00    +0.000 NA
ATOM     30  C   UNL     1      46.711  10.120  20.496  0.00  0.00    +0.000 A 
ATOM     31  N   UNL     1      46.067  11.117  21.139  0.00  0.00    +0.000 N 
ATOM     32  N   UNL     1      47.273  10.433  19.285  0.00  0.00    +0.000 N 
ATOM     33  C   UNL     1      47.978   9.538  18.510  0.00  0.00    +0.000 A 
ATOM     34  O   UNL     1      48.536   9.885  17.477  0.00  0.00    +0.000 OA
ATOM     35  C   UNL     1      48.016   8.190  19.043  0.00  0.00    +0.000 A 
ATOM     36  H   UNL     1      45.785  10.923  22.093  0.00  0.00    +0.000 HD
ATOM     37  H   UNL     1      46.140  12.087  20.871  0.00  0.00    +0.000 HD
ATOM     38  H   UNL     1      47.208  11.371  18.927  0.00  0.00    +0.000 HD
ENDBRANCH  22  25
ENDBRANCH  20  21
ENDBRANCH   4  20
TORSDOF 8
ENDMDL
MODEL 5
REMARK VINA RESULT:    -6.579      3.955      8.201
REMARK INTER + INTRA:         -10.603
REMARK INTER:                  -8.877
REMARK INTRA:                  -1.726
REMARK UNBOUND:                -0.947
REMARK  Name = 
REMARK  8 active torsions:
REMARK  status: ('A' for Active; 'I' for Inactive)
REMARK    1  A    between atoms: C_2  and  C_3
REMARK    2  A    between atoms: C_3  and  N_4
REMARK    3  A    between atoms: C_3  and  C_28
REMARK    4  A    between atoms: N_4  and  C_5
REMARK    5  A    between atoms: C_5  and  C_6
REMARK    6  A    between atoms: C_9  and  C_10
REMARK    7  A    between atoms: C_10  and  N_11
REMARK    8  A    between atoms: C_12  and  C_14
REMARK                            x       y       z     vdW  Elec       q    Type
REMARK                         _______ _______ _______ _____ _____    ______ ____
ROOT
ATOM      1  C   UNL     1      49.613   7.989  17.786  0.00  0.00    +0.000 A 
ATOM      2  N   UNL     1      48.727   9.020  17.782  0.00  0.00    +0.000 NA
ATOM      3  C   UNL     1      48.364   9.523  16.579  0.00  0.00    +0.000 A 
ATOM      4  C   UNL     1      48.820   9.037  15.356  0.00  0.00    +0.000 A 
ATOM      5  C   UNL     1      49.760   8.000  15.390  0.00  0.00    +0.000 A 
ATOM      6  C   UNL     1      50.150   7.472  16.614  0.00  0.00    +0.000 A 
ATOM      7  F   UNL     1      51.012   6.445  16.652  0.00  0.00    +0.000 F 
ENDROOT
BRANCH   1   8
ATOM      8  C   UNL     1      49.938   7.341  19.111  0.00  0.00    +0.000 C 
BRANCH   8   9
ATOM      9  N   UNL     1      48.842   6.514  19.652  0.00  0.00    +0.000 NA
ATOM     10  H   UNL     1      48.644   6.807  20.607  0.00  0.00    +0.000 HD
BRANCH   9  11
ATOM     11  C   UNL     1      49.179   5.071  19.625  0.00  0.00    +0.000 C 
BRANCH  11  12
ATOM     12  C   UNL     1      48.847   4.490  18.230  0.00  0.00    +0.000 C 
ATOM     13  C   UNL     1      47.420   4.848  17.781  0.00  0.00    +0.000 C 
ATOM     14  C   UNL     1      47.135   4.269  16.401  0.00  0.00    +0.000 C 
ATOM     15  O   UNL     1      47.329   2.857  16.398  0.00  0.00    +0.000 OA
ATOM     16  C   UNL     1      48.669   2.488  16.711  0.00  0.00    +0.000 C 
ATOM     17  C   UNL     1      49.052   2.967  18.107  0.00  0.00    +0.000 C 
ENDBRANCH  11  12
BRANCH  11  19
ATOM     18  N   UNL     1      51.858   4.721  20.287  0.00  0.00    +0.000 NA
ATOM     19  C   UNL     1      50.643   4.880  19.987  0.00  0.00    +0.000 C 
ENDBRANCH  11  19
ENDBRANCH   9  11
ENDBRANCH   8   9
ENDBRANCH   1   8
BRANCH   4  20
ATOM     20  C   UNL     1      48.289   9.589  14.065  0.00  0.00    +0.000 C 
BRANCH  20  21
ATOM     21  N   UNL     1      47.133   8.877  13.589  0.00  0.00    +0.000 N 
ATOM     22  C   UNL     1      47.207   7.969  12.564  0.00  0.00    +0.000 C 
ATOM     23  O   UNL     1      48.265   7.701  12.000  0.00  0.00    +0.000 OA
ATOM     24  H   UNL     1      46.224   9.245  13.850  0.00  0.00    +0.000 HD
BRANCH  22  25
ATOM     25  C   UNL     1      45.958   7.285  12.215  0.00  0.00    +0.000 A 
ATOM     26  C   UNL     1      44.903   8.010  11.676  0.00  0.00    +0.000 A 
ATOM     27  S   UNL     1      43.544   7.055  11.293  0.00  0.00    +0.000 S 
ATOM     28  C   UNL     1      44.296   5.647  11.893  0.00  0.00    +0.000 A 
ATOM     29  N   UNL     1      43.642   4.459  11.909  0.00  0.00    +0.000 NA
ATOM     30  C   UNL     1      44.298   3.471  12.435  0.00  0.00    +0.000 A 
ATOM     31  N   UNL     1      43.729   2.251  12.536  0.00  0.00    +0.000 N 
ATOM     32  N   UNL     1      45.576   3.594  12.916  0.00  0.00    +0.000 N 
ATOM     33  C   UNL     1      46.305   4.763  12.873  0.00  0.00    +0.000 A 
ATOM     34  O   UNL     1      47.474   4.803  13.236  0.00  0.00    +0.000 OA
ATOM     35  C   UNL     1      45.577   5.899  12.342  0.00  0.00    +0.000 A 
ATOM     36  H   UNL     1      42.848   2.129  12.048  0.00  0.00    +0.000 HD
ATOM     37  H   UNL     1      44.245   1.416  12.767  0.00  0.00    +0.000 HD
ATOM     38  H   UNL     1      46.047   2.794  13.303  0.00  0.00    +0.000 HD
ENDBRANCH  22  25
ENDBRANCH  20  21
ENDBRANCH   4  20
TORSDOF 8
ENDMDL
MODEL 6
REMARK VINA RESULT:    -6.382      3.988      8.563
REMARK INTER + INTRA:         -10.314
REMARK INTER:                  -9.379
REMARK INTRA:                  -0.934
REMARK UNBOUND:                -0.947
REMARK  Name = 
REMARK  8 active torsions:
REMARK  status: ('A' for Active; 'I' for Inactive)
REMARK    1  A    between atoms: C_2  and  C_3
REMARK    2  A    between atoms: C_3  and  N_4
REMARK    3  A    between atoms: C_3  and  C_28
REMARK    4  A    between atoms: N_4  and  C_5
REMARK    5  A    between atoms: C_5  and  C_6
REMARK    6  A    between atoms: C_9  and  C_10
REMARK    7  A    between atoms: C_10  and  N_11
REMARK    8  A    between atoms: C_12  and  C_14
REMARK                            x       y       z     vdW  Elec       q    Type
REMARK                         _______ _______ _______ _____ _____    ______ ____
ROOT
ATOM      1  C   UNL     1      50.387   7.039  15.746  0.00  0.00    +0.000 A 
ATOM      2  N   UNL     1      49.121   6.627  15.469  0.00  0.00    +0.000 NA
ATOM      3  C   UNL     1      48.570   7.052  14.309  0.00  0.00    +0.000 A 
ATOM      4  C   UNL     1      49.223   7.857  13.379  0.00  0.00    +0.000 A 
ATOM      5  C   UNL     1      50.511   8.298  13.706  0.00  0.00    +0.000 A 
ATOM      6  C   UNL     1      51.095   7.878  14.894  0.00  0.00    +0.000 A 
ATOM      7  F   UNL     1      52.347   8.254  15.190  0.00  0.00    +0.000 F 
ENDROOT
BRANCH   1   8
ATOM      8  C   UNL     1      51.059   6.481  16.979  0.00  0.00    +0.000 C 
BRANCH   8   9
ATOM      9  N   UNL     1      50.115   6.107  18.051  0.00  0.00    +0.000 NA
ATOM     10  H   UNL     1      49.948   6.918  18.644  0.00  0.00    +0.000 HD
BRANCH   9  11
ATOM     11  C   UNL     1      50.630   4.982  18.866  0.00  0.00    +0.000 C 
BRANCH  11  12
ATOM     12  C   UNL     1      50.144   3.643  18.261  0.00  0.00    +0.000 C 
ATOM     13  C   UNL     1      51.287   2.866  17.585  0.00  0.00    +0.000 C 
ATOM     14  C   UNL     1      50.773   1.552  17.013  0.00  0.00    +0.000 C 
ATOM     15  O   UNL     1      49.707   1.785  16.095  0.00  0.00    +0.000 OA
ATOM     16  C   UNL     1      48.585   2.415  16.709  0.00  0.00    +0.000 C 
ATOM     17  C   UNL     1      48.969   3.778  17.273  0.00  0.00    +0.000 C 
ENDBRANCH  11  12
BRANCH  11  19
ATOM     18  N   UNL     1      53.404   5.115  19.003  0.00  0.00    +0.000 NA
ATOM     19  C   UNL     1      52.147   5.054  18.941  0.00  0.00    +0.000 C 
ENDBRANCH  11  19
ENDBRANCH   9  11
ENDBRANCH   8   9
ENDBRANCH   1   8
BRANCH   4  20
ATOM     20  C   UNL     1      48.572   8.200  12.070  0.00  0.00    +0.000 C 
BRANCH  20  21
ATOM     21  N   UNL     1      47.861   7.090  11.494  0.00  0.00    +0.000 N 
ATOM     22  C   UNL     1      46.492   7.050  11.438  0.00  0.00    +0.000 C 
ATOM     23  O   UNL     1      45.791   7.964  11.865  0.00  0.00    +0.000 OA
ATOM     24  H   UNL     1      48.380   6.227  11.364  0.00  0.00    +0.000 HD
BRANCH  22  25
ATOM     25  C   UNL     1      45.906   5.877  10.782  0.00  0.00    +0.000 A 
ATOM     26  C   UNL     1      46.001   5.738   9.403  0.00  0.00    +0.000 A 
ATOM     27  S   UNL     1      45.303   4.301   8.811  0.00  0.00    +0.000 S 
ATOM     28  C   UNL     1      44.792   3.842  10.372  0.00  0.00    +0.000 A 
ATOM     29  N   UNL     1      44.074   2.708  10.566  0.00  0.00    +0.000 NA
ATOM     30  C   UNL     1      43.700   2.490  11.789  0.00  0.00    +0.000 A 
ATOM     31  N   UNL     1      42.949   1.410  12.091  0.00  0.00    +0.000 N 
ATOM     32  N   UNL     1      44.025   3.322  12.830  0.00  0.00    +0.000 N 
ATOM     33  C   UNL     1      44.797   4.455  12.696  0.00  0.00    +0.000 A 
ATOM     34  O   UNL     1      45.134   5.119  13.668  0.00  0.00    +0.000 OA
ATOM     35  C   UNL     1      45.184   4.754  11.331  0.00  0.00    +0.000 A 
ATOM     36  H   UNL     1      42.838   0.724  11.352  0.00  0.00    +0.000 HD
ATOM     37  H   UNL     1      42.783   1.096  13.035  0.00  0.00    +0.000 HD
ATOM     38  H   UNL     1      43.722   3.102  13.763  0.00  0.00    +0.000 HD
ENDBRANCH  22  25
ENDBRANCH  20  21
ENDBRANCH   4  20
TORSDOF 8
ENDMDL
MODEL 7
REMARK VINA RESULT:    -6.093      3.227      8.859
REMARK INTER + INTRA:          -9.889
REMARK INTER:                  -8.767
REMARK INTRA:                  -1.122
REMARK UNBOUND:                -0.947
REMARK  Name = 
REMARK  8 active torsions:
REMARK  status: ('A' for Active; 'I' for Inactive)
REMARK    1  A    between atoms: C_2  and  C_3
REMARK    2  A    between atoms: C_3  and  N_4
REMARK    3  A    between atoms: C_3  and  C_28
REMARK    4  A    between atoms: N_4  and  C_5
REMARK    5  A    between atoms: C_5  and  C_6
REMARK    6  A    between atoms: C_9  and  C_10
REMARK    7  A    between atoms: C_10  and  N_11
REMARK    8  A    between atoms: C_12  and  C_14
REMARK                            x       y       z     vdW  Elec       q    Type
REMARK                         _______ _______ _______ _____ _____    ______ ____
ROOT
ATOM      1  C   UNL     1      49.033   8.195  15.697  0.00  0.00    +0.000 A 
ATOM      2  N   UNL     1      48.675   6.993  15.172  0.00  0.00    +0.000 NA
ATOM      3  C   UNL     1      47.925   7.006  14.045  0.00  0.00    +0.000 A 
ATOM      4  C   UNL     1      47.524   8.164  13.384  0.00  0.00    +0.000 A 
ATOM      5  C   UNL     1      47.873   9.388  13.967  0.00  0.00    +0.000 A 
ATOM      6  C   UNL     1      48.638   9.398  15.126  0.00  0.00    +0.000 A 
ATOM      7  F   UNL     1      49.019  10.567  15.662  0.00  0.00    +0.000 F 
ENDROOT
BRANCH   1   8
ATOM      8  C   UNL     1      49.965   8.198  16.886  0.00  0.00    +0.000 C 
BRANCH   8   9
ATOM      9  N   UNL     1      50.278   6.849  17.398  0.00  0.00    +0.000 NA
ATOM     10  H   UNL     1      50.365   6.208  16.611  0.00  0.00    +0.000 HD
BRANCH   9  11
ATOM     11  C   UNL     1      49.237   6.364  18.334  0.00  0.00    +0.000 C 
BRANCH  11  12
ATOM     12  C   UNL     1      49.056   4.837  18.156  0.00  0.00    +0.000 C 
ATOM     13  C   UNL     1      50.289   4.182  17.511  0.00  0.00    +0.000 C 
ATOM     14  C   UNL     1      50.078   2.681  17.363  0.00  0.00    +0.000 C 
ATOM     15  O   UNL     1      48.904   2.410  16.602  0.00  0.00    +0.000 OA
ATOM     16  C   UNL     1      47.723   2.915  17.220  0.00  0.00    +0.000 C 
ATOM     17  C   UNL     1      47.795   4.431  17.369  0.00  0.00    +0.000 C 
ENDBRANCH  11  12
BRANCH  11  19
ATOM     18  N   UNL     1      49.935   7.032  20.942  0.00  0.00    +0.000 NA
ATOM     19  C   UNL     1      49.619   6.729  19.760  0.00  0.00    +0.000 C 
ENDBRANCH  11  19
ENDBRANCH   9  11
ENDBRANCH   8   9
ENDBRANCH   1   8
BRANCH   4  20
ATOM     20  C   UNL     1      46.777   8.085  12.084  0.00  0.00    +0.000 C 
BRANCH  20  21
ATOM     21  N   UNL     1      46.284   6.762  11.805  0.00  0.00    +0.000 N 
ATOM     22  C   UNL     1      44.973   6.525  11.483  0.00  0.00    +0.000 C 
ATOM     23  O   UNL     1      44.143   7.428  11.401  0.00  0.00    +0.000 OA
ATOM     24  H   UNL     1      46.862   5.982  12.101  0.00  0.00    +0.000 HD
BRANCH  22  25
ATOM     25  C   UNL     1      44.623   5.133  11.179  0.00  0.00    +0.000 A 
ATOM     26  C   UNL     1      43.776   4.434  12.028  0.00  0.00    +0.000 A 
ATOM     27  S   UNL     1      43.443   2.847  11.505  0.00  0.00    +0.000 S 
ATOM     28  C   UNL     1      44.473   3.016  10.157  0.00  0.00    +0.000 A 
ATOM     29  N   UNL     1      44.684   1.982   9.305  0.00  0.00    +0.000 NA
ATOM     30  C   UNL     1      45.525   2.216   8.346  0.00  0.00    +0.000 A 
ATOM     31  N   UNL     1      45.839   1.246   7.461  0.00  0.00    +0.000 N 
ATOM     32  N   UNL     1      46.143   3.428   8.172  0.00  0.00    +0.000 N 
ATOM     33  C   UNL     1      45.922   4.526   8.974  0.00  0.00    +0.000 A 
ATOM     34  O   UNL     1      46.430   5.613   8.728  0.00  0.00    +0.000 OA
ATOM     35  C   UNL     1      45.028   4.278  10.089  0.00  0.00    +0.000 A 
ATOM     36  H   UNL     1      45.273   0.405   7.503  0.00  0.00    +0.000 HD
ATOM     37  H   UNL     1      46.339   1.419   6.603  0.00  0.00    +0.000 HD
ATOM     38  H   UNL     1      46.778   3.563   7.404  0.00  0.00    +0.000 HD
ENDBRANCH  22  25
ENDBRANCH  20  21
ENDBRANCH   4  20
TORSDOF 8
ENDMDL
MODEL 8
REMARK VINA RESULT:    -5.519      3.605      4.749
REMARK INTER + INTRA:          -9.048
REMARK INTER:                  -7.863
REMARK INTRA:                  -1.185
REMARK UNBOUND:                -0.947
REMARK  Name = 
REMARK  8 active torsions:
REMARK  status: ('A' for Active; 'I' for Inactive)
REMARK    1  A    between atoms: C_2  and  C_3
REMARK    2  A    between atoms: C_3  and  N_4
REMARK    3  A    between atoms: C_3  and  C_28
REMARK    4  A    between atoms: N_4  and  C_5
REMARK    5  A    between atoms: C_5  and  C_6
REMARK    6  A    between atoms: C_9  and  C_10
REMARK    7  A    between atoms: C_10  and  N_11
REMARK    8  A    between atoms: C_12  and  C_14
REMARK                            x       y       z     vdW  Elec       q    Type
REMARK                         _______ _______ _______ _____ _____    ______ ____
ROOT
ATOM      1  C   UNL     1      47.090   5.374  13.469  0.00  0.00    +0.000 A 
ATOM      2  N   UNL     1      47.930   6.152  14.201  0.00  0.00    +0.000 NA
ATOM      3  C   UNL     1      48.322   5.681  15.407  0.00  0.00    +0.000 A 
ATOM      4  C   UNL     1      47.940   4.446  15.927  0.00  0.00    +0.000 A 
ATOM      5  C   UNL     1      47.045   3.681  15.170  0.00  0.00    +0.000 A 
ATOM      6  C   UNL     1      46.626   4.149  13.932  0.00  0.00    +0.000 A 
ATOM      7  F   UNL     1      45.808   3.399  13.178  0.00  0.00    +0.000 F 
ENDROOT
BRANCH   1   8
ATOM      8  C   UNL     1      46.737   5.832  12.073  0.00  0.00    +0.000 C 
BRANCH   8   9
ATOM      9  N   UNL     1      45.483   6.608  12.003  0.00  0.00    +0.000 NA
ATOM     10  H   UNL     1      44.991   6.525  12.892  0.00  0.00    +0.000 HD
BRANCH   9  11
ATOM     11  C   UNL     1      44.612   6.145  10.897  0.00  0.00    +0.000 C 
BRANCH  11  12
ATOM     12  C   UNL     1      45.228   4.880  10.253  0.00  0.00    +0.000 C 
ATOM     13  C   UNL     1      45.633   5.117   8.788  0.00  0.00    +0.000 C 
ATOM     14  C   UNL     1      46.243   3.856   8.194  0.00  0.00    +0.000 C 
ATOM     15  O   UNL     1      45.337   2.760   8.297  0.00  0.00    +0.000 OA
ATOM     16  C   UNL     1      45.016   2.443   9.649  0.00  0.00    +0.000 C 
ATOM     17  C   UNL     1      44.339   3.623  10.337  0.00  0.00    +0.000 C 
ENDBRANCH  11  12
BRANCH  11  19
ATOM     18  N   UNL     1      42.044   5.679  11.856  0.00  0.00    +0.000 NA
ATOM     19  C   UNL     1      43.208   5.890  11.422  0.00  0.00    +0.000 C 
ENDBRANCH  11  19
ENDBRANCH   9  11
ENDBRANCH   8   9
ENDBRANCH   1   8
BRANCH   4  20
ATOM     20  C   UNL     1      48.501   3.957  17.231  0.00  0.00    +0.000 C 
BRANCH  20  21
ATOM     21  N   UNL     1      49.909   4.222  17.365  0.00  0.00    +0.000 N 
ATOM     22  C   UNL     1      50.456   4.687  18.533  0.00  0.00    +0.000 C 
ATOM     23  O   UNL     1      49.779   4.895  19.537  0.00  0.00    +0.000 OA
ATOM     24  H   UNL     1      50.448   4.302  16.509  0.00  0.00    +0.000 HD
BRANCH  22  25
ATOM     25  C   UNL     1      51.911   4.868  18.538  0.00  0.00    +0.000 A 
ATOM     26  C   UNL     1      52.680   4.240  19.509  0.00  0.00    +0.000 A 
ATOM     27  S   UNL     1      54.353   4.524  19.345  0.00  0.00    +0.000 S 
ATOM     28  C   UNL     1      54.102   5.549  18.006  0.00  0.00    +0.000 A 
ATOM     29  N   UNL     1      55.142   6.180  17.405  0.00  0.00    +0.000 NA
ATOM     30  C   UNL     1      54.822   6.972  16.429  0.00  0.00    +0.000 A 
ATOM     31  N   UNL     1      55.774   7.679  15.784  0.00  0.00    +0.000 N 
ATOM     32  N   UNL     1      53.531   7.147  16.001  0.00  0.00    +0.000 N 
ATOM     33  C   UNL     1      52.446   6.490  16.539  0.00  0.00    +0.000 A 
ATOM     34  O   UNL     1      51.324   6.613  16.066  0.00  0.00    +0.000 OA
ATOM     35  C   UNL     1      52.767   5.640  17.669  0.00  0.00    +0.000 A 
ATOM     36  H   UNL     1      56.734   7.436  16.002  0.00  0.00    +0.000 HD
ATOM     37  H   UNL     1      55.611   8.165  14.915  0.00  0.00    +0.000 HD
ATOM     38  H   UNL     1      53.336   7.764  15.230  0.00  0.00    +0.000 HD
ENDBRANCH  22  25
ENDBRANCH  20  21
ENDBRANCH   4  20
TORSDOF 8
ENDMDL
