MODEL 1
REMARK VINA RESULT:    -8.225      0.000      0.000
REMARK INTER + INTRA:         -10.448
REMARK INTER:                 -10.148
REMARK INTRA:                  -0.300
REMARK UNBOUND:                -0.300
REMARK  Name = 
REMARK  6 active torsions:
REMARK  status: ('A' for Active; 'I' for Inactive)
REMARK    1  A    between atoms: C_1  and  C_2
REMARK    2  A    between atoms: C_2  and  C_3
REMARK    3  A    between atoms: C_2  and  O_4
REMARK    4  A    between atoms: C_2  and  C_14
REMARK    5  A    between atoms: O_4  and  C_5
REMARK    6  A    between atoms: C_8  and  C_9
REMARK                            x       y       z     vdW  Elec       q    Type
REMARK                         _______ _______ _______ _____ _____    ______ ____
ROOT
ATOM      1  C   UNL     1      44.575   3.625   9.208  0.00  0.00    +0.000 A 
ATOM      2  C   UNL     1      44.908   2.275   9.201  0.00  0.00    +0.000 A 
ATOM      3  C   UNL     1      45.912   1.813   8.350  0.00  0.00    +0.000 A 
ATOM      4  C   UNL     1      46.585   2.735   7.560  0.00  0.00    +0.000 A 
ATOM      5  N   UNL     1      46.340   4.073   7.585  0.00  0.00    +0.000 NA
ATOM      6  C   UNL     1      45.345   4.474   8.417  0.00  0.00    +0.000 A 
ENDROOT
BRANCH   4   7
ATOM      7  C   UNL     1      47.638   2.253   6.607  0.00  0.00    +0.000 C 
ATOM      8  N   UNL     1      47.810   3.015   5.484  0.00  0.00    +0.000 N 
ATOM      9  O   UNL     1      48.299   1.242   6.809  0.00  0.00    +0.000 OA
ATOM     10  H   UNL     1      47.235   3.838   5.345  0.00  0.00    +0.000 HD
ATOM     11  H   UNL     1      48.492   2.737   4.795  0.00  0.00    +0.000 HD
ENDBRANCH   4   7
BRANCH   1  12
ATOM     12  O   UNL     1      43.584   4.202   9.940  0.00  0.00    +0.000 OA
BRANCH  12  14
ATOM     13  C   UNL     1      42.638   5.301  12.007  0.00  0.00    +0.000 C 
ATOM     14  C   UNL     1      43.641   4.298  11.384  0.00  0.00    +0.000 C 
ATOM     15  C   UNL     1      43.413   2.900  11.987  0.00  0.00    +0.000 C 
BRANCH  14  16
ATOM     16  C   UNL     1      45.096   4.804  11.740  0.00  0.00    +0.000 C 
ATOM     17  C   UNL     1      45.510   4.405  13.177  0.00  0.00    +0.000 C 
ATOM     18  C   UNL     1      46.937   4.834  13.507  0.00  0.00    +0.000 C 
ATOM     19  C   UNL     1      47.132   6.330  13.309  0.00  0.00    +0.000 C 
ATOM     20  C   UNL     1      46.729   6.754  11.903  0.00  0.00    +0.000 C 
ATOM     21  C   UNL     1      45.300   6.325  11.563  0.00  0.00    +0.000 C 
ENDBRANCH  14  16
ENDBRANCH  12  14
ENDBRANCH   1  12
TORSDOF 4
ENDMDL
MODEL 2
REMARK VINA RESULT:    -6.681      3.849      6.352
REMARK INTER + INTRA:          -8.544
REMARK INTER:                  -8.221
REMARK INTRA:                  -0.322
REMARK UNBOUND:                -0.300
REMARK  Name = 
REMARK  6 active torsions:
REMARK  status: ('A' for Active; 'I' for Inactive)
REMARK    1  A    between atoms: C_1  and  C_2
REMARK    2  A    between atoms: C_2  and  C_3
REMARK    3  A    between atoms: C_2  and  O_4
REMARK    4  A    between atoms: C_2  and  C_14
REMARK    5  A    between atoms: O_4  and  C_5
REMARK    6  A    between atoms: C_8  and  C_9
REMARK                            x       y       z     vdW  Elec       q    Type
REMARK                         _______ _______ _______ _____ _____    ______ ____
ROOT
ATOM      1  C   UNL     1      46.651   5.019  13.163  0.00  0.00    +0.000 A 
ATOM      2  C   UNL     1      47.029   5.780  14.263  0.00  0.00    +0.000 A 
ATOM      3  C   UNL     1      47.485   5.148  15.420  0.00  0.00    +0.000 A 
ATOM      4  C   UNL     1      47.591   3.764  15.419  0.00  0.00    +0.000 A 
ATOM      5  N   UNL     1      47.299   2.985  14.342  0.00  0.00    +0.000 NA
ATOM      6  C   UNL     1      46.845   3.643  13.245  0.00  0.00    +0.000 A 
ENDROOT
BRANCH   4   7
ATOM      7  C   UNL     1      48.038   3.062  16.666  0.00  0.00    +0.000 C 
ATOM      8  N   UNL     1      47.069   2.860  17.609  0.00  0.00    +0.000 N 
ATOM      9  O   UNL     1      49.194   2.698  16.840  0.00  0.00    +0.000 OA
ATOM     10  H   UNL     1      46.126   3.188  17.436  0.00  0.00    +0.000 HD
ATOM     11  H   UNL     1      47.308   2.407  18.479  0.00  0.00    +0.000 HD
ENDBRANCH   4   7
BRANCH   1  12
ATOM     12  O   UNL     1      46.137   5.496  11.997  0.00  0.00    +0.000 OA
BRANCH  12  14
ATOM     13  C   UNL     1      43.862   4.695  12.745  0.00  0.00    +0.000 C 
ATOM     14  C   UNL     1      44.726   5.410  11.677  0.00  0.00    +0.000 C 
ATOM     15  C   UNL     1      44.181   6.830  11.439  0.00  0.00    +0.000 C 
BRANCH  14  16
ATOM     16  C   UNL     1      44.623   4.567  10.344  0.00  0.00    +0.000 C 
ATOM     17  C   UNL     1      44.653   3.045  10.620  0.00  0.00    +0.000 C 
ATOM     18  C   UNL     1      44.489   2.222   9.345  0.00  0.00    +0.000 C 
ATOM     19  C   UNL     1      45.544   2.581   8.309  0.00  0.00    +0.000 C 
ATOM     20  C   UNL     1      45.542   4.076   8.018  0.00  0.00    +0.000 C 
ATOM     21  C   UNL     1      45.702   4.908   9.293  0.00  0.00    +0.000 C 
ENDBRANCH  14  16
ENDBRANCH  12  14
ENDBRANCH   1  12
TORSDOF 4
ENDMDL
MODEL 3
REMARK VINA RESULT:    -6.555      3.683      6.464
REMARK INTER + INTRA:          -8.388
REMARK INTER:                  -7.896
REMARK INTRA:                  -0.492
REMARK UNBOUND:                -0.300
REMARK  Name = 
REMARK  6 active torsions:
REMARK  status: ('A' for Active; 'I' for Inactive)
REMARK    1  A    between atoms: C_1  and  C_2
REMARK    2  A    between atoms: C_2  and  C_3
REMARK    3  A    between atoms: C_2  and  O_4
REMARK    4  A    between atoms: C_2  and  C_14
REMARK    5  A    between atoms: O_4  and  C_5
REMARK    6  A    between atoms: C_8  and  C_9
REMARK                            x       y       z     vdW  Elec       q    Type
REMARK                         _______ _______ _______ _____ _____    ______ ____
ROOT
ATOM      1  C   UNL     1      45.972   6.860  11.501  0.00  0.00    +0.000 A 
ATOM      2  C   UNL     1      47.332   6.650  11.704  0.00  0.00    +0.000 A 
ATOM      3  C   UNL     1      48.019   7.416  12.646  0.00  0.00    +0.000 A 
ATOM      4  C   UNL     1      47.305   8.342  13.392  0.00  0.00    +0.000 A 
ATOM      5  N   UNL     1      45.963   8.533  13.277  0.00  0.00    +0.000 NA
ATOM      6  C   UNL     1      45.339   7.776  12.337  0.00  0.00    +0.000 A 
ENDROOT
BRANCH   4   7
ATOM      7  C   UNL     1      48.032   9.205  14.380  0.00  0.00    +0.000 C 
ATOM      8  N   UNL     1      47.569   9.148  15.666  0.00  0.00    +0.000 N 
ATOM      9  O   UNL     1      48.972   9.922  14.064  0.00  0.00    +0.000 OA
ATOM     10  H   UNL     1      46.779   8.552  15.887  0.00  0.00    +0.000 HD
ATOM     11  H   UNL     1      48.004   9.716  16.377  0.00  0.00    +0.000 HD
ENDBRANCH   4   7
BRANCH   1  12
ATOM     12  O   UNL     1      45.193   6.231  10.581  0.00  0.00    +0.000 OA
BRANCH  12  14
ATOM     13  C   UNL     1      45.087   4.198  12.075  0.00  0.00    +0.000 C 
ATOM     14  C   UNL     1      44.529   4.973  10.855  0.00  0.00    +0.000 C 
ATOM     15  C   UNL     1      43.025   5.236  11.054  0.00  0.00    +0.000 C 
BRANCH  14  16
ATOM     16  C   UNL     1      44.749   4.065   9.579  0.00  0.00    +0.000 C 
ATOM     17  C   UNL     1      45.079   2.602   9.962  0.00  0.00    +0.000 C 
ATOM     18  C   UNL     1      45.231   1.705   8.737  0.00  0.00    +0.000 C 
ATOM     19  C   UNL     1      46.285   2.239   7.778  0.00  0.00    +0.000 C 
ATOM     20  C   UNL     1      45.989   3.681   7.386  0.00  0.00    +0.000 C 
ATOM     21  C   UNL     1      45.832   4.587   8.609  0.00  0.00    +0.000 C 
ENDBRANCH  14  16
ENDBRANCH  12  14
ENDBRANCH   1  12
TORSDOF 4
ENDMDL
MODEL 4
REMARK VINA RESULT:    -6.026      2.852      6.291
REMARK INTER + INTRA:          -7.735
REMARK INTER:                  -7.512
REMARK INTRA:                  -0.223
REMARK UNBOUND:                -0.300
REMARK  Name = 
REMARK  6 active torsions:
REMARK  status: ('A' for Active; 'I' for Inactive)
REMARK    1  A    between atoms: C_1  and  C_2
REMARK    2  A    between atoms: C_2  and  C_3
REMARK    3  A    between atoms: C_2  and  O_4
REMARK    4  A    between atoms: C_2  and  C_14
REMARK    5  A    between atoms: O_4  and  C_5
REMARK    6  A    between atoms: C_8  and  C_9
REMARK                            x       y       z     vdW  Elec       q    Type
REMARK                         _______ _______ _______ _____ _____    ______ ____
ROOT
ATOM      1  C   UNL     1      45.345   4.726  11.556  0.00  0.00    +0.000 A 
ATOM      2  C   UNL     1      44.440   5.173  12.513  0.00  0.00    +0.000 A 
ATOM      3  C   UNL     1      44.520   6.483  12.985  0.00  0.00    +0.000 A 
ATOM      4  C   UNL     1      45.483   7.322  12.444  0.00  0.00    +0.000 A 
ATOM      5  N   UNL     1      46.342   6.950  11.457  0.00  0.00    +0.000 NA
ATOM      6  C   UNL     1      46.238   5.661  11.040  0.00  0.00    +0.000 A 
ENDROOT
BRANCH   4   7
ATOM      7  C   UNL     1      45.614   8.721  12.966  0.00  0.00    +0.000 C 
ATOM      8  N   UNL     1      46.549   8.900  13.949  0.00  0.00    +0.000 N 
ATOM      9  O   UNL     1      44.927   9.648  12.553  0.00  0.00    +0.000 OA
ATOM     10  H   UNL     1      47.089   8.106  14.275  0.00  0.00    +0.000 HD
ATOM     11  H   UNL     1      46.676   9.814  14.355  0.00  0.00    +0.000 HD
ENDBRANCH   4   7
BRANCH   1  12
ATOM     12  O   UNL     1      45.419   3.465  11.051  0.00  0.00    +0.000 OA
BRANCH  12  14
ATOM     13  C   UNL     1      43.928   1.793   9.886  0.00  0.00    +0.000 C 
ATOM     14  C   UNL     1      44.778   3.086   9.809  0.00  0.00    +0.000 C 
ATOM     15  C   UNL     1      43.898   4.253   9.325  0.00  0.00    +0.000 C 
BRANCH  14  16
ATOM     16  C   UNL     1      45.940   2.825   8.769  0.00  0.00    +0.000 C 
ATOM     17  C   UNL     1      45.831   3.755   7.536  0.00  0.00    +0.000 C 
ATOM     18  C   UNL     1      46.984   3.554   6.557  0.00  0.00    +0.000 C 
ATOM     19  C   UNL     1      47.088   2.105   6.105  0.00  0.00    +0.000 C 
ATOM     20  C   UNL     1      47.194   1.164   7.298  0.00  0.00    +0.000 C 
ATOM     21  C   UNL     1      46.042   1.361   8.286  0.00  0.00    +0.000 C 
ENDBRANCH  14  16
ENDBRANCH  12  14
ENDBRANCH   1  12
TORSDOF 4
ENDMDL
MODEL 5
REMARK VINA RESULT:    -5.845      3.675      6.401
REMARK INTER + INTRA:          -7.512
REMARK INTER:                  -7.784
REMARK INTRA:                   0.272
REMARK UNBOUND:                -0.300
REMARK  Name = 
REMARK  6 active torsions:
REMARK  status: ('A' for Active; 'I' for Inactive)
REMARK    1  A    between atoms: C_1  and  C_2
REMARK    2  A    between atoms: C_2  and  C_3
REMARK    3  A    between atoms: C_2  and  O_4
REMARK    4  A    between atoms: C_2  and  C_14
REMARK    5  A    between atoms: O_4  and  C_5
REMARK    6  A    between atoms: C_8  and  C_9
REMARK                            x       y       z     vdW  Elec       q    Type
REMARK                         _______ _______ _______ _____ _____    ______ ____
ROOT
ATOM      1  C   UNL     1      46.378   4.698  13.413  0.00  0.00    +0.000 A 
ATOM      2  C   UNL     1      46.773   5.811  12.680  0.00  0.00    +0.000 A 
ATOM      3  C   UNL     1      47.693   6.709  13.223  0.00  0.00    +0.000 A 
ATOM      4  C   UNL     1      48.225   6.433  14.474  0.00  0.00    +0.000 A 
ATOM      5  N   UNL     1      47.920   5.322  15.197  0.00  0.00    +0.000 NA
ATOM      6  C   UNL     1      47.010   4.485  14.636  0.00  0.00    +0.000 A 
ENDROOT
BRANCH   4   7
ATOM      7  C   UNL     1      49.182   7.406  15.094  0.00  0.00    +0.000 C 
ATOM      8  N   UNL     1      50.491   7.266  14.720  0.00  0.00    +0.000 N 
ATOM      9  O   UNL     1      48.827   8.268  15.888  0.00  0.00    +0.000 OA
ATOM     10  H   UNL     1      50.749   6.532  14.070  0.00  0.00    +0.000 HD
ATOM     11  H   UNL     1      51.189   7.879  15.113  0.00  0.00    +0.000 HD
ENDBRANCH   4   7
BRANCH   1  12
ATOM     12  O   UNL     1      45.451   3.776  13.034  0.00  0.00    +0.000 OA
BRANCH  12  14
ATOM     13  C   UNL     1      43.222   3.148  12.030  0.00  0.00    +0.000 C 
ATOM     14  C   UNL     1      44.497   4.025  11.973  0.00  0.00    +0.000 C 
ATOM     15  C   UNL     1      44.102   5.513  11.997  0.00  0.00    +0.000 C 
BRANCH  14  16
ATOM     16  C   UNL     1      45.240   3.690  10.618  0.00  0.00    +0.000 C 
ATOM     17  C   UNL     1      45.163   4.864   9.612  0.00  0.00    +0.000 C 
ATOM     18  C   UNL     1      45.931   4.574   8.326  0.00  0.00    +0.000 C 
ATOM     19  C   UNL     1      45.450   3.292   7.663  0.00  0.00    +0.000 C 
ATOM     20  C   UNL     1      45.511   2.117   8.631  0.00  0.00    +0.000 C 
ATOM     21  C   UNL     1      44.745   2.401   9.926  0.00  0.00    +0.000 C 
ENDBRANCH  14  16
ENDBRANCH  12  14
ENDBRANCH   1  12
TORSDOF 4
ENDMDL
MODEL 6
REMARK VINA RESULT:    -5.748      3.232      5.453
REMARK INTER + INTRA:          -7.392
REMARK INTER:                  -7.246
REMARK INTRA:                  -0.145
REMARK UNBOUND:                -0.300
REMARK  Name = 
REMARK  6 active torsions:
REMARK  status: ('A' for Active; 'I' for Inactive)
REMARK    1  A    between atoms: C_1  and  C_2
REMARK    2  A    between atoms: C_2  and  C_3
REMARK    3  A    between atoms: C_2  and  O_4
REMARK    4  A    between atoms: C_2  and  C_14
REMARK    5  A    between atoms: O_4  and  C_5
REMARK    6  A    between atoms: C_8  and  C_9
REMARK                            x       y       z     vdW  Elec       q    Type
REMARK                         _______ _______ _______ _____ _____    ______ ____
ROOT
ATOM      1  C   UNL     1      46.614   5.798  12.815  0.00  0.00    +0.000 A 
ATOM      2  C   UNL     1      46.147   6.004  11.521  0.00  0.00    +0.000 A 
ATOM      3  C   UNL     1      45.314   5.058  10.925  0.00  0.00    +0.000 A 
ATOM      4  C   UNL     1      44.936   3.949  11.668  0.00  0.00    +0.000 A 
ATOM      5  N   UNL     1      45.311   3.741  12.960  0.00  0.00    +0.000 NA
ATOM      6  C   UNL     1      46.134   4.680  13.493  0.00  0.00    +0.000 A 
ENDROOT
BRANCH   4   7
ATOM      7  C   UNL     1      44.076   2.899  11.033  0.00  0.00    +0.000 C 
ATOM      8  N   UNL     1      44.639   2.233   9.979  0.00  0.00    +0.000 N 
ATOM      9  O   UNL     1      42.940   2.652  11.419  0.00  0.00    +0.000 OA
ATOM     10  H   UNL     1      45.576   2.474   9.678  0.00  0.00    +0.000 HD
ATOM     11  H   UNL     1      44.107   1.525   9.496  0.00  0.00    +0.000 HD
ENDBRANCH   4   7
BRANCH   1  12
ATOM     12  O   UNL     1      47.474   6.604  13.495  0.00  0.00    +0.000 OA
BRANCH  12  14
ATOM     13  C   UNL     1      46.006   8.615  13.072  0.00  0.00    +0.000 C 
ATOM     14  C   UNL     1      47.405   8.049  13.422  0.00  0.00    +0.000 C 
ATOM     15  C   UNL     1      47.879   8.639  14.763  0.00  0.00    +0.000 C 
BRANCH  14  16
ATOM     16  C   UNL     1      48.393   8.485  12.267  0.00  0.00    +0.000 C 
ATOM     17  C   UNL     1      49.751   7.749  12.361  0.00  0.00    +0.000 C 
ATOM     18  C   UNL     1      50.688   8.116  11.213  0.00  0.00    +0.000 C 
ATOM     19  C   UNL     1      50.917   9.618  11.136  0.00  0.00    +0.000 C 
ATOM     20  C   UNL     1      49.596  10.371  11.046  0.00  0.00    +0.000 C 
ATOM     21  C   UNL     1      48.650  10.006  12.193  0.00  0.00    +0.000 C 
ENDBRANCH  14  16
ENDBRANCH  12  14
ENDBRANCH   1  12
TORSDOF 4
ENDMDL
MODEL 7
REMARK VINA RESULT:    -5.677      4.244      6.615
REMARK INTER + INTRA:          -7.304
REMARK INTER:                  -6.767
REMARK INTRA:                  -0.537
REMARK UNBOUND:                -0.300
REMARK  Name = 
REMARK  6 active torsions:
REMARK  status: ('A' for Active; 'I' for Inactive)
REMARK    1  A    between atoms: C_1  and  C_2
REMARK    2  A    between atoms: C_2  and  C_3
REMARK    3  A    between atoms: C_2  and  O_4
REMARK    4  A    between atoms: C_2  and  C_14
REMARK    5  A    between atoms: O_4  and  C_5
REMARK    6  A    between atoms: C_8  and  C_9
REMARK                            x       y       z     vdW  Elec       q    Type
REMARK                         _______ _______ _______ _____ _____    ______ ____
ROOT
ATOM      1  C   UNL     1      47.571   5.866  13.110  0.00  0.00    +0.000 A 
ATOM      2  C   UNL     1      46.678   6.242  12.112  0.00  0.00    +0.000 A 
ATOM      3  C   UNL     1      45.418   5.646  12.048  0.00  0.00    +0.000 A 
ATOM      4  C   UNL     1      45.076   4.719  13.021  0.00  0.00    +0.000 A 
ATOM      5  N   UNL     1      45.889   4.373  14.055  0.00  0.00    +0.000 NA
ATOM      6  C   UNL     1      47.111   4.966  14.068  0.00  0.00    +0.000 A 
ENDROOT
BRANCH   4   7
ATOM      7  C   UNL     1      43.743   4.036  12.946  0.00  0.00    +0.000 C 
ATOM      8  N   UNL     1      43.779   2.707  12.623  0.00  0.00    +0.000 N 
ATOM      9  O   UNL     1      42.688   4.622  13.151  0.00  0.00    +0.000 OA
ATOM     10  H   UNL     1      44.671   2.259  12.447  0.00  0.00    +0.000 HD
ATOM     11  H   UNL     1      42.916   2.192  12.540  0.00  0.00    +0.000 HD
ENDBRANCH   4   7
BRANCH   1  12
ATOM     12  O   UNL     1      48.845   6.320  13.257  0.00  0.00    +0.000 OA
BRANCH  12  14
ATOM     13  C   UNL     1      47.999   8.361  14.478  0.00  0.00    +0.000 C 
ATOM     14  C   UNL     1      49.144   7.666  13.700  0.00  0.00    +0.000 C 
ATOM     15  C   UNL     1      50.414   7.634  14.569  0.00  0.00    +0.000 C 
BRANCH  14  16
ATOM     16  C   UNL     1      49.410   8.516  12.394  0.00  0.00    +0.000 C 
ATOM     17  C   UNL     1      50.914   8.833  12.209  0.00  0.00    +0.000 C 
ATOM     18  C   UNL     1      51.188   9.599  10.917  0.00  0.00    +0.000 C 
ATOM     19  C   UNL     1      50.375  10.883  10.844  0.00  0.00    +0.000 C 
ATOM     20  C   UNL     1      48.889  10.603  11.027  0.00  0.00    +0.000 C 
ATOM     21  C   UNL     1      48.606   9.833  12.319  0.00  0.00    +0.000 C 
ENDBRANCH  14  16
ENDBRANCH  12  14
ENDBRANCH   1  12
TORSDOF 4
ENDMDL
MODEL 8
REMARK VINA RESULT:    -5.666      4.428      7.049
REMARK INTER + INTRA:          -7.291
REMARK INTER:                  -7.130
REMARK INTRA:                  -0.161
REMARK UNBOUND:                -0.300
REMARK  Name = 
REMARK  6 active torsions:
REMARK  status: ('A' for Active; 'I' for Inactive)
REMARK    1  A    between atoms: C_1  and  C_2
REMARK    2  A    between atoms: C_2  and  C_3
REMARK    3  A    between atoms: C_2  and  O_4
REMARK    4  A    between atoms: C_2  and  C_14
REMARK    5  A    between atoms: O_4  and  C_5
REMARK    6  A    between atoms: C_8  and  C_9
REMARK                            x       y       z     vdW  Elec       q    Type
REMARK                         _______ _______ _______ _____ _____    ______ ____
ROOT
ATOM      1  C   UNL     1      47.305   5.422  13.842  0.00  0.00    +0.000 A 
ATOM      2  C   UNL     1      46.875   4.209  14.369  0.00  0.00    +0.000 A 
ATOM      3  C   UNL     1      47.301   3.815  15.638  0.00  0.00    +0.000 A 
ATOM      4  C   UNL     1      48.112   4.678  16.361  0.00  0.00    +0.000 A 
ATOM      5  N   UNL     1      48.499   5.903  15.914  0.00  0.00    +0.000 NA
ATOM      6  C   UNL     1      48.074   6.237  14.668  0.00  0.00    +0.000 A 
ENDROOT
BRANCH   4   7
ATOM      7  C   UNL     1      48.614   4.256  17.708  0.00  0.00    +0.000 C 
ATOM      8  N   UNL     1      47.929   3.230  18.299  0.00  0.00    +0.000 N 
ATOM      9  O   UNL     1      49.569   4.793  18.255  0.00  0.00    +0.000 OA
ATOM     10  H   UNL     1      47.134   2.819  17.822  0.00  0.00    +0.000 HD
ATOM     11  H   UNL     1      48.206   2.908  19.214  0.00  0.00    +0.000 HD
ENDBRANCH   4   7
BRANCH   1  12
ATOM     12  O   UNL     1      47.018   5.903  12.602  0.00  0.00    +0.000 OA
BRANCH  12  14
ATOM     13  C   UNL     1      44.563   5.569  13.089  0.00  0.00    +0.000 C 
ATOM     14  C   UNL     1      45.673   5.909  12.063  0.00  0.00    +0.000 C 
ATOM     15  C   UNL     1      45.393   7.287  11.437  0.00  0.00    +0.000 C 
BRANCH  14  16
ATOM     16  C   UNL     1      45.637   4.794  10.943  0.00  0.00    +0.000 C 
ATOM     17  C   UNL     1      45.718   5.401   9.522  0.00  0.00    +0.000 C 
ATOM     18  C   UNL     1      45.748   4.329   8.436  0.00  0.00    +0.000 C 
ATOM     19  C   UNL     1      44.548   3.399   8.534  0.00  0.00    +0.000 C 
ATOM     20  C   UNL     1      44.439   2.788   9.925  0.00  0.00    +0.000 C 
ATOM     21  C   UNL     1      44.412   3.856  11.020  0.00  0.00    +0.000 C 
ENDBRANCH  14  16
ENDBRANCH  12  14
ENDBRANCH   1  12
TORSDOF 4
ENDMDL
MODEL 9
REMARK VINA RESULT:    -5.583      3.203      5.536
REMARK INTER + INTRA:          -7.189
REMARK INTER:                  -6.893
REMARK INTRA:                  -0.295
REMARK UNBOUND:                -0.300
REMARK  Name = 
REMARK  6 active torsions:
REMARK  status: ('A' for Active; 'I' for Inactive)
REMARK    1  A    between atoms: C_1  and  C_2
REMARK    2  A    between atoms: C_2  and  C_3
REMARK    3  A    between atoms: C_2  and  O_4
REMARK    4  A    between atoms: C_2  and  C_14
REMARK    5  A    between atoms: O_4  and  C_5
REMARK    6  A    between atoms: C_8  and  C_9
REMARK                            x       y       z     vdW  Elec       q    Type
REMARK                         _______ _______ _______ _____ _____    ______ ____
ROOT
ATOM      1  C   UNL     1      45.656   6.506  12.486  0.00  0.00    +0.000 A 
ATOM      2  C   UNL     1      45.408   6.364  11.125  0.00  0.00    +0.000 A 
ATOM      3  C   UNL     1      44.856   5.178  10.641  0.00  0.00    +0.000 A 
ATOM      4  C   UNL     1      44.525   4.184  11.551  0.00  0.00    +0.000 A 
ATOM      5  N   UNL     1      44.684   4.307  12.896  0.00  0.00    +0.000 NA
ATOM      6  C   UNL     1      45.240   5.472  13.320  0.00  0.00    +0.000 A 
ENDROOT
BRANCH   4   7
ATOM      7  C   UNL     1      43.970   2.885  11.048  0.00  0.00    +0.000 C 
ATOM      8  N   UNL     1      44.619   2.342   9.973  0.00  0.00    +0.000 N 
ATOM      9  O   UNL     1      42.995   2.344  11.553  0.00  0.00    +0.000 OA
ATOM     10  H   UNL     1      45.414   2.827   9.573  0.00  0.00    +0.000 HD
ATOM     11  H   UNL     1      44.286   1.477   9.576  0.00  0.00    +0.000 HD
ENDBRANCH   4   7
BRANCH   1  12
ATOM     12  O   UNL     1      46.240   7.578  13.086  0.00  0.00    +0.000 OA
BRANCH  12  14
ATOM     13  C   UNL     1      48.260   7.614  14.601  0.00  0.00    +0.000 C 
ATOM     14  C   UNL     1      47.678   7.733  13.171  0.00  0.00    +0.000 C 
ATOM     15  C   UNL     1      48.346   6.693  12.253  0.00  0.00    +0.000 C 
BRANCH  14  16
ATOM     16  C   UNL     1      48.000   9.191  12.650  0.00  0.00    +0.000 C 
ATOM     17  C   UNL     1      46.739   9.900  12.102  0.00  0.00    +0.000 C 
ATOM     18  C   UNL     1      47.028  11.331  11.656  0.00  0.00    +0.000 C 
ATOM     19  C   UNL     1      48.141  11.380  10.619  0.00  0.00    +0.000 C 
ATOM     20  C   UNL     1      49.397  10.686  11.130  0.00  0.00    +0.000 C 
ATOM     21  C   UNL     1      49.115   9.251  11.582  0.00  0.00    +0.000 C 
ENDBRANCH  14  16
ENDBRANCH  12  14
ENDBRANCH   1  12
TORSDOF 4
ENDMDL
