MODEL 1
REMARK VINA RESULT:    -7.662      0.000      0.000
REMARK INTER + INTRA:         -11.487
REMARK INTER:                 -10.350
REMARK INTRA:                  -1.137
REMARK UNBOUND:                -1.137
REMARK  Name = 
REMARK  8 active torsions:
REMARK  status: ('A' for Active; 'I' for Inactive)
REMARK    1  A    between atoms: C_1  and  C_2
REMARK    2  A    between atoms: C_2  and  N_3
REMARK    3  A    between atoms: C_2  and  C_16
REMARK    4  A    between atoms: C_4  and  C_6
REMARK    5  A    between atoms: C_19  and  C_20
REMARK    6  A    between atoms: C_20  and  N_21
REMARK    7  A    between atoms: C_22  and  C_24
REMARK    8  A    between atoms: N_28  and  C_29
REMARK                            x       y       z     vdW  Elec       q    Type
REMARK                         _______ _______ _______ _____ _____    ______ ____
ROOT
ATOM      1  C   UNL     1      47.513   2.842  17.664  0.00  0.00    +0.000 C 
ATOM      2  C   UNL     1      48.380   4.085  17.430  0.00  0.00    +0.000 C 
ENDROOT
BRANCH   2   3
ATOM      3  C   UNL     1      47.998   4.783  16.125  0.00  0.00    +0.000 A 
ATOM      4  C   UNL     1      48.557   6.014  15.778  0.00  0.00    +0.000 A 
ATOM      5  C   UNL     1      48.157   6.641  14.596  0.00  0.00    +0.000 A 
ATOM      6  C   UNL     1      47.211   6.027  13.777  0.00  0.00    +0.000 A 
ATOM      7  C   UNL     1      46.702   4.808  14.199  0.00  0.00    +0.000 A 
ATOM      8  N   UNL     1      47.066   4.181  15.346  0.00  0.00    +0.000 NA
BRANCH   6   9
ATOM      9  C   UNL     1      46.716   6.678  12.515  0.00  0.00    +0.000 C 
BRANCH   9  10
ATOM     10  N   UNL     1      46.404   5.689  11.512  0.00  0.00    +0.000 N 
ATOM     11  C   UNL     1      45.139   5.584  10.978  0.00  0.00    +0.000 C 
ATOM     12  O   UNL     1      44.215   6.311  11.330  0.00  0.00    +0.000 OA
ATOM     13  H   UNL     1      47.159   5.233  11.024  0.00  0.00    +0.000 HD
BRANCH  11  14
ATOM     14  C   UNL     1      45.020   4.565   9.952  0.00  0.00    +0.000 A 
ATOM     15  C   UNL     1      45.541   4.562   8.661  0.00  0.00    +0.000 A 
ATOM     16  C   UNL     1      45.182   3.347   8.034  0.00  0.00    +0.000 A 
ATOM     17  C   UNL     1      44.451   2.624   8.944  0.00  0.00    +0.000 A 
ATOM     18  N   UNL     1      44.363   3.357  10.100  0.00  0.00    +0.000 N 
ATOM     19  C   UNL     1      43.633   2.932  11.277  0.00  0.00    +0.000 C 
ENDBRANCH  11  14
ENDBRANCH   9  10
ENDBRANCH   6   9
ENDBRANCH   2   3
BRANCH   2  20
ATOM     20  N   UNL     1      49.803   3.770  17.440  0.00  0.00    +0.000 N 
ATOM     21  C   UNL     1      50.651   4.122  18.455  0.00  0.00    +0.000 C 
ATOM     22  O   UNL     1      50.279   4.759  19.436  0.00  0.00    +0.000 OA
ATOM     23  H   UNL     1      50.168   3.272  16.637  0.00  0.00    +0.000 HD
BRANCH  21  24
ATOM     24  C   UNL     1      52.059   3.742  18.284  0.00  0.00    +0.000 A 
ATOM     25  C   UNL     1      53.058   4.662  18.572  0.00  0.00    +0.000 A 
ATOM     26  S   UNL     1      54.630   4.081  18.261  0.00  0.00    +0.000 S 
ATOM     27  C   UNL     1      54.033   2.566  17.769  0.00  0.00    +0.000 A 
ATOM     28  N   UNL     1      54.877   1.585  17.351  0.00  0.00    +0.000 NA
ATOM     29  C   UNL     1      54.295   0.476  17.039  0.00  0.00    +0.000 A 
ATOM     30  N   UNL     1      52.943   0.255  17.119  0.00  0.00    +0.000 N 
ATOM     31  C   UNL     1      52.050   1.219  17.524  0.00  0.00    +0.000 A 
ATOM     32  O   UNL     1      50.845   0.988  17.561  0.00  0.00    +0.000 OA
ATOM     33  C   UNL     1      52.653   2.496  17.860  0.00  0.00    +0.000 A 
ATOM     34  H   UNL     1      52.553  -0.642  16.867  0.00  0.00    +0.000 HD
ENDBRANCH  21  24
ENDBRANCH   2  20
TORSDOF 6
ENDMDL
MODEL 2
REMARK VINA RESULT:    -7.184      2.882      9.429
REMARK INTER + INTRA:         -10.841
REMARK INTER:                  -9.822
REMARK INTRA:                  -1.019
REMARK UNBOUND:                -1.137
REMARK  Name = 
REMARK  8 active torsions:
REMARK  status: ('A' for Active; 'I' for Inactive)
REMARK    1  A    between atoms: C_1  and  C_2
REMARK    2  A    between atoms: C_2  and  N_3
REMARK    3  A    between atoms: C_2  and  C_16
REMARK    4  A    between atoms: C_4  and  C_6
REMARK    5  A    between atoms: C_19  and  C_20
REMARK    6  A    between atoms: C_20  and  N_21
REMARK    7  A    between atoms: C_22  and  C_24
REMARK    8  A    between atoms: N_28  and  C_29
REMARK                            x       y       z     vdW  Elec       q    Type
REMARK                         _______ _______ _______ _____ _____    ______ ____
ROOT
ATOM      1  C   UNL     1      48.822   8.003  11.386  0.00  0.00    +0.000 C 
ATOM      2  C   UNL     1      47.889   7.698  12.563  0.00  0.00    +0.000 C 
ENDROOT
BRANCH   2   3
ATOM      3  C   UNL     1      48.681   7.519  13.858  0.00  0.00    +0.000 A 
ATOM      4  C   UNL     1      49.736   8.374  14.179  0.00  0.00    +0.000 A 
ATOM      5  C   UNL     1      50.463   8.159  15.352  0.00  0.00    +0.000 A 
ATOM      6  C   UNL     1      50.122   7.097  16.188  0.00  0.00    +0.000 A 
ATOM      7  C   UNL     1      49.065   6.292  15.792  0.00  0.00    +0.000 A 
ATOM      8  N   UNL     1      48.347   6.473  14.654  0.00  0.00    +0.000 NA
BRANCH   6   9
ATOM      9  C   UNL     1      50.897   6.797  17.441  0.00  0.00    +0.000 C 
BRANCH   9  10
ATOM     10  N   UNL     1      51.457   5.467  17.396  0.00  0.00    +0.000 N 
ATOM     11  C   UNL     1      51.028   4.479  18.255  0.00  0.00    +0.000 C 
ATOM     12  O   UNL     1      50.162   4.676  19.103  0.00  0.00    +0.000 OA
ATOM     13  H   UNL     1      51.986   5.188  16.586  0.00  0.00    +0.000 HD
BRANCH  11  14
ATOM     14  C   UNL     1      51.668   3.196  18.036  0.00  0.00    +0.000 A 
ATOM     15  C   UNL     1      52.944   2.784  18.410  0.00  0.00    +0.000 A 
ATOM     16  C   UNL     1      53.121   1.443  17.999  0.00  0.00    +0.000 A 
ATOM     17  C   UNL     1      51.958   1.053  17.382  0.00  0.00    +0.000 A 
ATOM     18  N   UNL     1      51.083   2.109  17.414  0.00  0.00    +0.000 N 
ATOM     19  C   UNL     1      49.760   2.084  16.824  0.00  0.00    +0.000 C 
ENDBRANCH  11  14
ENDBRANCH   9  10
ENDBRANCH   6   9
ENDBRANCH   2   3
BRANCH   2  20
ATOM     20  N   UNL     1      47.054   6.529  12.313  0.00  0.00    +0.000 N 
ATOM     21  C   UNL     1      45.795   6.598  11.781  0.00  0.00    +0.000 C 
ATOM     22  O   UNL     1      45.256   7.661  11.492  0.00  0.00    +0.000 OA
ATOM     23  H   UNL     1      47.441   5.628  12.563  0.00  0.00    +0.000 HD
BRANCH  21  24
ATOM     24  C   UNL     1      45.091   5.319  11.621  0.00  0.00    +0.000 A 
ATOM     25  C   UNL     1      44.354   4.803  12.679  0.00  0.00    +0.000 A 
ATOM     26  S   UNL     1      43.653   3.286  12.347  0.00  0.00    +0.000 S 
ATOM     27  C   UNL     1      44.274   3.283  10.764  0.00  0.00    +0.000 A 
ATOM     28  N   UNL     1      44.047   2.236   9.927  0.00  0.00    +0.000 NA
ATOM     29  C   UNL     1      44.547   2.378   8.745  0.00  0.00    +0.000 A 
ATOM     30  N   UNL     1      45.244   3.480   8.320  0.00  0.00    +0.000 N 
ATOM     31  C   UNL     1      45.509   4.557   9.133  0.00  0.00    +0.000 A 
ATOM     32  O   UNL     1      46.155   5.516   8.721  0.00  0.00    +0.000 OA
ATOM     33  C   UNL     1      44.991   4.434  10.483  0.00  0.00    +0.000 A 
ATOM     34  H   UNL     1      45.601   3.530   7.377  0.00  0.00    +0.000 HD
ENDBRANCH  21  24
ENDBRANCH   2  20
TORSDOF 6
ENDMDL
MODEL 3
REMARK VINA RESULT:    -7.031      3.964      5.818
REMARK INTER + INTRA:         -10.635
REMARK INTER:                 -10.007
REMARK INTRA:                  -0.628
REMARK UNBOUND:                -1.137
REMARK  Name = 
REMARK  8 active torsions:
REMARK  status: ('A' for Active; 'I' for Inactive)
REMARK    1  A    between atoms: C_1  and  C_2
REMARK    2  A    between atoms: C_2  and  N_3
REMARK    3  A    between atoms: C_2  and  C_16
REMARK    4  A    between atoms: C_4  and  C_6
REMARK    5  A    between atoms: C_19  and  C_20
REMARK    6  A    between atoms: C_20  and  N_21
REMARK    7  A    between atoms: C_22  and  C_24
REMARK    8  A    between atoms: N_28  and  C_29
REMARK                            x       y       z     vdW  Elec       q    Type
REMARK                         _______ _______ _______ _____ _____    ______ ____
ROOT
ATOM      1  C   UNL     1      47.525   3.488  15.403  0.00  0.00    +0.000 C 
ATOM      2  C   UNL     1      46.976   4.847  14.955  0.00  0.00    +0.000 C 
ENDROOT
BRANCH   2   3
ATOM      3  C   UNL     1      46.269   4.735  13.604  0.00  0.00    +0.000 A 
ATOM      4  C   UNL     1      46.312   5.781  12.682  0.00  0.00    +0.000 A 
ATOM      5  C   UNL     1      45.625   5.660  11.472  0.00  0.00    +0.000 A 
ATOM      6  C   UNL     1      44.910   4.494  11.201  0.00  0.00    +0.000 A 
ATOM      7  C   UNL     1      44.913   3.506  12.174  0.00  0.00    +0.000 A 
ATOM      8  N   UNL     1      45.566   3.602  13.361  0.00  0.00    +0.000 NA
BRANCH   6   9
ATOM      9  C   UNL     1      44.119   4.329   9.933  0.00  0.00    +0.000 C 
BRANCH   9  10
ATOM     10  N   UNL     1      44.985   4.020   8.821  0.00  0.00    +0.000 N 
ATOM     11  C   UNL     1      45.329   2.721   8.519  0.00  0.00    +0.000 C 
ATOM     12  O   UNL     1      44.929   1.765   9.178  0.00  0.00    +0.000 OA
ATOM     13  H   UNL     1      45.149   4.724   8.119  0.00  0.00    +0.000 HD
BRANCH  11  14
ATOM     14  C   UNL     1      46.170   2.597   7.343  0.00  0.00    +0.000 A 
ATOM     15  C   UNL     1      46.464   3.554   6.377  0.00  0.00    +0.000 A 
ATOM     16  C   UNL     1      47.344   2.981   5.430  0.00  0.00    +0.000 A 
ATOM     17  C   UNL     1      47.577   1.687   5.827  0.00  0.00    +0.000 A 
ATOM     18  N   UNL     1      46.875   1.462   6.984  0.00  0.00    +0.000 N 
ATOM     19  C   UNL     1      46.846   0.193   7.682  0.00  0.00    +0.000 C 
ENDBRANCH  11  14
ENDBRANCH   9  10
ENDBRANCH   6   9
ENDBRANCH   2   3
BRANCH   2  20
ATOM     20  N   UNL     1      48.016   5.867  14.901  0.00  0.00    +0.000 N 
ATOM     21  C   UNL     1      48.642   6.371  16.009  0.00  0.00    +0.000 C 
ATOM     22  O   UNL     1      48.356   6.016  17.148  0.00  0.00    +0.000 OA
ATOM     23  H   UNL     1      48.267   6.217  13.985  0.00  0.00    +0.000 HD
BRANCH  21  24
ATOM     24  C   UNL     1      49.649   7.412  15.765  0.00  0.00    +0.000 A 
ATOM     25  C   UNL     1      50.961   7.205  16.170  0.00  0.00    +0.000 A 
ATOM     26  S   UNL     1      51.986   8.533  15.867  0.00  0.00    +0.000 S 
ATOM     27  C   UNL     1      50.721   9.416  15.149  0.00  0.00    +0.000 A 
ATOM     28  N   UNL     1      50.929  10.673  14.676  0.00  0.00    +0.000 NA
ATOM     29  C   UNL     1      49.895  11.216  14.126  0.00  0.00    +0.000 A 
ATOM     30  N   UNL     1      48.672  10.608  13.995  0.00  0.00    +0.000 N 
ATOM     31  C   UNL     1      48.411   9.343  14.468  0.00  0.00    +0.000 A 
ATOM     32  O   UNL     1      47.297   8.841  14.349  0.00  0.00    +0.000 OA
ATOM     33  C   UNL     1      49.537   8.700  15.121  0.00  0.00    +0.000 A 
ATOM     34  H   UNL     1      47.905  11.086  13.545  0.00  0.00    +0.000 HD
ENDBRANCH  21  24
ENDBRANCH   2  20
TORSDOF 6
ENDMDL
MODEL 4
REMARK VINA RESULT:    -6.958      3.299      4.539
REMARK INTER + INTRA:         -10.536
REMARK INTER:                  -9.964
REMARK INTRA:                  -0.572
REMARK UNBOUND:                -1.137
REMARK  Name = 
REMARK  8 active torsions:
REMARK  status: ('A' for Active; 'I' for Inactive)
REMARK    1  A    between atoms: C_1  and  C_2
REMARK    2  A    between atoms: C_2  and  N_3
REMARK    3  A    between atoms: C_2  and  C_16
REMARK    4  A    between atoms: C_4  and  C_6
REMARK    5  A    between atoms: C_19  and  C_20
REMARK    6  A    between atoms: C_20  and  N_21
REMARK    7  A    between atoms: C_22  and  C_24
REMARK    8  A    between atoms: N_28  and  C_29
REMARK                            x       y       z     vdW  Elec       q    Type
REMARK                         _______ _______ _______ _____ _____    ______ ____
ROOT
ATOM      1  C   UNL     1      47.552   3.338  15.687  0.00  0.00    +0.000 C 
ATOM      2  C   UNL     1      47.064   4.719  15.234  0.00  0.00    +0.000 C 
ENDROOT
BRANCH   2   3
ATOM      3  C   UNL     1      46.349   4.632  13.885  0.00  0.00    +0.000 A 
ATOM      4  C   UNL     1      46.017   5.785  13.173  0.00  0.00    +0.000 A 
ATOM      5  C   UNL     1      45.331   5.671  11.962  0.00  0.00    +0.000 A 
ATOM      6  C   UNL     1      44.992   4.408  11.480  0.00  0.00    +0.000 A 
ATOM      7  C   UNL     1      45.353   3.315  12.253  0.00  0.00    +0.000 A 
ATOM      8  N   UNL     1      46.013   3.398  13.436  0.00  0.00    +0.000 NA
BRANCH   6   9
ATOM      9  C   UNL     1      44.217   4.231  10.202  0.00  0.00    +0.000 C 
BRANCH   9  10
ATOM     10  N   UNL     1      45.102   3.952   9.097  0.00  0.00    +0.000 N 
ATOM     11  C   UNL     1      45.243   2.677   8.595  0.00  0.00    +0.000 C 
ATOM     12  O   UNL     1      44.638   1.716   9.063  0.00  0.00    +0.000 OA
ATOM     13  H   UNL     1      45.436   4.717   8.533  0.00  0.00    +0.000 HD
BRANCH  11  14
ATOM     14  C   UNL     1      46.139   2.592   7.458  0.00  0.00    +0.000 A 
ATOM     15  C   UNL     1      46.479   3.581   6.540  0.00  0.00    +0.000 A 
ATOM     16  C   UNL     1      47.403   3.041   5.617  0.00  0.00    +0.000 A 
ATOM     17  C   UNL     1      47.617   1.734   5.979  0.00  0.00    +0.000 A 
ATOM     18  N   UNL     1      46.861   1.470   7.093  0.00  0.00    +0.000 N 
ATOM     19  C   UNL     1      46.799   0.177   7.745  0.00  0.00    +0.000 C 
ENDBRANCH  11  14
ENDBRANCH   9  10
ENDBRANCH   6   9
ENDBRANCH   2   3
BRANCH   2  20
ATOM     20  N   UNL     1      48.149   5.691  15.172  0.00  0.00    +0.000 N 
ATOM     21  C   UNL     1      48.662   6.325  16.271  0.00  0.00    +0.000 C 
ATOM     22  O   UNL     1      48.229   6.140  17.403  0.00  0.00    +0.000 OA
ATOM     23  H   UNL     1      48.522   5.903  14.255  0.00  0.00    +0.000 HD
BRANCH  21  24
ATOM     24  C   UNL     1      49.738   7.291  16.016  0.00  0.00    +0.000 A 
ATOM     25  C   UNL     1      49.420   8.581  15.610  0.00  0.00    +0.000 A 
ATOM     26  S   UNL     1      50.785   9.554  15.299  0.00  0.00    +0.000 S 
ATOM     27  C   UNL     1      51.848   8.299  15.733  0.00  0.00    +0.000 A 
ATOM     28  N   UNL     1      53.195   8.473  15.675  0.00  0.00    +0.000 NA
ATOM     29  C   UNL     1      53.884   7.454  16.063  0.00  0.00    +0.000 A 
ATOM     30  N   UNL     1      53.346   6.276  16.518  0.00  0.00    +0.000 N 
ATOM     31  C   UNL     1      51.991   6.049  16.585  0.00  0.00    +0.000 A 
ATOM     32  O   UNL     1      51.549   4.974  16.978  0.00  0.00    +0.000 OA
ATOM     33  C   UNL     1      51.172   7.158  16.131  0.00  0.00    +0.000 A 
ATOM     34  H   UNL     1      53.944   5.520  16.816  0.00  0.00    +0.000 HD
ENDBRANCH  21  24
ENDBRANCH   2  20
TORSDOF 6
ENDMDL
MODEL 5
REMARK VINA RESULT:    -6.926      3.073      9.443
REMARK INTER + INTRA:         -10.492
REMARK INTER:                  -9.514
REMARK INTRA:                  -0.978
REMARK UNBOUND:                -1.137
REMARK  Name = 
REMARK  8 active torsions:
REMARK  status: ('A' for Active; 'I' for Inactive)
REMARK    1  A    between atoms: C_1  and  C_2
REMARK    2  A    between atoms: C_2  and  N_3
REMARK    3  A    between atoms: C_2  and  C_16
REMARK    4  A    between atoms: C_4  and  C_6
REMARK    5  A    between atoms: C_19  and  C_20
REMARK    6  A    between atoms: C_20  and  N_21
REMARK    7  A    between atoms: C_22  and  C_24
REMARK    8  A    between atoms: N_28  and  C_29
REMARK                            x       y       z     vdW  Elec       q    Type
REMARK                         _______ _______ _______ _____ _____    ______ ____
ROOT
ATOM      1  C   UNL     1      49.216   8.712  11.462  0.00  0.00    +0.000 C 
ATOM      2  C   UNL     1      48.149   8.091  12.372  0.00  0.00    +0.000 C 
ENDROOT
BRANCH   2   3
ATOM      3  C   UNL     1      48.756   7.644  13.702  0.00  0.00    +0.000 A 
ATOM      4  C   UNL     1      48.191   6.598  14.433  0.00  0.00    +0.000 A 
ATOM      5  C   UNL     1      48.749   6.240  15.662  0.00  0.00    +0.000 A 
ATOM      6  C   UNL     1      49.863   6.928  16.139  0.00  0.00    +0.000 A 
ATOM      7  C   UNL     1      50.357   7.959  15.354  0.00  0.00    +0.000 A 
ATOM      8  N   UNL     1      49.830   8.332  14.160  0.00  0.00    +0.000 NA
BRANCH   6   9
ATOM      9  C   UNL     1      50.477   6.610  17.475  0.00  0.00    +0.000 C 
BRANCH   9  10
ATOM     10  N   UNL     1      51.138   5.328  17.446  0.00  0.00    +0.000 N 
ATOM     11  C   UNL     1      50.612   4.235  18.099  0.00  0.00    +0.000 C 
ATOM     12  O   UNL     1      49.568   4.294  18.742  0.00  0.00    +0.000 OA
ATOM     13  H   UNL     1      51.855   5.163  16.757  0.00  0.00    +0.000 HD
BRANCH  11  14
ATOM     14  C   UNL     1      51.387   3.021  17.924  0.00  0.00    +0.000 A 
ATOM     15  C   UNL     1      51.052   1.865  17.226  0.00  0.00    +0.000 A 
ATOM     16  C   UNL     1      52.130   0.955  17.318  0.00  0.00    +0.000 A 
ATOM     17  C   UNL     1      53.107   1.562  18.067  0.00  0.00    +0.000 A 
ATOM     18  N   UNL     1      52.660   2.809  18.423  0.00  0.00    +0.000 N 
ATOM     19  C   UNL     1      53.407   3.734  19.251  0.00  0.00    +0.000 C 
ENDBRANCH  11  14
ENDBRANCH   9  10
ENDBRANCH   6   9
ENDBRANCH   2   3
BRANCH   2  20
ATOM     20  N   UNL     1      47.460   6.979  11.729  0.00  0.00    +0.000 N 
ATOM     21  C   UNL     1      46.115   6.966  11.475  0.00  0.00    +0.000 C 
ATOM     22  O   UNL     1      45.373   7.889  11.794  0.00  0.00    +0.000 OA
ATOM     23  H   UNL     1      48.023   6.178  11.473  0.00  0.00    +0.000 HD
BRANCH  21  24
ATOM     24  C   UNL     1      45.589   5.750  10.841  0.00  0.00    +0.000 A 
ATOM     25  C   UNL     1      45.819   5.527   9.490  0.00  0.00    +0.000 A 
ATOM     26  S   UNL     1      45.089   4.104   8.900  0.00  0.00    +0.000 S 
ATOM     27  C   UNL     1      44.474   3.716  10.437  0.00  0.00    +0.000 A 
ATOM     28  N   UNL     1      43.724   2.598  10.627  0.00  0.00    +0.000 NA
ATOM     29  C   UNL     1      43.350   2.405  11.847  0.00  0.00    +0.000 A 
ATOM     30  N   UNL     1      43.670   3.225  12.900  0.00  0.00    +0.000 N 
ATOM     31  C   UNL     1      44.415   4.372  12.755  0.00  0.00    +0.000 A 
ATOM     32  O   UNL     1      44.663   5.090  13.719  0.00  0.00    +0.000 OA
ATOM     33  C   UNL     1      44.837   4.648  11.394  0.00  0.00    +0.000 A 
ATOM     34  H   UNL     1      43.351   3.011  13.833  0.00  0.00    +0.000 HD
ENDBRANCH  21  24
ENDBRANCH   2  20
TORSDOF 6
ENDMDL
MODEL 6
REMARK VINA RESULT:    -6.684      4.155      5.885
REMARK INTER + INTRA:         -10.166
REMARK INTER:                  -9.325
REMARK INTRA:                  -0.840
REMARK UNBOUND:                -1.137
REMARK  Name = 
REMARK  8 active torsions:
REMARK  status: ('A' for Active; 'I' for Inactive)
REMARK    1  A    between atoms: C_1  and  C_2
REMARK    2  A    between atoms: C_2  and  N_3
REMARK    3  A    between atoms: C_2  and  C_16
REMARK    4  A    between atoms: C_4  and  C_6
REMARK    5  A    between atoms: C_19  and  C_20
REMARK    6  A    between atoms: C_20  and  N_21
REMARK    7  A    between atoms: C_22  and  C_24
REMARK    8  A    between atoms: N_28  and  C_29
REMARK                            x       y       z     vdW  Elec       q    Type
REMARK                         _______ _______ _______ _____ _____    ______ ____
ROOT
ATOM      1  C   UNL     1      48.853   8.806  13.711  0.00  0.00    +0.000 C 
ATOM      2  C   UNL     1      48.716   7.367  14.221  0.00  0.00    +0.000 C 
ENDROOT
BRANCH   2   3
ATOM      3  C   UNL     1      47.689   6.588  13.399  0.00  0.00    +0.000 A 
ATOM      4  C   UNL     1      47.144   5.395  13.875  0.00  0.00    +0.000 A 
ATOM      5  C   UNL     1      46.236   4.690  13.082  0.00  0.00    +0.000 A 
ATOM      6  C   UNL     1      45.884   5.190  11.829  0.00  0.00    +0.000 A 
ATOM      7  C   UNL     1      46.476   6.379  11.430  0.00  0.00    +0.000 A 
ATOM      8  N   UNL     1      47.367   7.079  12.178  0.00  0.00    +0.000 NA
BRANCH   6   9
ATOM      9  C   UNL     1      44.942   4.450  10.919  0.00  0.00    +0.000 C 
BRANCH   9  10
ATOM     10  N   UNL     1      45.588   4.112   9.674  0.00  0.00    +0.000 N 
ATOM     11  C   UNL     1      45.312   2.931   9.020  0.00  0.00    +0.000 C 
ATOM     12  O   UNL     1      44.517   2.106   9.462  0.00  0.00    +0.000 OA
ATOM     13  H   UNL     1      46.059   4.836   9.155  0.00  0.00    +0.000 HD
BRANCH  11  14
ATOM     14  C   UNL     1      46.019   2.780   7.763  0.00  0.00    +0.000 A 
ATOM     15  C   UNL     1      46.286   3.740   6.791  0.00  0.00    +0.000 A 
ATOM     16  C   UNL     1      47.021   3.132   5.748  0.00  0.00    +0.000 A 
ATOM     17  C   UNL     1      47.194   1.814   6.091  0.00  0.00    +0.000 A 
ATOM     18  N   UNL     1      46.597   1.608   7.310  0.00  0.00    +0.000 N 
ATOM     19  C   UNL     1      46.543   0.325   7.980  0.00  0.00    +0.000 C 
ENDBRANCH  11  14
ENDBRANCH   9  10
ENDBRANCH   6   9
ENDBRANCH   2   3
BRANCH   2  20
ATOM     20  N   UNL     1      48.375   7.318  15.638  0.00  0.00    +0.000 N 
ATOM     21  C   UNL     1      49.120   6.652  16.574  0.00  0.00    +0.000 C 
ATOM     22  O   UNL     1      50.130   6.019  16.287  0.00  0.00    +0.000 OA
ATOM     23  H   UNL     1      47.532   7.800  15.923  0.00  0.00    +0.000 HD
BRANCH  21  24
ATOM     24  C   UNL     1      48.611   6.691  17.951  0.00  0.00    +0.000 A 
ATOM     25  C   UNL     1      48.549   5.519  18.693  0.00  0.00    +0.000 A 
ATOM     26  S   UNL     1      47.878   5.730  20.246  0.00  0.00    +0.000 S 
ATOM     27  C   UNL     1      47.685   7.401  19.997  0.00  0.00    +0.000 A 
ATOM     28  N   UNL     1      47.138   8.192  20.958  0.00  0.00    +0.000 NA
ATOM     29  C   UNL     1      47.081   9.444  20.653  0.00  0.00    +0.000 A 
ATOM     30  N   UNL     1      47.534   9.981  19.474  0.00  0.00    +0.000 N 
ATOM     31  C   UNL     1      48.084   9.221  18.468  0.00  0.00    +0.000 A 
ATOM     32  O   UNL     1      48.459   9.736  17.420  0.00  0.00    +0.000 OA
ATOM     33  C   UNL     1      48.145   7.799  18.753  0.00  0.00    +0.000 A 
ATOM     34  H   UNL     1      47.468  10.973  19.302  0.00  0.00    +0.000 HD
ENDBRANCH  21  24
ENDBRANCH   2  20
TORSDOF 6
ENDMDL
MODEL 7
REMARK VINA RESULT:    -6.438      3.007      4.947
REMARK INTER + INTRA:          -9.833
REMARK INTER:                  -8.636
REMARK INTRA:                  -1.198
REMARK UNBOUND:                -1.137
REMARK  Name = 
REMARK  8 active torsions:
REMARK  status: ('A' for Active; 'I' for Inactive)
REMARK    1  A    between atoms: C_1  and  C_2
REMARK    2  A    between atoms: C_2  and  N_3
REMARK    3  A    between atoms: C_2  and  C_16
REMARK    4  A    between atoms: C_4  and  C_6
REMARK    5  A    between atoms: C_19  and  C_20
REMARK    6  A    between atoms: C_20  and  N_21
REMARK    7  A    between atoms: C_22  and  C_24
REMARK    8  A    between atoms: N_28  and  C_29
REMARK                            x       y       z     vdW  Elec       q    Type
REMARK                         _______ _______ _______ _____ _____    ______ ____
ROOT
ATOM      1  C   UNL     1      53.301   3.449  19.582  0.00  0.00    +0.000 C 
ATOM      2  C   UNL     1      53.015   2.991  18.147  0.00  0.00    +0.000 C 
ENDROOT
BRANCH   2   3
ATOM      3  C   UNL     1      51.547   3.213  17.783  0.00  0.00    +0.000 A 
ATOM      4  C   UNL     1      50.954   4.468  17.923  0.00  0.00    +0.000 A 
ATOM      5  C   UNL     1      49.600   4.627  17.616  0.00  0.00    +0.000 A 
ATOM      6  C   UNL     1      48.863   3.531  17.171  0.00  0.00    +0.000 A 
ATOM      7  C   UNL     1      49.528   2.319  17.066  0.00  0.00    +0.000 A 
ATOM      8  N   UNL     1      50.839   2.135  17.364  0.00  0.00    +0.000 NA
BRANCH   6   9
ATOM      9  C   UNL     1      47.394   3.638  16.866  0.00  0.00    +0.000 C 
BRANCH   9  10
ATOM     10  N   UNL     1      47.151   4.617  15.835  0.00  0.00    +0.000 N 
ATOM     11  C   UNL     1      47.118   4.264  14.504  0.00  0.00    +0.000 C 
ATOM     12  O   UNL     1      47.302   3.110  14.126  0.00  0.00    +0.000 OA
ATOM     13  H   UNL     1      46.767   5.513  16.092  0.00  0.00    +0.000 HD
BRANCH  11  14
ATOM     14  C   UNL     1      46.816   5.368  13.613  0.00  0.00    +0.000 A 
ATOM     15  C   UNL     1      47.655   6.389  13.175  0.00  0.00    +0.000 A 
ATOM     16  C   UNL     1      46.925   7.227  12.301  0.00  0.00    +0.000 A 
ATOM     17  C   UNL     1      45.655   6.712  12.215  0.00  0.00    +0.000 A 
ATOM     18  N   UNL     1      45.596   5.588  13.000  0.00  0.00    +0.000 N 
ATOM     19  C   UNL     1      44.401   4.791  13.188  0.00  0.00    +0.000 C 
ENDBRANCH  11  14
ENDBRANCH   9  10
ENDBRANCH   6   9
ENDBRANCH   2   3
BRANCH   2  20
ATOM     20  N   UNL     1      53.387   1.598  17.931  0.00  0.00    +0.000 N 
ATOM     21  C   UNL     1      54.544   1.210  17.311  0.00  0.00    +0.000 C 
ATOM     22  O   UNL     1      55.355   2.014  16.862  0.00  0.00    +0.000 OA
ATOM     23  H   UNL     1      52.736   0.895  18.256  0.00  0.00    +0.000 HD
BRANCH  21  24
ATOM     24  C   UNL     1      54.742  -0.237  17.160  0.00  0.00    +0.000 A 
ATOM     25  C   UNL     1      54.857  -0.785  15.890  0.00  0.00    +0.000 A 
ATOM     26  S   UNL     1      55.021  -2.482  15.891  0.00  0.00    +0.000 S 
ATOM     27  C   UNL     1      54.984  -2.540  17.590  0.00  0.00    +0.000 A 
ATOM     28  N   UNL     1      55.068  -3.725  18.251  0.00  0.00    +0.000 NA
ATOM     29  C   UNL     1      55.063  -3.623  19.537  0.00  0.00    +0.000 A 
ATOM     30  N   UNL     1      54.994  -2.438  20.225  0.00  0.00    +0.000 N 
ATOM     31  C   UNL     1      54.896  -1.216  19.602  0.00  0.00    +0.000 A 
ATOM     32  O   UNL     1      54.815  -0.179  20.253  0.00  0.00    +0.000 OA
ATOM     33  C   UNL     1      54.870  -1.280  18.152  0.00  0.00    +0.000 A 
ATOM     34  H   UNL     1      55.003  -2.428  21.234  0.00  0.00    +0.000 HD
ENDBRANCH  21  24
ENDBRANCH   2  20
TORSDOF 6
ENDMDL
MODEL 8
REMARK VINA RESULT:    -6.422      1.651      2.119
REMARK INTER + INTRA:          -9.811
REMARK INTER:                  -8.697
REMARK INTRA:                  -1.114
REMARK UNBOUND:                -1.137
REMARK  Name = 
REMARK  8 active torsions:
REMARK  status: ('A' for Active; 'I' for Inactive)
REMARK    1  A    between atoms: C_1  and  C_2
REMARK    2  A    between atoms: C_2  and  N_3
REMARK    3  A    between atoms: C_2  and  C_16
REMARK    4  A    between atoms: C_4  and  C_6
REMARK    5  A    between atoms: C_19  and  C_20
REMARK    6  A    between atoms: C_20  and  N_21
REMARK    7  A    between atoms: C_22  and  C_24
REMARK    8  A    between atoms: N_28  and  C_29
REMARK                            x       y       z     vdW  Elec       q    Type
REMARK                         _______ _______ _______ _____ _____    ______ ____
ROOT
ATOM      1  C   UNL     1      47.812   6.304  19.097  0.00  0.00    +0.000 C 
ATOM      2  C   UNL     1      49.095   6.537  18.291  0.00  0.00    +0.000 C 
ENDROOT
BRANCH   2   3
ATOM      3  C   UNL     1      48.794   6.635  16.796  0.00  0.00    +0.000 A 
ATOM      4  C   UNL     1      48.975   7.833  16.104  0.00  0.00    +0.000 A 
ATOM      5  C   UNL     1      48.654   7.898  14.746  0.00  0.00    +0.000 A 
ATOM      6  C   UNL     1      48.163   6.764  14.100  0.00  0.00    +0.000 A 
ATOM      7  C   UNL     1      48.008   5.616  14.863  0.00  0.00    +0.000 A 
ATOM      8  N   UNL     1      48.304   5.529  16.185  0.00  0.00    +0.000 NA
BRANCH   6   9
ATOM      9  C   UNL     1      47.765   6.790  12.650  0.00  0.00    +0.000 C 
BRANCH   9  10
ATOM     10  N   UNL     1      46.868   5.702  12.342  0.00  0.00    +0.000 N 
ATOM     11  C   UNL     1      45.515   5.910  12.188  0.00  0.00    +0.000 C 
ATOM     12  O   UNL     1      45.002   7.018  12.314  0.00  0.00    +0.000 OA
ATOM     13  H   UNL     1      47.251   4.835  12.001  0.00  0.00    +0.000 HD
BRANCH  11  14
ATOM     14  C   UNL     1      44.776   4.712  11.836  0.00  0.00    +0.000 A 
ATOM     15  C   UNL     1      44.019   3.882  12.657  0.00  0.00    +0.000 A 
ATOM     16  C   UNL     1      43.469   2.847  11.867  0.00  0.00    +0.000 A 
ATOM     17  C   UNL     1      43.894   3.055  10.578  0.00  0.00    +0.000 A 
ATOM     18  N   UNL     1      44.674   4.184  10.562  0.00  0.00    +0.000 N 
ATOM     19  C   UNL     1      45.333   4.699   9.379  0.00  0.00    +0.000 C 
ENDBRANCH  11  14
ENDBRANCH   9  10
ENDBRANCH   6   9
ENDBRANCH   2   3
BRANCH   2  20
ATOM     20  N   UNL     1      50.094   5.505  18.541  0.00  0.00    +0.000 N 
ATOM     21  C   UNL     1      51.426   5.655  18.261  0.00  0.00    +0.000 C 
ATOM     22  O   UNL     1      51.883   6.672  17.749  0.00  0.00    +0.000 OA
ATOM     23  H   UNL     1      49.764   4.633  18.934  0.00  0.00    +0.000 HD
BRANCH  21  24
ATOM     24  C   UNL     1      52.283   4.501  18.557  0.00  0.00    +0.000 A 
ATOM     25  C   UNL     1      53.409   4.668  19.352  0.00  0.00    +0.000 A 
ATOM     26  S   UNL     1      54.325   3.244  19.547  0.00  0.00    +0.000 S 
ATOM     27  C   UNL     1      53.228   2.344  18.609  0.00  0.00    +0.000 A 
ATOM     28  N   UNL     1      53.436   1.023  18.367  0.00  0.00    +0.000 NA
ATOM     29  C   UNL     1      52.510   0.453  17.671  0.00  0.00    +0.000 A 
ATOM     30  N   UNL     1      51.386   1.085  17.204  0.00  0.00    +0.000 N 
ATOM     31  C   UNL     1      51.137   2.421  17.414  0.00  0.00    +0.000 A 
ATOM     32  O   UNL     1      50.128   2.955  16.962  0.00  0.00    +0.000 OA
ATOM     33  C   UNL     1      52.165   3.114  18.170  0.00  0.00    +0.000 A 
ATOM     34  H   UNL     1      50.694   0.578  16.672  0.00  0.00    +0.000 HD
ENDBRANCH  21  24
ENDBRANCH   2  20
TORSDOF 6
ENDMDL
MODEL 9
REMARK VINA RESULT:    -6.403      3.154      3.958
REMARK INTER + INTRA:          -9.786
REMARK INTER:                  -8.683
REMARK INTRA:                  -1.104
REMARK UNBOUND:                -1.137
REMARK  Name = 
REMARK  8 active torsions:
REMARK  status: ('A' for Active; 'I' for Inactive)
REMARK    1  A    between atoms: C_1  and  C_2
REMARK    2  A    between atoms: C_2  and  N_3
REMARK    3  A    between atoms: C_2  and  C_16
REMARK    4  A    between atoms: C_4  and  C_6
REMARK    5  A    between atoms: C_19  and  C_20
REMARK    6  A    between atoms: C_20  and  N_21
REMARK    7  A    between atoms: C_22  and  C_24
REMARK    8  A    between atoms: N_28  and  C_29
REMARK                            x       y       z     vdW  Elec       q    Type
REMARK                         _______ _______ _______ _____ _____    ______ ____
ROOT
ATOM      1  C   UNL     1      51.586   9.182  14.070  0.00  0.00    +0.000 C 
ATOM      2  C   UNL     1      50.946   7.808  14.300  0.00  0.00    +0.000 C 
ENDROOT
BRANCH   2   3
ATOM      3  C   UNL     1      49.592   7.710  13.598  0.00  0.00    +0.000 A 
ATOM      4  C   UNL     1      49.025   8.821  12.972  0.00  0.00    +0.000 A 
ATOM      5  C   UNL     1      47.769   8.705  12.372  0.00  0.00    +0.000 A 
ATOM      6  C   UNL     1      47.103   7.481  12.402  0.00  0.00    +0.000 A 
ATOM      7  C   UNL     1      47.734   6.430  13.049  0.00  0.00    +0.000 A 
ATOM      8  N   UNL     1      48.950   6.517  13.647  0.00  0.00    +0.000 NA
BRANCH   6   9
ATOM      9  C   UNL     1      45.732   7.312  11.806  0.00  0.00    +0.000 C 
BRANCH   9  10
ATOM     10  N   UNL     1      45.649   6.093  11.039  0.00  0.00    +0.000 N 
ATOM     11  C   UNL     1      44.434   5.516  10.739  0.00  0.00    +0.000 C 
ATOM     12  O   UNL     1      43.368   5.997  11.114  0.00  0.00    +0.000 OA
ATOM     13  H   UNL     1      46.454   5.789  10.516  0.00  0.00    +0.000 HD
BRANCH  11  14
ATOM     14  C   UNL     1      44.541   4.321   9.923  0.00  0.00    +0.000 A 
ATOM     15  C   UNL     1      45.055   4.187   8.637  0.00  0.00    +0.000 A 
ATOM     16  C   UNL     1      44.967   2.828   8.257  0.00  0.00    +0.000 A 
ATOM     17  C   UNL     1      44.403   2.151   9.310  0.00  0.00    +0.000 A 
ATOM     18  N   UNL     1      44.156   3.052  10.315  0.00  0.00    +0.000 N 
ATOM     19  C   UNL     1      43.529   2.710  11.576  0.00  0.00    +0.000 C 
ENDBRANCH  11  14
ENDBRANCH   9  10
ENDBRANCH   6   9
ENDBRANCH   2   3
BRANCH   2  20
ATOM     20  N   UNL     1      50.806   7.500  15.718  0.00  0.00    +0.000 N 
ATOM     21  C   UNL     1      51.774   6.874  16.457  0.00  0.00    +0.000 C 
ATOM     22  O   UNL     1      52.837   6.499  15.972  0.00  0.00    +0.000 OA
ATOM     23  H   UNL     1      49.934   7.761  16.160  0.00  0.00    +0.000 HD
BRANCH  21  24
ATOM     24  C   UNL     1      51.450   6.622  17.867  0.00  0.00    +0.000 A 
ATOM     25  C   UNL     1      52.182   7.255  18.863  0.00  0.00    +0.000 A 
ATOM     26  S   UNL     1      51.718   6.807  20.440  0.00  0.00    +0.000 S 
ATOM     27  C   UNL     1      50.496   5.782  19.849  0.00  0.00    +0.000 A 
ATOM     28  N   UNL     1      49.713   5.066  20.699  0.00  0.00    +0.000 NA
ATOM     29  C   UNL     1      48.804   4.356  20.120  0.00  0.00    +0.000 A 
ATOM     30  N   UNL     1      48.599   4.306  18.765  0.00  0.00    +0.000 N 
ATOM     31  C   UNL     1      49.372   5.002  17.865  0.00  0.00    +0.000 A 
ATOM     32  O   UNL     1      49.170   4.915  16.658  0.00  0.00    +0.000 OA
ATOM     33  C   UNL     1      50.428   5.796  18.466  0.00  0.00    +0.000 A 
ATOM     34  H   UNL     1      47.863   3.735  18.377  0.00  0.00    +0.000 HD
ENDBRANCH  21  24
ENDBRANCH   2  20
TORSDOF 6
ENDMDL
