MODEL 1
REMARK VINA RESULT:    -7.909      0.000      0.000
REMARK INTER + INTRA:         -11.565
REMARK INTER:                 -10.683
REMARK INTRA:                  -0.882
REMARK UNBOUND:                -0.882
REMARK  Name = 
REMARK  6 active torsions:
REMARK  status: ('A' for Active; 'I' for Inactive)
REMARK    1  A    between atoms: C_2  and  C_20
REMARK    2  A    between atoms: N_3  and  C_4
REMARK    3  A    between atoms: C_4  and  C_5
REMARK    4  A    between atoms: C_8  and  C_9
REMARK    5  A    between atoms: C_9  and  C_10
REMARK    6  A    between atoms: C_11  and  C_12
REMARK                            x       y       z     vdW  Elec       q    Type
REMARK                         _______ _______ _______ _____ _____    ______ ____
ROOT
ATOM      1  C   UNL     1      47.125   8.208  13.546  0.00  0.00    +0.000 C 
ENDROOT
BRANCH   1   2
ATOM      2  C   UNL     1      46.231   7.378  12.673  0.00  0.00    +0.000 A 
ATOM      3  C   UNL     1      44.969   7.820  12.267  0.00  0.00    +0.000 A 
ATOM      4  C   UNL     1      44.175   7.008  11.457  0.00  0.00    +0.000 A 
ATOM      5  C   UNL     1      44.660   5.763  11.066  0.00  0.00    +0.000 A 
ATOM      6  N   UNL     1      45.891   5.323  11.431  0.00  0.00    +0.000 NA
ATOM      7  C   UNL     1      46.645   6.138  12.210  0.00  0.00    +0.000 A 
BRANCH   5   8
ATOM      8  C   UNL     1      43.823   4.847  10.198  0.00  0.00    +0.000 C 
BRANCH   8   9
ATOM      9  C   UNL     1      44.593   4.256   9.051  0.00  0.00    +0.000 C 
ATOM     10  C   UNL     1      45.221   3.070   9.029  0.00  0.00    +0.000 C 
BRANCH  10  11
ATOM     11  C   UNL     1      46.002   2.622   7.861  0.00  0.00    +0.000 A 
ATOM     12  C   UNL     1      46.592   1.360   7.792  0.00  0.00    +0.000 A 
ATOM     13  N   UNL     1      47.327   0.942   6.729  0.00  0.00    +0.000 NA
ATOM     14  C   UNL     1      47.459   1.843   5.729  0.00  0.00    +0.000 A 
ATOM     15  C   UNL     1      46.879   3.097   5.788  0.00  0.00    +0.000 A 
ATOM     16  N   UNL     1      46.144   3.505   6.843  0.00  0.00    +0.000 NA
ENDBRANCH  10  11
ENDBRANCH   8   9
ENDBRANCH   5   8
ENDBRANCH   1   2
BRANCH   1  19
ATOM     17  O   UNL     1      49.645   6.957  13.859  0.00  0.00    +0.000 OA
ATOM     18  C   UNL     1      48.842   6.926  14.787  0.00  0.00    +0.000 C 
ATOM     19  N   UNL     1      47.586   7.470  14.692  0.00  0.00    +0.000 N 
ATOM     20  H   UNL     1      47.033   7.577  15.535  0.00  0.00    +0.000 HD
BRANCH  18  21
ATOM     21  C   UNL     1      49.149   6.249  16.055  0.00  0.00    +0.000 A 
ATOM     22  C   UNL     1      50.158   6.728  16.880  0.00  0.00    +0.000 A 
ATOM     23  S   UNL     1      50.373   5.802  18.299  0.00  0.00    +0.000 S 
ATOM     24  C   UNL     1      49.096   4.759  17.880  0.00  0.00    +0.000 A 
ATOM     25  N   UNL     1      48.724   3.738  18.700  0.00  0.00    +0.000 NA
ATOM     26  C   UNL     1      47.717   3.051  18.274  0.00  0.00    +0.000 A 
ATOM     27  N   UNL     1      47.055   3.281  17.097  0.00  0.00    +0.000 N 
ATOM     28  C   UNL     1      47.447   4.246  16.202  0.00  0.00    +0.000 A 
ATOM     29  O   UNL     1      46.930   4.321  15.092  0.00  0.00    +0.000 OA
ATOM     30  C   UNL     1      48.537   5.087  16.659  0.00  0.00    +0.000 A 
ATOM     31  H   UNL     1      46.298   2.684  16.798  0.00  0.00    +0.000 HD
ENDBRANCH  18  21
ENDBRANCH   1  19
TORSDOF 6
ENDMDL
MODEL 2
REMARK VINA RESULT:    -7.322      4.654      9.449
REMARK INTER + INTRA:         -10.772
REMARK INTER:                 -10.001
REMARK INTRA:                  -0.772
REMARK UNBOUND:                -0.882
REMARK  Name = 
REMARK  6 active torsions:
REMARK  status: ('A' for Active; 'I' for Inactive)
REMARK    1  A    between atoms: C_2  and  C_20
REMARK    2  A    between atoms: N_3  and  C_4
REMARK    3  A    between atoms: C_4  and  C_5
REMARK    4  A    between atoms: C_8  and  C_9
REMARK    5  A    between atoms: C_9  and  C_10
REMARK    6  A    between atoms: C_11  and  C_12
REMARK                            x       y       z     vdW  Elec       q    Type
REMARK                         _______ _______ _______ _____ _____    ______ ____
ROOT
ATOM      1  C   UNL     1      47.140   3.432  16.855  0.00  0.00    +0.000 C 
ENDROOT
BRANCH   1   2
ATOM      2  C   UNL     1      48.616   3.432  17.126  0.00  0.00    +0.000 A 
ATOM      3  C   UNL     1      49.283   4.562  17.606  0.00  0.00    +0.000 A 
ATOM      4  C   UNL     1      50.658   4.511  17.839  0.00  0.00    +0.000 A 
ATOM      5  C   UNL     1      51.342   3.325  17.586  0.00  0.00    +0.000 A 
ATOM      6  N   UNL     1      50.710   2.210  17.141  0.00  0.00    +0.000 NA
ATOM      7  C   UNL     1      49.373   2.286  16.932  0.00  0.00    +0.000 A 
BRANCH   5   8
ATOM      8  C   UNL     1      52.836   3.234  17.815  0.00  0.00    +0.000 C 
BRANCH   8   9
ATOM      9  C   UNL     1      53.299   1.841  18.136  0.00  0.00    +0.000 C 
ATOM     10  C   UNL     1      53.975   1.010  17.326  0.00  0.00    +0.000 C 
BRANCH  10  11
ATOM     11  C   UNL     1      54.322  -0.364  17.732  0.00  0.00    +0.000 A 
ATOM     12  C   UNL     1      54.943  -1.268  16.870  0.00  0.00    +0.000 A 
ATOM     13  N   UNL     1      55.252  -2.541  17.227  0.00  0.00    +0.000 NA
ATOM     14  C   UNL     1      54.910  -2.885  18.489  0.00  0.00    +0.000 A 
ATOM     15  C   UNL     1      54.293  -1.998  19.353  0.00  0.00    +0.000 A 
ATOM     16  N   UNL     1      53.994  -0.732  18.996  0.00  0.00    +0.000 NA
ENDBRANCH  10  11
ENDBRANCH   8   9
ENDBRANCH   5   8
ENDBRANCH   1   2
BRANCH   1  19
ATOM     17  O   UNL     1      47.315   3.101  14.049  0.00  0.00    +0.000 OA
ATOM     18  C   UNL     1      46.857   4.145  14.501  0.00  0.00    +0.000 C 
ATOM     19  N   UNL     1      46.783   4.396  15.848  0.00  0.00    +0.000 N 
ATOM     20  H   UNL     1      46.237   5.187  16.170  0.00  0.00    +0.000 HD
BRANCH  18  21
ATOM     21  C   UNL     1      46.403   5.235  13.625  0.00  0.00    +0.000 A 
ATOM     22  C   UNL     1      47.232   6.317  13.362  0.00  0.00    +0.000 A 
ATOM     23  S   UNL     1      46.525   7.484  12.336  0.00  0.00    +0.000 S 
ATOM     24  C   UNL     1      45.104   6.562  12.172  0.00  0.00    +0.000 A 
ATOM     25  N   UNL     1      44.079   6.983  11.383  0.00  0.00    +0.000 NA
ATOM     26  C   UNL     1      43.080   6.166  11.323  0.00  0.00    +0.000 A 
ATOM     27  N   UNL     1      43.006   4.972  11.990  0.00  0.00    +0.000 N 
ATOM     28  C   UNL     1      43.980   4.546  12.859  0.00  0.00    +0.000 A 
ATOM     29  O   UNL     1      43.809   3.550  13.555  0.00  0.00    +0.000 OA
ATOM     30  C   UNL     1      45.152   5.398  12.918  0.00  0.00    +0.000 A 
ATOM     31  H   UNL     1      42.181   4.394  11.934  0.00  0.00    +0.000 HD
ENDBRANCH  18  21
ENDBRANCH   1  19
TORSDOF 6
ENDMDL
MODEL 3
REMARK VINA RESULT:    -7.216      2.456      4.280
REMARK INTER + INTRA:         -10.629
REMARK INTER:                  -9.513
REMARK INTRA:                  -1.115
REMARK UNBOUND:                -0.882
REMARK  Name = 
REMARK  6 active torsions:
REMARK  status: ('A' for Active; 'I' for Inactive)
REMARK    1  A    between atoms: C_2  and  C_20
REMARK    2  A    between atoms: N_3  and  C_4
REMARK    3  A    between atoms: C_4  and  C_5
REMARK    4  A    between atoms: C_8  and  C_9
REMARK    5  A    between atoms: C_9  and  C_10
REMARK    6  A    between atoms: C_11  and  C_12
REMARK                            x       y       z     vdW  Elec       q    Type
REMARK                         _______ _______ _______ _____ _____    ______ ____
ROOT
ATOM      1  C   UNL     1      47.403   5.278  14.848  0.00  0.00    +0.000 C 
ENDROOT
BRANCH   1   2
ATOM      2  C   UNL     1      46.517   4.895  13.699  0.00  0.00    +0.000 A 
ATOM      3  C   UNL     1      45.958   5.846  12.842  0.00  0.00    +0.000 A 
ATOM      4  C   UNL     1      45.138   5.439  11.790  0.00  0.00    +0.000 A 
ATOM      5  C   UNL     1      44.890   4.080  11.614  0.00  0.00    +0.000 A 
ATOM      6  N   UNL     1      45.440   3.137  12.422  0.00  0.00    +0.000 NA
ATOM      7  C   UNL     1      46.240   3.563  13.430  0.00  0.00    +0.000 A 
BRANCH   5   8
ATOM      8  C   UNL     1      43.995   3.598  10.492  0.00  0.00    +0.000 C 
BRANCH   8   9
ATOM      9  C   UNL     1      44.728   3.402   9.196  0.00  0.00    +0.000 C 
ATOM     10  C   UNL     1      45.696   2.506   8.944  0.00  0.00    +0.000 C 
BRANCH  10  11
ATOM     11  C   UNL     1      46.390   2.451   7.644  0.00  0.00    +0.000 A 
ATOM     12  C   UNL     1      47.271   1.423   7.307  0.00  0.00    +0.000 A 
ATOM     13  N   UNL     1      47.929   1.370   6.120  0.00  0.00    +0.000 NA
ATOM     14  C   UNL     1      47.676   2.395   5.275  0.00  0.00    +0.000 A 
ATOM     15  C   UNL     1      46.806   3.420   5.599  0.00  0.00    +0.000 A 
ATOM     16  N   UNL     1      46.149   3.465   6.777  0.00  0.00    +0.000 NA
ENDBRANCH  10  11
ENDBRANCH   8   9
ENDBRANCH   5   8
ENDBRANCH   1   2
BRANCH   1  19
ATOM     17  O   UNL     1      49.910   6.290  15.685  0.00  0.00    +0.000 OA
ATOM     18  C   UNL     1      49.119   7.041  15.126  0.00  0.00    +0.000 C 
ATOM     19  N   UNL     1      47.868   6.635  14.733  0.00  0.00    +0.000 N 
ATOM     20  H   UNL     1      47.327   7.235  14.122  0.00  0.00    +0.000 HD
BRANCH  18  21
ATOM     21  C   UNL     1      49.432   8.457  14.885  0.00  0.00    +0.000 A 
ATOM     22  C   UNL     1      49.752   9.296  15.945  0.00  0.00    +0.000 A 
ATOM     23  S   UNL     1      50.071  10.904  15.469  0.00  0.00    +0.000 S 
ATOM     24  C   UNL     1      49.836  10.525  13.827  0.00  0.00    +0.000 A 
ATOM     25  N   UNL     1      49.992  11.466  12.857  0.00  0.00    +0.000 NA
ATOM     26  C   UNL     1      49.818  11.029  11.654  0.00  0.00    +0.000 A 
ATOM     27  N   UNL     1      49.490   9.739  11.331  0.00  0.00    +0.000 N 
ATOM     28  C   UNL     1      49.244   8.777  12.280  0.00  0.00    +0.000 A 
ATOM     29  O   UNL     1      48.801   7.678  11.959  0.00  0.00    +0.000 OA
ATOM     30  C   UNL     1      49.483   9.200  13.646  0.00  0.00    +0.000 A 
ATOM     31  H   UNL     1      49.329   9.466  10.373  0.00  0.00    +0.000 HD
ENDBRANCH  18  21
ENDBRANCH   1  19
TORSDOF 6
ENDMDL
MODEL 4
REMARK VINA RESULT:    -7.168      2.144      2.514
REMARK INTER + INTRA:         -10.564
REMARK INTER:                  -9.587
REMARK INTRA:                  -0.977
REMARK UNBOUND:                -0.882
REMARK  Name = 
REMARK  6 active torsions:
REMARK  status: ('A' for Active; 'I' for Inactive)
REMARK    1  A    between atoms: C_2  and  C_20
REMARK    2  A    between atoms: N_3  and  C_4
REMARK    3  A    between atoms: C_4  and  C_5
REMARK    4  A    between atoms: C_8  and  C_9
REMARK    5  A    between atoms: C_9  and  C_10
REMARK    6  A    between atoms: C_11  and  C_12
REMARK                            x       y       z     vdW  Elec       q    Type
REMARK                         _______ _______ _______ _____ _____    ______ ____
ROOT
ATOM      1  C   UNL     1      48.200   7.560  14.197  0.00  0.00    +0.000 C 
ENDROOT
BRANCH   1   2
ATOM      2  C   UNL     1      47.188   6.951  13.271  0.00  0.00    +0.000 A 
ATOM      3  C   UNL     1      46.420   7.724  12.397  0.00  0.00    +0.000 A 
ATOM      4  C   UNL     1      45.490   7.110  11.559  0.00  0.00    +0.000 A 
ATOM      5  C   UNL     1      45.344   5.726  11.611  0.00  0.00    +0.000 A 
ATOM      6  N   UNL     1      46.095   4.954  12.437  0.00  0.00    +0.000 NA
ATOM      7  C   UNL     1      46.998   5.578  13.234  0.00  0.00    +0.000 A 
BRANCH   5   8
ATOM      8  C   UNL     1      44.337   5.022  10.727  0.00  0.00    +0.000 C 
BRANCH   8   9
ATOM      9  C   UNL     1      44.951   4.423   9.494  0.00  0.00    +0.000 C 
ATOM     10  C   UNL     1      45.341   3.148   9.326  0.00  0.00    +0.000 C 
BRANCH  10  11
ATOM     11  C   UNL     1      45.994   2.689   8.087  0.00  0.00    +0.000 A 
ATOM     12  C   UNL     1      46.508   1.400   7.942  0.00  0.00    +0.000 A 
ATOM     13  N   UNL     1      47.126   0.971   6.811  0.00  0.00    +0.000 NA
ATOM     14  C   UNL     1      47.218   1.887   5.821  0.00  0.00    +0.000 A 
ATOM     15  C   UNL     1      46.713   3.167   5.954  0.00  0.00    +0.000 A 
ATOM     16  N   UNL     1      46.093   3.588   7.076  0.00  0.00    +0.000 NA
ENDBRANCH  10  11
ENDBRANCH   8   9
ENDBRANCH   5   8
ENDBRANCH   1   2
BRANCH   1  19
ATOM     17  O   UNL     1      50.272   6.428  15.757  0.00  0.00    +0.000 OA
ATOM     18  C   UNL     1      49.150   6.538  16.242  0.00  0.00    +0.000 C 
ATOM     19  N   UNL     1      48.087   7.035  15.531  0.00  0.00    +0.000 N 
ATOM     20  H   UNL     1      47.234   7.271  16.026  0.00  0.00    +0.000 HD
BRANCH  18  21
ATOM     21  C   UNL     1      48.849   6.091  17.609  0.00  0.00    +0.000 A 
ATOM     22  C   UNL     1      49.114   4.783  17.995  0.00  0.00    +0.000 A 
ATOM     23  S   UNL     1      48.684   4.450  19.613  0.00  0.00    +0.000 S 
ATOM     24  C   UNL     1      48.171   6.052  19.867  0.00  0.00    +0.000 A 
ATOM     25  N   UNL     1      47.707   6.459  21.079  0.00  0.00    +0.000 NA
ATOM     26  C   UNL     1      47.388   7.710  21.137  0.00  0.00    +0.000 A 
ATOM     27  N   UNL     1      47.479   8.589  20.091  0.00  0.00    +0.000 N 
ATOM     28  C   UNL     1      47.864   8.204  18.831  0.00  0.00    +0.000 A 
ATOM     29  O   UNL     1      47.784   8.982  17.885  0.00  0.00    +0.000 OA
ATOM     30  C   UNL     1      48.291   6.822  18.724  0.00  0.00    +0.000 A 
ATOM     31  H   UNL     1      47.177   9.547  20.187  0.00  0.00    +0.000 HD
ENDBRANCH  18  21
ENDBRANCH   1  19
TORSDOF 6
ENDMDL
MODEL 5
REMARK VINA RESULT:    -7.011      3.888      4.868
REMARK INTER + INTRA:         -10.352
REMARK INTER:                  -9.373
REMARK INTRA:                  -0.979
REMARK UNBOUND:                -0.882
REMARK  Name = 
REMARK  6 active torsions:
REMARK  status: ('A' for Active; 'I' for Inactive)
REMARK    1  A    between atoms: C_2  and  C_20
REMARK    2  A    between atoms: N_3  and  C_4
REMARK    3  A    between atoms: C_4  and  C_5
REMARK    4  A    between atoms: C_8  and  C_9
REMARK    5  A    between atoms: C_9  and  C_10
REMARK    6  A    between atoms: C_11  and  C_12
REMARK                            x       y       z     vdW  Elec       q    Type
REMARK                         _______ _______ _______ _____ _____    ______ ____
ROOT
ATOM      1  C   UNL     1      45.140   8.145  12.863  0.00  0.00    +0.000 C 
ENDROOT
BRANCH   1   2
ATOM      2  C   UNL     1      44.860   6.767  12.338  0.00  0.00    +0.000 A 
ATOM      3  C   UNL     1      45.584   5.650  12.759  0.00  0.00    +0.000 A 
ATOM      4  C   UNL     1      45.286   4.390  12.239  0.00  0.00    +0.000 A 
ATOM      5  C   UNL     1      44.264   4.272  11.300  0.00  0.00    +0.000 A 
ATOM      6  N   UNL     1      43.533   5.342  10.893  0.00  0.00    +0.000 NA
ATOM      7  C   UNL     1      43.840   6.551  11.424  0.00  0.00    +0.000 A 
BRANCH   5   8
ATOM      8  C   UNL     1      43.918   2.925  10.702  0.00  0.00    +0.000 C 
BRANCH   8   9
ATOM      9  C   UNL     1      44.798   2.550   9.544  0.00  0.00    +0.000 C 
ATOM     10  C   UNL     1      45.488   3.387   8.752  0.00  0.00    +0.000 C 
BRANCH  10  11
ATOM     11  C   UNL     1      46.271   2.904   7.600  0.00  0.00    +0.000 A 
ATOM     12  C   UNL     1      46.984   1.705   7.627  0.00  0.00    +0.000 A 
ATOM     13  N   UNL     1      47.723   1.259   6.578  0.00  0.00    +0.000 NA
ATOM     14  C   UNL     1      47.730   2.064   5.493  0.00  0.00    +0.000 A 
ATOM     15  C   UNL     1      47.028   3.255   5.456  0.00  0.00    +0.000 A 
ATOM     16  N   UNL     1      46.289   3.692   6.497  0.00  0.00    +0.000 NA
ENDBRANCH  10  11
ENDBRANCH   8   9
ENDBRANCH   5   8
ENDBRANCH   1   2
BRANCH   1  19
ATOM     17  O   UNL     1      47.506   8.953  14.190  0.00  0.00    +0.000 OA
ATOM     18  C   UNL     1      47.445   9.044  12.968  0.00  0.00    +0.000 C 
ATOM     19  N   UNL     1      46.316   8.716  12.260  0.00  0.00    +0.000 N 
ATOM     20  H   UNL     1      46.375   8.638  11.251  0.00  0.00    +0.000 HD
BRANCH  18  21
ATOM     21  C   UNL     1      48.564   9.570  12.174  0.00  0.00    +0.000 A 
ATOM     22  C   UNL     1      48.569  10.895  11.758  0.00  0.00    +0.000 A 
ATOM     23  S   UNL     1      49.944  11.315  10.836  0.00  0.00    +0.000 S 
ATOM     24  C   UNL     1      50.599   9.753  10.998  0.00  0.00    +0.000 A 
ATOM     25  N   UNL     1      51.808   9.438  10.459  0.00  0.00    +0.000 NA
ATOM     26  C   UNL     1      52.198   8.229  10.691  0.00  0.00    +0.000 A 
ATOM     27  N   UNL     1      51.485   7.301  11.403  0.00  0.00    +0.000 N 
ATOM     28  C   UNL     1      50.228   7.550  11.895  0.00  0.00    +0.000 A 
ATOM     29  O   UNL     1      49.558   6.648  12.390  0.00  0.00    +0.000 OA
ATOM     30  C   UNL     1      49.766   8.912  11.713  0.00  0.00    +0.000 A 
ATOM     31  H   UNL     1      51.825   6.357  11.518  0.00  0.00    +0.000 HD
ENDBRANCH  18  21
ENDBRANCH   1  19
TORSDOF 6
ENDMDL
MODEL 6
REMARK VINA RESULT:    -6.845      4.934      7.306
REMARK INTER + INTRA:         -10.127
REMARK INTER:                  -9.154
REMARK INTRA:                  -0.973
REMARK UNBOUND:                -0.882
REMARK  Name = 
REMARK  6 active torsions:
REMARK  status: ('A' for Active; 'I' for Inactive)
REMARK    1  A    between atoms: C_2  and  C_20
REMARK    2  A    between atoms: N_3  and  C_4
REMARK    3  A    between atoms: C_4  and  C_5
REMARK    4  A    between atoms: C_8  and  C_9
REMARK    5  A    between atoms: C_9  and  C_10
REMARK    6  A    between atoms: C_11  and  C_12
REMARK                            x       y       z     vdW  Elec       q    Type
REMARK                         _______ _______ _______ _____ _____    ______ ____
ROOT
ATOM      1  C   UNL     1      46.359   8.191  12.912  0.00  0.00    +0.000 C 
ENDROOT
BRANCH   1   2
ATOM      2  C   UNL     1      47.785   8.350  12.473  0.00  0.00    +0.000 A 
ATOM      3  C   UNL     1      48.518   7.292  11.929  0.00  0.00    +0.000 A 
ATOM      4  C   UNL     1      49.843   7.491  11.539  0.00  0.00    +0.000 A 
ATOM      5  C   UNL     1      50.413   8.751  11.703  0.00  0.00    +0.000 A 
ATOM      6  N   UNL     1      49.712   9.798  12.209  0.00  0.00    +0.000 NA
ATOM      7  C   UNL     1      48.424   9.577  12.570  0.00  0.00    +0.000 A 
BRANCH   5   8
ATOM      8  C   UNL     1      51.851   9.004  11.304  0.00  0.00    +0.000 C 
BRANCH   8   9
ATOM      9  C   UNL     1      52.436   7.899  10.472  0.00  0.00    +0.000 C 
ATOM     10  C   UNL     1      52.596   7.892   9.138  0.00  0.00    +0.000 C 
BRANCH  10  11
ATOM     11  C   UNL     1      53.126   6.718   8.421  0.00  0.00    +0.000 A 
ATOM     12  C   UNL     1      52.584   6.265   7.219  0.00  0.00    +0.000 A 
ATOM     13  N   UNL     1      53.054   5.175   6.558  0.00  0.00    +0.000 NA
ATOM     14  C   UNL     1      54.092   4.544   7.152  0.00  0.00    +0.000 A 
ATOM     15  C   UNL     1      54.636   4.984   8.345  0.00  0.00    +0.000 A 
ATOM     16  N   UNL     1      54.171   6.071   8.994  0.00  0.00    +0.000 NA
ENDBRANCH  10  11
ENDBRANCH   8   9
ENDBRANCH   5   8
ENDBRANCH   1   2
BRANCH   1  19
ATOM     17  O   UNL     1      44.123   7.576  11.288  0.00  0.00    +0.000 OA
ATOM     18  C   UNL     1      44.781   6.661  11.771  0.00  0.00    +0.000 C 
ATOM     19  N   UNL     1      45.849   6.881  12.604  0.00  0.00    +0.000 N 
ATOM     20  H   UNL     1      46.463   6.106  12.830  0.00  0.00    +0.000 HD
BRANCH  18  21
ATOM     21  C   UNL     1      44.437   5.251  11.538  0.00  0.00    +0.000 A 
ATOM     22  C   UNL     1      43.692   4.545  12.474  0.00  0.00    +0.000 A 
ATOM     23  S   UNL     1      43.405   2.922  12.032  0.00  0.00    +0.000 S 
ATOM     24  C   UNL     1      44.227   3.118  10.555  0.00  0.00    +0.000 A 
ATOM     25  N   UNL     1      44.325   2.096   9.663  0.00  0.00    +0.000 NA
ATOM     26  C   UNL     1      44.944   2.398   8.570  0.00  0.00    +0.000 A 
ATOM     27  N   UNL     1      45.484   3.625   8.292  0.00  0.00    +0.000 N 
ATOM     28  C   UNL     1      45.480   4.660   9.195  0.00  0.00    +0.000 A 
ATOM     29  O   UNL     1      46.109   5.690   8.972  0.00  0.00    +0.000 OA
ATOM     30  C   UNL     1      44.745   4.393  10.416  0.00  0.00    +0.000 A 
ATOM     31  H   UNL     1      45.991   3.790   7.435  0.00  0.00    +0.000 HD
ENDBRANCH  18  21
ENDBRANCH   1  19
TORSDOF 6
ENDMDL
MODEL 7
REMARK VINA RESULT:    -6.576      2.668      3.142
REMARK INTER + INTRA:          -9.764
REMARK INTER:                  -8.987
REMARK INTRA:                  -0.776
REMARK UNBOUND:                -0.882
REMARK  Name = 
REMARK  6 active torsions:
REMARK  status: ('A' for Active; 'I' for Inactive)
REMARK    1  A    between atoms: C_2  and  C_20
REMARK    2  A    between atoms: N_3  and  C_4
REMARK    3  A    between atoms: C_4  and  C_5
REMARK    4  A    between atoms: C_8  and  C_9
REMARK    5  A    between atoms: C_9  and  C_10
REMARK    6  A    between atoms: C_11  and  C_12
REMARK                            x       y       z     vdW  Elec       q    Type
REMARK                         _______ _______ _______ _____ _____    ______ ____
ROOT
ATOM      1  C   UNL     1      46.188   8.778  13.270  0.00  0.00    +0.000 C 
ENDROOT
BRANCH   1   2
ATOM      2  C   UNL     1      45.623   7.586  12.556  0.00  0.00    +0.000 A 
ATOM      3  C   UNL     1      46.121   6.295  12.753  0.00  0.00    +0.000 A 
ATOM      4  C   UNL     1      45.562   5.220  12.062  0.00  0.00    +0.000 A 
ATOM      5  C   UNL     1      44.510   5.457  11.181  0.00  0.00    +0.000 A 
ATOM      6  N   UNL     1      43.996   6.699  10.991  0.00  0.00    +0.000 NA
ATOM      7  C   UNL     1      44.554   7.723  11.683  0.00  0.00    +0.000 A 
BRANCH   5   8
ATOM      8  C   UNL     1      43.885   4.319  10.404  0.00  0.00    +0.000 C 
BRANCH   8   9
ATOM      9  C   UNL     1      44.676   3.930   9.187  0.00  0.00    +0.000 C 
ATOM     10  C   UNL     1      45.364   2.792   9.003  0.00  0.00    +0.000 C 
BRANCH  10  11
ATOM     11  C   UNL     1      46.159   2.548   7.785  0.00  0.00    +0.000 A 
ATOM     12  C   UNL     1      46.911   1.388   7.599  0.00  0.00    +0.000 A 
ATOM     13  N   UNL     1      47.661   1.161   6.489  0.00  0.00    +0.000 NA
ATOM     14  C   UNL     1      47.636   2.147   5.565  0.00  0.00    +0.000 A 
ATOM     15  C   UNL     1      46.895   3.302   5.739  0.00  0.00    +0.000 A 
ATOM     16  N   UNL     1      46.146   3.520   6.840  0.00  0.00    +0.000 NA
ENDBRANCH  10  11
ENDBRANCH   8   9
ENDBRANCH   5   8
ENDBRANCH   1   2
BRANCH   1  19
ATOM     17  O   UNL     1      48.527  10.199  13.991  0.00  0.00    +0.000 OA
ATOM     18  C   UNL     1      48.251   9.162  14.584  0.00  0.00    +0.000 C 
ATOM     19  N   UNL     1      47.160   8.395  14.260  0.00  0.00    +0.000 N 
ATOM     20  H   UNL     1      46.878   7.653  14.889  0.00  0.00    +0.000 HD
BRANCH  18  21
ATOM     21  C   UNL     1      49.106   8.630  15.655  0.00  0.00    +0.000 A 
ATOM     22  C   UNL     1      48.621   8.521  16.952  0.00  0.00    +0.000 A 
ATOM     23  S   UNL     1      49.764   7.895  18.055  0.00  0.00    +0.000 S 
ATOM     24  C   UNL     1      50.930   7.708  16.830  0.00  0.00    +0.000 A 
ATOM     25  N   UNL     1      52.155   7.180  17.098  0.00  0.00    +0.000 NA
ATOM     26  C   UNL     1      52.924   7.063  16.068  0.00  0.00    +0.000 A 
ATOM     27  N   UNL     1      52.587   7.437  14.794  0.00  0.00    +0.000 N 
ATOM     28  C   UNL     1      51.395   8.049  14.492  0.00  0.00    +0.000 A 
ATOM     29  O   UNL     1      51.192   8.510  13.373  0.00  0.00    +0.000 OA
ATOM     30  C   UNL     1      50.469   8.150  15.604  0.00  0.00    +0.000 A 
ATOM     31  H   UNL     1      53.246   7.357  14.034  0.00  0.00    +0.000 HD
ENDBRANCH  18  21
ENDBRANCH   1  19
TORSDOF 6
ENDMDL
MODEL 8
REMARK VINA RESULT:    -6.543      3.990      8.860
REMARK INTER + INTRA:          -9.720
REMARK INTER:                  -8.935
REMARK INTRA:                  -0.785
REMARK UNBOUND:                -0.882
REMARK  Name = 
REMARK  6 active torsions:
REMARK  status: ('A' for Active; 'I' for Inactive)
REMARK    1  A    between atoms: C_2  and  C_20
REMARK    2  A    between atoms: N_3  and  C_4
REMARK    3  A    between atoms: C_4  and  C_5
REMARK    4  A    between atoms: C_8  and  C_9
REMARK    5  A    between atoms: C_9  and  C_10
REMARK    6  A    between atoms: C_11  and  C_12
REMARK                            x       y       z     vdW  Elec       q    Type
REMARK                         _______ _______ _______ _____ _____    ______ ____
ROOT
ATOM      1  C   UNL     1      47.155   3.435  16.848  0.00  0.00    +0.000 C 
ENDROOT
BRANCH   1   2
ATOM      2  C   UNL     1      48.582   3.610  17.275  0.00  0.00    +0.000 A 
ATOM      3  C   UNL     1      49.542   2.612  17.088  0.00  0.00    +0.000 A 
ATOM      4  C   UNL     1      50.856   2.822  17.506  0.00  0.00    +0.000 A 
ATOM      5  C   UNL     1      51.187   4.034  18.107  0.00  0.00    +0.000 A 
ATOM      6  N   UNL     1      50.276   5.025  18.280  0.00  0.00    +0.000 NA
ATOM      7  C   UNL     1      49.009   4.795  17.855  0.00  0.00    +0.000 A 
BRANCH   5   8
ATOM      8  C   UNL     1      52.599   4.296  18.586  0.00  0.00    +0.000 C 
BRANCH   8   9
ATOM      9  C   UNL     1      53.362   5.230  17.690  0.00  0.00    +0.000 C 
ATOM     10  C   UNL     1      52.890   5.879  16.613  0.00  0.00    +0.000 C 
BRANCH  10  11
ATOM     11  C   UNL     1      53.755   6.724  15.770  0.00  0.00    +0.000 A 
ATOM     12  C   UNL     1      54.856   6.218  15.079  0.00  0.00    +0.000 A 
ATOM     13  N   UNL     1      55.670   6.991  14.313  0.00  0.00    +0.000 NA
ATOM     14  C   UNL     1      55.343   8.302  14.266  0.00  0.00    +0.000 A 
ATOM     15  C   UNL     1      54.254   8.814  14.947  0.00  0.00    +0.000 A 
ATOM     16  N   UNL     1      53.444   8.042  15.702  0.00  0.00    +0.000 NA
ENDBRANCH  10  11
ENDBRANCH   8   9
ENDBRANCH   5   8
ENDBRANCH   1   2
BRANCH   1  19
ATOM     17  O   UNL     1      47.320   3.118  14.040  0.00  0.00    +0.000 OA
ATOM     18  C   UNL     1      46.847   4.153  14.498  0.00  0.00    +0.000 C 
ATOM     19  N   UNL     1      46.776   4.397  15.846  0.00  0.00    +0.000 N 
ATOM     20  H   UNL     1      46.220   5.178  16.175  0.00  0.00    +0.000 HD
BRANCH  18  21
ATOM     21  C   UNL     1      46.370   5.238  13.629  0.00  0.00    +0.000 A 
ATOM     22  C   UNL     1      47.169   6.350  13.392  0.00  0.00    +0.000 A 
ATOM     23  S   UNL     1      46.439   7.506  12.370  0.00  0.00    +0.000 S 
ATOM     24  C   UNL     1      45.051   6.542  12.174  0.00  0.00    +0.000 A 
ATOM     25  N   UNL     1      44.024   6.940  11.376  0.00  0.00    +0.000 NA
ATOM     26  C   UNL     1      43.052   6.093  11.291  0.00  0.00    +0.000 A 
ATOM     27  N   UNL     1      43.007   4.889  11.942  0.00  0.00    +0.000 N 
ATOM     28  C   UNL     1      43.982   4.483  12.820  0.00  0.00    +0.000 A 
ATOM     29  O   UNL     1      43.833   3.473  13.501  0.00  0.00    +0.000 OA
ATOM     30  C   UNL     1      45.126   5.371  12.906  0.00  0.00    +0.000 A 
ATOM     31  H   UNL     1      42.202   4.285  11.868  0.00  0.00    +0.000 HD
ENDBRANCH  18  21
ENDBRANCH   1  19
TORSDOF 6
ENDMDL
MODEL 9
REMARK VINA RESULT:    -6.324      4.868      6.790
REMARK INTER + INTRA:          -9.424
REMARK INTER:                  -8.903
REMARK INTRA:                  -0.521
REMARK UNBOUND:                -0.882
REMARK  Name = 
REMARK  6 active torsions:
REMARK  status: ('A' for Active; 'I' for Inactive)
REMARK    1  A    between atoms: C_2  and  C_20
REMARK    2  A    between atoms: N_3  and  C_4
REMARK    3  A    between atoms: C_4  and  C_5
REMARK    4  A    between atoms: C_8  and  C_9
REMARK    5  A    between atoms: C_9  and  C_10
REMARK    6  A    between atoms: C_11  and  C_12
REMARK                            x       y       z     vdW  Elec       q    Type
REMARK                         _______ _______ _______ _____ _____    ______ ____
ROOT
ATOM      1  C   UNL     1      48.352   8.036  14.559  0.00  0.00    +0.000 C 
ENDROOT
BRANCH   1   2
ATOM      2  C   UNL     1      49.466   8.463  13.649  0.00  0.00    +0.000 A 
ATOM      3  C   UNL     1      49.234   9.196  12.482  0.00  0.00    +0.000 A 
ATOM      4  C   UNL     1      50.305   9.566  11.668  0.00  0.00    +0.000 A 
ATOM      5  C   UNL     1      51.594   9.192  12.038  0.00  0.00    +0.000 A 
ATOM      6  N   UNL     1      51.844   8.499  13.178  0.00  0.00    +0.000 NA
ATOM      7  C   UNL     1      50.785   8.162  13.954  0.00  0.00    +0.000 A 
BRANCH   5   8
ATOM      8  C   UNL     1      52.781   9.564  11.175  0.00  0.00    +0.000 C 
BRANCH   8   9
ATOM      9  C   UNL     1      53.230   8.447  10.276  0.00  0.00    +0.000 C 
ATOM     10  C   UNL     1      52.521   7.870   9.291  0.00  0.00    +0.000 C 
BRANCH  10  11
ATOM     11  C   UNL     1      53.047   6.733   8.514  0.00  0.00    +0.000 A 
ATOM     12  C   UNL     1      52.479   6.322   7.308  0.00  0.00    +0.000 A 
ATOM     13  N   UNL     1      52.944   5.266   6.592  0.00  0.00    +0.000 NA
ATOM     14  C   UNL     1      54.004   4.624   7.133  0.00  0.00    +0.000 A 
ATOM     15  C   UNL     1      54.574   5.022   8.328  0.00  0.00    +0.000 A 
ATOM     16  N   UNL     1      54.114   6.077   9.033  0.00  0.00    +0.000 NA
ENDBRANCH  10  11
ENDBRANCH   8   9
ENDBRANCH   5   8
ENDBRANCH   1   2
BRANCH   1  19
ATOM     17  O   UNL     1      48.012   5.583  13.189  0.00  0.00    +0.000 OA
ATOM     18  C   UNL     1      47.086   6.386  13.215  0.00  0.00    +0.000 C 
ATOM     19  N   UNL     1      47.191   7.614  13.820  0.00  0.00    +0.000 N 
ATOM     20  H   UNL     1      46.352   8.161  13.969  0.00  0.00    +0.000 HD
BRANCH  18  21
ATOM     21  C   UNL     1      45.805   6.115  12.547  0.00  0.00    +0.000 A 
ATOM     22  C   UNL     1      45.082   7.149  11.967  0.00  0.00    +0.000 A 
ATOM     23  S   UNL     1      43.617   6.639  11.253  0.00  0.00    +0.000 S 
ATOM     24  C   UNL     1      43.921   5.014  11.655  0.00  0.00    +0.000 A 
ATOM     25  N   UNL     1      43.055   4.027  11.297  0.00  0.00    +0.000 NA
ATOM     26  C   UNL     1      43.430   2.838  11.636  0.00  0.00    +0.000 A 
ATOM     27  N   UNL     1      44.586   2.546  12.310  0.00  0.00    +0.000 N 
ATOM     28  C   UNL     1      45.447   3.516  12.761  0.00  0.00    +0.000 A 
ATOM     29  O   UNL     1      46.388   3.228  13.494  0.00  0.00    +0.000 OA
ATOM     30  C   UNL     1      45.103   4.865  12.356  0.00  0.00    +0.000 A 
ATOM     31  H   UNL     1      44.807   1.599  12.581  0.00  0.00    +0.000 HD
ENDBRANCH  18  21
ENDBRANCH   1  19
TORSDOF 6
ENDMDL
