MODEL 1
REMARK VINA RESULT:    -8.095      0.000      0.000
REMARK INTER + INTRA:         -13.293
REMARK INTER:                 -11.881
REMARK INTRA:                  -1.412
REMARK UNBOUND:                -1.412
REMARK  Name = 
REMARK  9 active torsions:
REMARK  status: ('A' for Active; 'I' for Inactive)
REMARK    1  A    between atoms: C_1  and  O_2
REMARK    2  A    between atoms: O_2  and  C_3
REMARK    3  A    between atoms: C_10  and  C_11
REMARK    4  A    between atoms: N_13  and  C_14
REMARK    5  A    between atoms: C_14  and  C_15
REMARK    6  A    between atoms: C_18  and  N_19
REMARK    7  A    between atoms: N_19  and  C_20
REMARK    8  A    between atoms: C_20  and  C_21
REMARK    9  A    between atoms: C_21  and  N_22
REMARK                            x       y       z     vdW  Elec       q    Type
REMARK                         _______ _______ _______ _____ _____    ______ ____
ROOT
ATOM      1  C   UNL     1      47.008   8.194  13.318  0.00  0.00    +0.000 C 
ENDROOT
BRANCH   1   2
ATOM      2  C   UNL     1      46.200   7.295  12.417  0.00  0.00    +0.000 A 
ATOM      3  C   UNL     1      46.796   6.668  11.320  0.00  0.00    +0.000 A 
ATOM      4  C   UNL     1      46.061   5.786  10.518  0.00  0.00    +0.000 A 
ATOM      5  C   UNL     1      44.723   5.491  10.799  0.00  0.00    +0.000 A 
ATOM      6  C   UNL     1      44.102   6.217  11.821  0.00  0.00    +0.000 A 
ATOM      7  C   UNL     1      44.831   7.096  12.633  0.00  0.00    +0.000 A 
BRANCH   5   8
ATOM      8  N   UNL     1      43.955   4.575  10.065  0.00  0.00    +0.000 N 
ATOM      9  H   UNL     1      43.990   4.763   9.062  0.00  0.00    +0.000 HD
BRANCH   8  10
ATOM     10  C   UNL     1      44.194   3.153  10.341  0.00  0.00    +0.000 C 
BRANCH  10  11
ATOM     11  C   UNL     1      44.388   2.341   9.039  0.00  0.00    +0.000 C 
BRANCH  11  12
ATOM     12  N   UNL     1      45.708   2.484   8.378  0.00  0.00    +0.000 NA
ATOM     13  C   UNL     1      46.252   1.190   7.936  0.00  0.00    +0.000 C 
ATOM     14  C   UNL     1      47.627   1.362   7.289  0.00  0.00    +0.000 C 
ATOM     15  C   UNL     1      47.571   2.329   6.116  0.00  0.00    +0.000 C 
ATOM     16  C   UNL     1      46.922   3.640   6.540  0.00  0.00    +0.000 C 
ATOM     17  C   UNL     1      45.577   3.400   7.228  0.00  0.00    +0.000 C 
ENDBRANCH  11  12
ENDBRANCH  10  11
ENDBRANCH   8  10
ENDBRANCH   5   8
ENDBRANCH   1   2
BRANCH   1  20
ATOM     18  C   UNL     1      48.678   6.938  14.617  0.00  0.00    +0.000 C 
ATOM     19  O   UNL     1      49.498   7.004  13.709  0.00  0.00    +0.000 OA
ATOM     20  N   UNL     1      47.436   7.495  14.501  0.00  0.00    +0.000 N 
ATOM     21  H   UNL     1      46.757   7.384  15.241  0.00  0.00    +0.000 HD
BRANCH  18  29
ATOM     22  C   UNL     1      47.297   4.236  16.247  0.00  0.00    +0.000 A 
ATOM     23  N   UNL     1      46.958   3.233  17.081  0.00  0.00    +0.000 NA
ATOM     24  C   UNL     1      47.663   3.089  18.206  0.00  0.00    +0.000 A 
ATOM     25  N   UNL     1      48.685   3.837  18.613  0.00  0.00    +0.000 NA
ATOM     26  C   UNL     1      48.993   4.821  17.751  0.00  0.00    +0.000 A 
ATOM     27  S   UNL     1      50.271   5.879  18.109  0.00  0.00    +0.000 S 
ATOM     28  C   UNL     1      50.031   6.741  16.666  0.00  0.00    +0.000 A 
ATOM     29  C   UNL     1      48.988   6.252  15.885  0.00  0.00    +0.000 A 
ATOM     30  C   UNL     1      48.368   5.100  16.540  0.00  0.00    +0.000 A 
BRANCH  22  32
ATOM     31  C   UNL     1      47.136   3.595  14.000  0.00  0.00    +0.000 C 
ATOM     32  O   UNL     1      46.592   4.365  15.069  0.00  0.00    +0.000 OA
ENDBRANCH  22  32
ENDBRANCH  18  29
ENDBRANCH   1  20
TORSDOF 8
ENDMDL
MODEL 2
REMARK VINA RESULT:    -7.624      1.493      1.868
REMARK INTER + INTRA:         -12.602
REMARK INTER:                 -11.555
REMARK INTRA:                  -1.047
REMARK UNBOUND:                -1.412
REMARK  Name = 
REMARK  9 active torsions:
REMARK  status: ('A' for Active; 'I' for Inactive)
REMARK    1  A    between atoms: C_1  and  O_2
REMARK    2  A    between atoms: O_2  and  C_3
REMARK    3  A    between atoms: C_10  and  C_11
REMARK    4  A    between atoms: N_13  and  C_14
REMARK    5  A    between atoms: C_14  and  C_15
REMARK    6  A    between atoms: C_18  and  N_19
REMARK    7  A    between atoms: N_19  and  C_20
REMARK    8  A    between atoms: C_20  and  C_21
REMARK    9  A    between atoms: C_21  and  N_22
REMARK                            x       y       z     vdW  Elec       q    Type
REMARK                         _______ _______ _______ _____ _____    ______ ____
ROOT
ATOM      1  C   UNL     1      47.751   7.357  13.301  0.00  0.00    +0.000 C 
ENDROOT
BRANCH   1   2
ATOM      2  C   UNL     1      46.864   6.222  12.851  0.00  0.00    +0.000 A 
ATOM      3  C   UNL     1      46.111   6.331  11.679  0.00  0.00    +0.000 A 
ATOM      4  C   UNL     1      45.335   5.256  11.229  0.00  0.00    +0.000 A 
ATOM      5  C   UNL     1      45.304   4.041  11.923  0.00  0.00    +0.000 A 
ATOM      6  C   UNL     1      45.960   3.984  13.157  0.00  0.00    +0.000 A 
ATOM      7  C   UNL     1      46.745   5.053  13.612  0.00  0.00    +0.000 A 
BRANCH   5   8
ATOM      8  N   UNL     1      44.590   2.914  11.490  0.00  0.00    +0.000 N 
ATOM      9  H   UNL     1      43.858   2.648  12.151  0.00  0.00    +0.000 HD
BRANCH   8  10
ATOM     10  C   UNL     1      44.068   2.956  10.119  0.00  0.00    +0.000 C 
BRANCH  10  11
ATOM     11  C   UNL     1      44.682   1.845   9.237  0.00  0.00    +0.000 C 
BRANCH  11  12
ATOM     12  N   UNL     1      45.875   2.232   8.445  0.00  0.00    +0.000 NA
ATOM     13  C   UNL     1      46.485   1.082   7.759  0.00  0.00    +0.000 C 
ATOM     14  C   UNL     1      47.731   1.503   6.978  0.00  0.00    +0.000 C 
ATOM     15  C   UNL     1      47.411   2.598   5.971  0.00  0.00    +0.000 C 
ATOM     16  C   UNL     1      46.694   3.754   6.655  0.00  0.00    +0.000 C 
ATOM     17  C   UNL     1      45.490   3.265   7.463  0.00  0.00    +0.000 C 
ENDBRANCH  11  12
ENDBRANCH  10  11
ENDBRANCH   8  10
ENDBRANCH   5   8
ENDBRANCH   1   2
BRANCH   1  20
ATOM     18  C   UNL     1      49.073   7.180  15.369  0.00  0.00    +0.000 C 
ATOM     19  O   UNL     1      50.104   6.968  14.742  0.00  0.00    +0.000 OA
ATOM     20  N   UNL     1      47.879   7.378  14.734  0.00  0.00    +0.000 N 
ATOM     21  H   UNL     1      47.032   7.499  15.270  0.00  0.00    +0.000 HD
BRANCH  18  29
ATOM     22  C   UNL     1      48.827   4.773  17.820  0.00  0.00    +0.000 A 
ATOM     23  N   UNL     1      48.748   4.055  18.958  0.00  0.00    +0.000 NA
ATOM     24  C   UNL     1      48.783   4.714  20.119  0.00  0.00    +0.000 A 
ATOM     25  N   UNL     1      48.888   6.029  20.291  0.00  0.00    +0.000 NA
ATOM     26  C   UNL     1      48.970   6.707  19.133  0.00  0.00    +0.000 A 
ATOM     27  S   UNL     1      49.105   8.398  19.159  0.00  0.00    +0.000 S 
ATOM     28  C   UNL     1      49.148   8.474  17.464  0.00  0.00    +0.000 A 
ATOM     29  C   UNL     1      49.064   7.232  16.842  0.00  0.00    +0.000 A 
ATOM     30  C   UNL     1      48.956   6.173  17.848  0.00  0.00    +0.000 A 
BRANCH  22  32
ATOM     31  C   UNL     1      48.232   2.797  16.713  0.00  0.00    +0.000 C 
ATOM     32  O   UNL     1      48.825   4.090  16.622  0.00  0.00    +0.000 OA
ENDBRANCH  22  32
ENDBRANCH  18  29
ENDBRANCH   1  20
TORSDOF 8
ENDMDL
MODEL 3
REMARK VINA RESULT:    -7.222      2.511      3.312
REMARK INTER + INTRA:         -12.012
REMARK INTER:                 -10.833
REMARK INTRA:                  -1.179
REMARK UNBOUND:                -1.412
REMARK  Name = 
REMARK  9 active torsions:
REMARK  status: ('A' for Active; 'I' for Inactive)
REMARK    1  A    between atoms: C_1  and  O_2
REMARK    2  A    between atoms: O_2  and  C_3
REMARK    3  A    between atoms: C_10  and  C_11
REMARK    4  A    between atoms: N_13  and  C_14
REMARK    5  A    between atoms: C_14  and  C_15
REMARK    6  A    between atoms: C_18  and  N_19
REMARK    7  A    between atoms: N_19  and  C_20
REMARK    8  A    between atoms: C_20  and  C_21
REMARK    9  A    between atoms: C_21  and  N_22
REMARK                            x       y       z     vdW  Elec       q    Type
REMARK                         _______ _______ _______ _____ _____    ______ ____
ROOT
ATOM      1  C   UNL     1      48.401   6.735  14.164  0.00  0.00    +0.000 C 
ENDROOT
BRANCH   1   2
ATOM      2  C   UNL     1      47.352   5.921  13.448  0.00  0.00    +0.000 A 
ATOM      3  C   UNL     1      46.984   4.659  13.925  0.00  0.00    +0.000 A 
ATOM      4  C   UNL     1      45.968   3.929  13.296  0.00  0.00    +0.000 A 
ATOM      5  C   UNL     1      45.280   4.443  12.192  0.00  0.00    +0.000 A 
ATOM      6  C   UNL     1      45.738   5.648  11.648  0.00  0.00    +0.000 A 
ATOM      7  C   UNL     1      46.750   6.389  12.274  0.00  0.00    +0.000 A 
BRANCH   5   8
ATOM      8  N   UNL     1      44.219   3.781  11.557  0.00  0.00    +0.000 N 
ATOM      9  H   UNL     1      43.311   4.079  11.919  0.00  0.00    +0.000 HD
BRANCH   8  10
ATOM     10  C   UNL     1      44.226   3.789  10.090  0.00  0.00    +0.000 C 
BRANCH  10  11
ATOM     11  C   UNL     1      44.712   2.441   9.511  0.00  0.00    +0.000 C 
BRANCH  11  12
ATOM     12  N   UNL     1      45.878   2.512   8.596  0.00  0.00    +0.000 NA
ATOM     13  C   UNL     1      46.240   1.193   8.053  0.00  0.00    +0.000 C 
ATOM     14  C   UNL     1      47.464   1.289   7.140  0.00  0.00    +0.000 C 
ATOM     15  C   UNL     1      47.232   2.273   6.004  0.00  0.00    +0.000 C 
ATOM     16  C   UNL     1      46.765   3.616   6.551  0.00  0.00    +0.000 C 
ATOM     17  C   UNL     1      45.575   3.450   7.497  0.00  0.00    +0.000 C 
ENDBRANCH  11  12
ENDBRANCH  10  11
ENDBRANCH   8  10
ENDBRANCH   5   8
ENDBRANCH   1   2
BRANCH   1  20
ATOM     18  C   UNL     1      49.053   6.335  16.503  0.00  0.00    +0.000 C 
ATOM     19  O   UNL     1      50.137   5.872  16.166  0.00  0.00    +0.000 OA
ATOM     20  N   UNL     1      48.148   6.777  15.580  0.00  0.00    +0.000 N 
ATOM     21  H   UNL     1      47.240   7.107  15.875  0.00  0.00    +0.000 HD
BRANCH  18  29
ATOM     22  C   UNL     1      47.731   8.876  18.415  0.00  0.00    +0.000 A 
ATOM     23  N   UNL     1      47.228   9.677  19.376  0.00  0.00    +0.000 NA
ATOM     24  C   UNL     1      47.107   9.178  20.608  0.00  0.00    +0.000 A 
ATOM     25  N   UNL     1      47.434   7.953  21.012  0.00  0.00    +0.000 NA
ATOM     26  C   UNL     1      47.925   7.186  20.024  0.00  0.00    +0.000 A 
ATOM     27  S   UNL     1      48.398   5.591  20.359  0.00  0.00    +0.000 S 
ATOM     28  C   UNL     1      48.861   5.335  18.745  0.00  0.00    +0.000 A 
ATOM     29  C   UNL     1      48.668   6.440  17.922  0.00  0.00    +0.000 A 
ATOM     30  C   UNL     1      48.107   7.549  18.694  0.00  0.00    +0.000 A 
BRANCH  22  32
ATOM     31  C   UNL     1      49.030  10.104  16.902  0.00  0.00    +0.000 C 
ATOM     32  O   UNL     1      47.825   9.380  17.135  0.00  0.00    +0.000 OA
ENDBRANCH  22  32
ENDBRANCH  18  29
ENDBRANCH   1  20
TORSDOF 8
ENDMDL
MODEL 4
REMARK VINA RESULT:    -6.892      2.110      3.592
REMARK INTER + INTRA:         -11.527
REMARK INTER:                 -10.415
REMARK INTRA:                  -1.112
REMARK UNBOUND:                -1.412
REMARK  Name = 
REMARK  9 active torsions:
REMARK  status: ('A' for Active; 'I' for Inactive)
REMARK    1  A    between atoms: C_1  and  O_2
REMARK    2  A    between atoms: O_2  and  C_3
REMARK    3  A    between atoms: C_10  and  C_11
REMARK    4  A    between atoms: N_13  and  C_14
REMARK    5  A    between atoms: C_14  and  C_15
REMARK    6  A    between atoms: C_18  and  N_19
REMARK    7  A    between atoms: N_19  and  C_20
REMARK    8  A    between atoms: C_20  and  C_21
REMARK    9  A    between atoms: C_21  and  N_22
REMARK                            x       y       z     vdW  Elec       q    Type
REMARK                         _______ _______ _______ _____ _____    ______ ____
ROOT
ATOM      1  C   UNL     1      47.259   4.129  15.231  0.00  0.00    +0.000 C 
ENDROOT
BRANCH   1   2
ATOM      2  C   UNL     1      46.602   4.590  13.954  0.00  0.00    +0.000 A 
ATOM      3  C   UNL     1      46.886   5.852  13.425  0.00  0.00    +0.000 A 
ATOM      4  C   UNL     1      46.323   6.257  12.208  0.00  0.00    +0.000 A 
ATOM      5  C   UNL     1      45.481   5.410  11.479  0.00  0.00    +0.000 A 
ATOM      6  C   UNL     1      45.105   4.202  12.076  0.00  0.00    +0.000 A 
ATOM      7  C   UNL     1      45.669   3.786  13.290  0.00  0.00    +0.000 A 
BRANCH   5   8
ATOM      8  N   UNL     1      44.933   5.741  10.231  0.00  0.00    +0.000 N 
ATOM      9  H   UNL     1      44.830   6.750  10.113  0.00  0.00    +0.000 HD
BRANCH   8  10
ATOM     10  C   UNL     1      45.575   5.138   9.055  0.00  0.00    +0.000 C 
BRANCH  10  11
ATOM     11  C   UNL     1      44.727   3.989   8.465  0.00  0.00    +0.000 C 
BRANCH  11  12
ATOM     12  N   UNL     1      45.461   3.004   7.634  0.00  0.00    +0.000 NA
ATOM     13  C   UNL     1      46.588   3.614   6.912  0.00  0.00    +0.000 C 
ATOM     14  C   UNL     1      47.307   2.585   6.038  0.00  0.00    +0.000 C 
ATOM     15  C   UNL     1      47.796   1.403   6.862  0.00  0.00    +0.000 C 
ATOM     16  C   UNL     1      46.656   0.822   7.686  0.00  0.00    +0.000 C 
ATOM     17  C   UNL     1      45.942   1.906   8.497  0.00  0.00    +0.000 C 
ENDBRANCH  11  12
ENDBRANCH  10  11
ENDBRANCH   8  10
ENDBRANCH   5   8
ENDBRANCH   1   2
BRANCH   1  20
ATOM     18  C   UNL     1      48.638   5.283  16.911  0.00  0.00    +0.000 C 
ATOM     19  O   UNL     1      49.450   4.366  16.938  0.00  0.00    +0.000 OA
ATOM     20  N   UNL     1      47.538   5.240  16.102  0.00  0.00    +0.000 N 
ATOM     21  H   UNL     1      46.854   5.982  16.134  0.00  0.00    +0.000 HD
BRANCH  18  29
ATOM     22  C   UNL     1      48.951   8.640  16.208  0.00  0.00    +0.000 A 
ATOM     23  N   UNL     1      49.092   9.981  16.218  0.00  0.00    +0.000 NA
ATOM     24  C   UNL     1      49.229  10.587  17.400  0.00  0.00    +0.000 A 
ATOM     25  N   UNL     1      49.245  10.012  18.599  0.00  0.00    +0.000 NA
ATOM     26  C   UNL     1      49.095   8.677  18.545  0.00  0.00    +0.000 A 
ATOM     27  S   UNL     1      49.095   7.775  19.982  0.00  0.00    +0.000 S 
ATOM     28  C   UNL     1      48.881   6.322  19.131  0.00  0.00    +0.000 A 
ATOM     29  C   UNL     1      48.804   6.483  17.751  0.00  0.00    +0.000 A 
ATOM     30  C   UNL     1      48.934   7.899  17.403  0.00  0.00    +0.000 A 
BRANCH  22  32
ATOM     31  C   UNL     1      49.998   7.771  14.302  0.00  0.00    +0.000 C 
ATOM     32  O   UNL     1      48.775   8.017  14.991  0.00  0.00    +0.000 OA
ENDBRANCH  22  32
ENDBRANCH  18  29
ENDBRANCH   1  20
TORSDOF 8
ENDMDL
MODEL 5
REMARK VINA RESULT:    -6.664      2.199      3.405
REMARK INTER + INTRA:         -11.192
REMARK INTER:                 -10.215
REMARK INTRA:                  -0.978
REMARK UNBOUND:                -1.412
REMARK  Name = 
REMARK  9 active torsions:
REMARK  status: ('A' for Active; 'I' for Inactive)
REMARK    1  A    between atoms: C_1  and  O_2
REMARK    2  A    between atoms: O_2  and  C_3
REMARK    3  A    between atoms: C_10  and  C_11
REMARK    4  A    between atoms: N_13  and  C_14
REMARK    5  A    between atoms: C_14  and  C_15
REMARK    6  A    between atoms: C_18  and  N_19
REMARK    7  A    between atoms: N_19  and  C_20
REMARK    8  A    between atoms: C_20  and  C_21
REMARK    9  A    between atoms: C_21  and  N_22
REMARK                            x       y       z     vdW  Elec       q    Type
REMARK                         _______ _______ _______ _____ _____    ______ ____
ROOT
ATOM      1  C   UNL     1      46.833   3.741  15.366  0.00  0.00    +0.000 C 
ENDROOT
BRANCH   1   2
ATOM      2  C   UNL     1      46.419   4.247  14.008  0.00  0.00    +0.000 A 
ATOM      3  C   UNL     1      45.934   3.366  13.038  0.00  0.00    +0.000 A 
ATOM      4  C   UNL     1      45.493   3.843  11.798  0.00  0.00    +0.000 A 
ATOM      5  C   UNL     1      45.504   5.210  11.499  0.00  0.00    +0.000 A 
ATOM      6  C   UNL     1      46.104   6.069  12.426  0.00  0.00    +0.000 A 
ATOM      7  C   UNL     1      46.542   5.601  13.672  0.00  0.00    +0.000 A 
BRANCH   5   8
ATOM      8  N   UNL     1      45.023   5.750  10.297  0.00  0.00    +0.000 N 
ATOM      9  H   UNL     1      45.051   6.771  10.298  0.00  0.00    +0.000 HD
BRANCH   8  10
ATOM     10  C   UNL     1      45.601   5.211   9.060  0.00  0.00    +0.000 C 
BRANCH  10  11
ATOM     11  C   UNL     1      44.707   4.112   8.442  0.00  0.00    +0.000 C 
BRANCH  11  12
ATOM     12  N   UNL     1      45.411   3.078   7.644  0.00  0.00    +0.000 NA
ATOM     13  C   UNL     1      46.554   3.630   6.901  0.00  0.00    +0.000 C 
ATOM     14  C   UNL     1      47.241   2.551   6.062  0.00  0.00    +0.000 C 
ATOM     15  C   UNL     1      47.698   1.385   6.926  0.00  0.00    +0.000 C 
ATOM     16  C   UNL     1      46.542   0.865   7.770  0.00  0.00    +0.000 C 
ATOM     17  C   UNL     1      45.862   1.997   8.543  0.00  0.00    +0.000 C 
ENDBRANCH  11  12
ENDBRANCH  10  11
ENDBRANCH   8  10
ENDBRANCH   5   8
ENDBRANCH   1   2
BRANCH   1  20
ATOM     18  C   UNL     1      47.748   5.032  17.251  0.00  0.00    +0.000 C 
ATOM     19  O   UNL     1      46.814   4.714  17.978  0.00  0.00    +0.000 OA
ATOM     20  N   UNL     1      47.827   4.596  15.958  0.00  0.00    +0.000 N 
ATOM     21  H   UNL     1      48.577   4.912  15.360  0.00  0.00    +0.000 HD
BRANCH  18  29
ATOM     22  C   UNL     1      51.159   4.635  17.502  0.00  0.00    +0.000 A 
ATOM     23  N   UNL     1      52.487   4.745  17.708  0.00  0.00    +0.000 NA
ATOM     24  C   UNL     1      52.947   5.882  18.237  0.00  0.00    +0.000 A 
ATOM     25  N   UNL     1      52.232   6.945  18.596  0.00  0.00    +0.000 NA
ATOM     26  C   UNL     1      50.916   6.796  18.369  0.00  0.00    +0.000 A 
ATOM     27  S   UNL     1      49.849   8.054  18.770  0.00  0.00    +0.000 S 
ATOM     28  C   UNL     1      48.510   7.160  18.227  0.00  0.00    +0.000 A 
ATOM     29  C   UNL     1      48.836   5.901  17.733  0.00  0.00    +0.000 A 
ATOM     30  C   UNL     1      50.281   5.686  17.820  0.00  0.00    +0.000 A 
BRANCH  22  32
ATOM     31  C   UNL     1      51.201   2.293  17.534  0.00  0.00    +0.000 C 
ATOM     32  O   UNL     1      50.689   3.475  16.924  0.00  0.00    +0.000 OA
ENDBRANCH  22  32
ENDBRANCH  18  29
ENDBRANCH   1  20
TORSDOF 8
ENDMDL
MODEL 6
REMARK VINA RESULT:    -6.458      3.115      7.726
REMARK INTER + INTRA:         -10.890
REMARK INTER:                  -9.359
REMARK INTRA:                  -1.531
REMARK UNBOUND:                -1.412
REMARK  Name = 
REMARK  9 active torsions:
REMARK  status: ('A' for Active; 'I' for Inactive)
REMARK    1  A    between atoms: C_1  and  O_2
REMARK    2  A    between atoms: O_2  and  C_3
REMARK    3  A    between atoms: C_10  and  C_11
REMARK    4  A    between atoms: N_13  and  C_14
REMARK    5  A    between atoms: C_14  and  C_15
REMARK    6  A    between atoms: C_18  and  N_19
REMARK    7  A    between atoms: N_19  and  C_20
REMARK    8  A    between atoms: C_20  and  C_21
REMARK    9  A    between atoms: C_21  and  N_22
REMARK                            x       y       z     vdW  Elec       q    Type
REMARK                         _______ _______ _______ _____ _____    ______ ____
ROOT
ATOM      1  C   UNL     1      48.447   8.040  11.762  0.00  0.00    +0.000 C 
ENDROOT
BRANCH   1   2
ATOM      2  C   UNL     1      48.516   8.006  13.268  0.00  0.00    +0.000 A 
ATOM      3  C   UNL     1      48.024   9.073  14.025  0.00  0.00    +0.000 A 
ATOM      4  C   UNL     1      48.033   9.016  15.425  0.00  0.00    +0.000 A 
ATOM      5  C   UNL     1      48.512   7.890  16.104  0.00  0.00    +0.000 A 
ATOM      6  C   UNL     1      49.115   6.884  15.341  0.00  0.00    +0.000 A 
ATOM      7  C   UNL     1      49.105   6.929  13.941  0.00  0.00    +0.000 A 
BRANCH   5   8
ATOM      8  N   UNL     1      48.494   7.755  17.500  0.00  0.00    +0.000 N 
ATOM      9  H   UNL     1      47.576   7.471  17.845  0.00  0.00    +0.000 HD
BRANCH   8  10
ATOM     10  C   UNL     1      49.555   6.931  18.091  0.00  0.00    +0.000 C 
BRANCH  10  11
ATOM     11  C   UNL     1      48.995   5.936  19.133  0.00  0.00    +0.000 C 
BRANCH  11  12
ATOM     12  N   UNL     1      48.790   4.547  18.655  0.00  0.00    +0.000 NA
ATOM     13  C   UNL     1      47.544   4.400  17.886  0.00  0.00    +0.000 C 
ATOM     14  C   UNL     1      47.340   2.953  17.435  0.00  0.00    +0.000 C 
ATOM     15  C   UNL     1      48.520   2.457  16.612  0.00  0.00    +0.000 C 
ATOM     16  C   UNL     1      49.825   2.691  17.361  0.00  0.00    +0.000 C 
ATOM     17  C   UNL     1      49.947   4.141  17.833  0.00  0.00    +0.000 C 
ENDBRANCH  11  12
ENDBRANCH  10  11
ENDBRANCH   8  10
ENDBRANCH   5   8
ENDBRANCH   1   2
BRANCH   1  20
ATOM     18  C   UNL     1      46.312   6.904  11.304  0.00  0.00    +0.000 C 
ATOM     19  O   UNL     1      45.668   7.824  11.795  0.00  0.00    +0.000 OA
ATOM     20  N   UNL     1      47.677   6.936  11.253  0.00  0.00    +0.000 N 
ATOM     21  H   UNL     1      48.191   6.145  10.891  0.00  0.00    +0.000 HD
BRANCH  18  29
ATOM     22  C   UNL     1      44.540   4.303  12.702  0.00  0.00    +0.000 A 
ATOM     23  N   UNL     1      43.826   3.194  12.978  0.00  0.00    +0.000 NA
ATOM     24  C   UNL     1      43.481   2.402  11.960  0.00  0.00    +0.000 A 
ATOM     25  N   UNL     1      43.766   2.580  10.673  0.00  0.00    +0.000 NA
ATOM     26  C   UNL     1      44.473   3.699  10.441  0.00  0.00    +0.000 A 
ATOM     27  S   UNL     1      44.931   4.087   8.853  0.00  0.00    +0.000 S 
ATOM     28  C   UNL     1      45.715   5.502   9.370  0.00  0.00    +0.000 A 
ATOM     29  C   UNL     1      45.648   5.714  10.743  0.00  0.00    +0.000 A 
ATOM     30  C   UNL     1      44.903   4.629  11.383  0.00  0.00    +0.000 A 
BRANCH  22  32
ATOM     31  C   UNL     1      46.149   4.865  14.309  0.00  0.00    +0.000 C 
ATOM     32  O   UNL     1      44.868   5.139  13.749  0.00  0.00    +0.000 OA
ENDBRANCH  22  32
ENDBRANCH  18  29
ENDBRANCH   1  20
TORSDOF 8
ENDMDL
MODEL 7
REMARK VINA RESULT:    -6.435      1.945      2.602
REMARK INTER + INTRA:         -10.856
REMARK INTER:                  -9.744
REMARK INTRA:                  -1.112
REMARK UNBOUND:                -1.412
REMARK  Name = 
REMARK  9 active torsions:
REMARK  status: ('A' for Active; 'I' for Inactive)
REMARK    1  A    between atoms: C_1  and  O_2
REMARK    2  A    between atoms: O_2  and  C_3
REMARK    3  A    between atoms: C_10  and  C_11
REMARK    4  A    between atoms: N_13  and  C_14
REMARK    5  A    between atoms: C_14  and  C_15
REMARK    6  A    between atoms: C_18  and  N_19
REMARK    7  A    between atoms: N_19  and  C_20
REMARK    8  A    between atoms: C_20  and  C_21
REMARK    9  A    between atoms: C_21  and  N_22
REMARK                            x       y       z     vdW  Elec       q    Type
REMARK                         _______ _______ _______ _____ _____    ______ ____
ROOT
ATOM      1  C   UNL     1      48.988   7.741  12.829  0.00  0.00    +0.000 C 
ENDROOT
BRANCH   1   2
ATOM      2  C   UNL     1      47.711   6.944  12.746  0.00  0.00    +0.000 A 
ATOM      3  C   UNL     1      47.598   5.713  13.397  0.00  0.00    +0.000 A 
ATOM      4  C   UNL     1      46.392   5.000  13.371  0.00  0.00    +0.000 A 
ATOM      5  C   UNL     1      45.265   5.504  12.712  0.00  0.00    +0.000 A 
ATOM      6  C   UNL     1      45.424   6.673  11.960  0.00  0.00    +0.000 A 
ATOM      7  C   UNL     1      46.624   7.396  11.987  0.00  0.00    +0.000 A 
BRANCH   5   8
ATOM      8  N   UNL     1      44.018   4.862  12.699  0.00  0.00    +0.000 N 
ATOM      9  H   UNL     1      43.340   5.354  12.115  0.00  0.00    +0.000 HD
BRANCH   8  10
ATOM     10  C   UNL     1      44.025   3.425  12.398  0.00  0.00    +0.000 C 
BRANCH  10  11
ATOM     11  C   UNL     1      43.692   3.149  10.914  0.00  0.00    +0.000 C 
BRANCH  11  12
ATOM     12  N   UNL     1      44.847   3.135   9.983  0.00  0.00    +0.000 NA
ATOM     13  C   UNL     1      44.898   1.906   9.175  0.00  0.00    +0.000 C 
ATOM     14  C   UNL     1      46.115   1.904   8.250  0.00  0.00    +0.000 C 
ATOM     15  C   UNL     1      46.123   3.123   7.340  0.00  0.00    +0.000 C 
ATOM     16  C   UNL     1      45.976   4.398   8.160  0.00  0.00    +0.000 C 
ATOM     17  C   UNL     1      44.774   4.320   9.104  0.00  0.00    +0.000 C 
ENDBRANCH  11  12
ENDBRANCH  10  11
ENDBRANCH   8  10
ENDBRANCH   5   8
ENDBRANCH   1   2
BRANCH   1  20
ATOM     18  C   UNL     1      49.893   7.615  15.114  0.00  0.00    +0.000 C 
ATOM     19  O   UNL     1      49.139   8.497  15.508  0.00  0.00    +0.000 OA
ATOM     20  N   UNL     1      49.880   7.191  13.815  0.00  0.00    +0.000 N 
ATOM     21  H   UNL     1      50.545   6.500  13.499  0.00  0.00    +0.000 HD
BRANCH  18  29
ATOM     22  C   UNL     1      49.542   5.606  17.889  0.00  0.00    +0.000 A 
ATOM     23  N   UNL     1      49.692   4.823  18.977  0.00  0.00    +0.000 NA
ATOM     24  C   UNL     1      50.933   4.551  19.387  0.00  0.00    +0.000 A 
ATOM     25  N   UNL     1      52.069   4.973  18.837  0.00  0.00    +0.000 NA
ATOM     26  C   UNL     1      51.875   5.745  17.754  0.00  0.00    +0.000 A 
ATOM     27  S   UNL     1      53.215   6.376  16.925  0.00  0.00    +0.000 S 
ATOM     28  C   UNL     1      52.214   7.161  15.800  0.00  0.00    +0.000 A 
ATOM     29  C   UNL     1      50.855   6.963  16.021  0.00  0.00    +0.000 A 
ATOM     30  C   UNL     1      50.656   6.113  17.196  0.00  0.00    +0.000 A 
BRANCH  22  32
ATOM     31  C   UNL     1      47.259   5.200  18.214  0.00  0.00    +0.000 C 
ATOM     32  O   UNL     1      48.261   5.859  17.446  0.00  0.00    +0.000 OA
ENDBRANCH  22  32
ENDBRANCH  18  29
ENDBRANCH   1  20
TORSDOF 8
ENDMDL
MODEL 8
REMARK VINA RESULT:    -6.429      2.977      4.971
REMARK INTER + INTRA:         -10.848
REMARK INTER:                  -9.694
REMARK INTRA:                  -1.154
REMARK UNBOUND:                -1.412
REMARK  Name = 
REMARK  9 active torsions:
REMARK  status: ('A' for Active; 'I' for Inactive)
REMARK    1  A    between atoms: C_1  and  O_2
REMARK    2  A    between atoms: O_2  and  C_3
REMARK    3  A    between atoms: C_10  and  C_11
REMARK    4  A    between atoms: N_13  and  C_14
REMARK    5  A    between atoms: C_14  and  C_15
REMARK    6  A    between atoms: C_18  and  N_19
REMARK    7  A    between atoms: N_19  and  C_20
REMARK    8  A    between atoms: C_20  and  C_21
REMARK    9  A    between atoms: C_21  and  N_22
REMARK                            x       y       z     vdW  Elec       q    Type
REMARK                         _______ _______ _______ _____ _____    ______ ____
ROOT
ATOM      1  C   UNL     1      47.934   6.026  14.349  0.00  0.00    +0.000 C 
ENDROOT
BRANCH   1   2
ATOM      2  C   UNL     1      46.806   5.663  13.417  0.00  0.00    +0.000 A 
ATOM      3  C   UNL     1      46.700   6.267  12.161  0.00  0.00    +0.000 A 
ATOM      4  C   UNL     1      45.688   5.886  11.271  0.00  0.00    +0.000 A 
ATOM      5  C   UNL     1      44.769   4.884  11.600  0.00  0.00    +0.000 A 
ATOM      6  C   UNL     1      44.807   4.376  12.903  0.00  0.00    +0.000 A 
ATOM      7  C   UNL     1      45.820   4.746  13.798  0.00  0.00    +0.000 A 
BRANCH   5   8
ATOM      8  N   UNL     1      43.771   4.424  10.729  0.00  0.00    +0.000 N 
ATOM      9  H   UNL     1      43.341   5.187  10.203  0.00  0.00    +0.000 HD
BRANCH   8  10
ATOM     10  C   UNL     1      44.138   3.315   9.840  0.00  0.00    +0.000 C 
BRANCH  10  11
ATOM     11  C   UNL     1      44.467   3.809   8.413  0.00  0.00    +0.000 C 
BRANCH  11  12
ATOM     12  N   UNL     1      45.334   2.918   7.603  0.00  0.00    +0.000 NA
ATOM     13  C   UNL     1      46.424   3.652   6.942  0.00  0.00    +0.000 C 
ATOM     14  C   UNL     1      47.281   2.717   6.088  0.00  0.00    +0.000 C 
ATOM     15  C   UNL     1      47.852   1.576   6.918  0.00  0.00    +0.000 C 
ATOM     16  C   UNL     1      46.742   0.868   7.682  0.00  0.00    +0.000 C 
ATOM     17  C   UNL     1      45.886   1.860   8.472  0.00  0.00    +0.000 C 
ENDBRANCH  11  12
ENDBRANCH  10  11
ENDBRANCH   8  10
ENDBRANCH   5   8
ENDBRANCH   1   2
BRANCH   1  20
ATOM     18  C   UNL     1      49.676   7.763  14.422  0.00  0.00    +0.000 C 
ATOM     19  O   UNL     1      49.650   7.799  15.647  0.00  0.00    +0.000 OA
ATOM     20  N   UNL     1      48.865   6.922  13.714  0.00  0.00    +0.000 N 
ATOM     21  H   UNL     1      48.865   6.945  12.704  0.00  0.00    +0.000 HD
BRANCH  18  29
ATOM     22  C   UNL     1      49.222   9.866  11.733  0.00  0.00    +0.000 A 
ATOM     23  N   UNL     1      49.326  10.734  10.707  0.00  0.00    +0.000 NA
ATOM     24  C   UNL     1      50.532  11.238  10.432  0.00  0.00    +0.000 A 
ATOM     25  N   UNL     1      51.673  10.977  11.066  0.00  0.00    +0.000 NA
ATOM     26  C   UNL     1      51.524  10.113  12.084  0.00  0.00    +0.000 A 
ATOM     27  S   UNL     1      52.877   9.661  13.004  0.00  0.00    +0.000 S 
ATOM     28  C   UNL     1      51.934   8.646  13.986  0.00  0.00    +0.000 A 
ATOM     29  C   UNL     1      50.585   8.626  13.646  0.00  0.00    +0.000 A 
ATOM     30  C   UNL     1      50.343   9.508  12.503  0.00  0.00    +0.000 A 
BRANCH  22  32
ATOM     31  C   UNL     1      46.970  10.383  12.114  0.00  0.00    +0.000 C 
ATOM     32  O   UNL     1      47.972   9.372  12.038  0.00  0.00    +0.000 OA
ENDBRANCH  22  32
ENDBRANCH  18  29
ENDBRANCH   1  20
TORSDOF 8
ENDMDL
MODEL 9
REMARK VINA RESULT:    -6.409      4.673      9.130
REMARK INTER + INTRA:         -10.819
REMARK INTER:                  -9.948
REMARK INTRA:                  -0.871
REMARK UNBOUND:                -1.412
REMARK  Name = 
REMARK  9 active torsions:
REMARK  status: ('A' for Active; 'I' for Inactive)
REMARK    1  A    between atoms: C_1  and  O_2
REMARK    2  A    between atoms: O_2  and  C_3
REMARK    3  A    between atoms: C_10  and  C_11
REMARK    4  A    between atoms: N_13  and  C_14
REMARK    5  A    between atoms: C_14  and  C_15
REMARK    6  A    between atoms: C_18  and  N_19
REMARK    7  A    between atoms: N_19  and  C_20
REMARK    8  A    between atoms: C_20  and  C_21
REMARK    9  A    between atoms: C_21  and  N_22
REMARK                            x       y       z     vdW  Elec       q    Type
REMARK                         _______ _______ _______ _____ _____    ______ ____
ROOT
ATOM      1  C   UNL     1      47.137   3.423  16.813  0.00  0.00    +0.000 C 
ENDROOT
BRANCH   1   2
ATOM      2  C   UNL     1      48.622   3.376  17.070  0.00  0.00    +0.000 A 
ATOM      3  C   UNL     1      49.327   4.541  17.384  0.00  0.00    +0.000 A 
ATOM      4  C   UNL     1      50.694   4.488  17.682  0.00  0.00    +0.000 A 
ATOM      5  C   UNL     1      51.390   3.274  17.693  0.00  0.00    +0.000 A 
ATOM      6  C   UNL     1      50.706   2.134  17.257  0.00  0.00    +0.000 A 
ATOM      7  C   UNL     1      49.336   2.176  16.964  0.00  0.00    +0.000 A 
BRANCH   5   8
ATOM      8  N   UNL     1      52.744   3.154  18.037  0.00  0.00    +0.000 N 
ATOM      9  H   UNL     1      52.983   3.719  18.853  0.00  0.00    +0.000 HD
BRANCH   8  10
ATOM     10  C   UNL     1      53.266   1.789  18.173  0.00  0.00    +0.000 C 
BRANCH  10  11
ATOM     11  C   UNL     1      54.584   1.598  17.389  0.00  0.00    +0.000 C 
BRANCH  11  12
ATOM     12  N   UNL     1      55.137   0.221  17.378  0.00  0.00    +0.000 NA
ATOM     13  C   UNL     1      54.816  -0.518  18.610  0.00  0.00    +0.000 C 
ATOM     14  C   UNL     1      55.426  -1.920  18.587  0.00  0.00    +0.000 C 
ATOM     15  C   UNL     1      54.958  -2.708  17.372  0.00  0.00    +0.000 C 
ATOM     16  C   UNL     1      55.200  -1.911  16.097  0.00  0.00    +0.000 C 
ATOM     17  C   UNL     1      54.615  -0.501  16.201  0.00  0.00    +0.000 C 
ENDBRANCH  11  12
ENDBRANCH  10  11
ENDBRANCH   8  10
ENDBRANCH   5   8
ENDBRANCH   1   2
BRANCH   1  20
ATOM     18  C   UNL     1      46.886   4.253  14.510  0.00  0.00    +0.000 C 
ATOM     19  O   UNL     1      47.247   3.181  14.039  0.00  0.00    +0.000 OA
ATOM     20  N   UNL     1      46.808   4.450  15.860  0.00  0.00    +0.000 N 
ATOM     21  H   UNL     1      46.559   5.357  16.228  0.00  0.00    +0.000 HD
BRANCH  18  29
ATOM     22  C   UNL     1      44.083   5.000  12.653  0.00  0.00    +0.000 A 
ATOM     23  N   UNL     1      43.133   5.528  11.856  0.00  0.00    +0.000 NA
ATOM     24  C   UNL     1      43.389   6.699  11.267  0.00  0.00    +0.000 A 
ATOM     25  N   UNL     1      44.500   7.424  11.374  0.00  0.00    +0.000 NA
ATOM     26  C   UNL     1      45.417   6.865  12.181  0.00  0.00    +0.000 A 
ATOM     27  S   UNL     1      46.901   7.650  12.433  0.00  0.00    +0.000 S 
ATOM     28  C   UNL     1      47.439   6.415  13.467  0.00  0.00    +0.000 A 
ATOM     29  C   UNL     1      46.516   5.389  13.646  0.00  0.00    +0.000 A 
ATOM     30  C   UNL     1      45.304   5.662  12.872  0.00  0.00    +0.000 A 
BRANCH  22  32
ATOM     31  C   UNL     1      43.595   2.725  12.386  0.00  0.00    +0.000 C 
ATOM     32  O   UNL     1      43.805   3.808  13.288  0.00  0.00    +0.000 OA
ENDBRANCH  22  32
ENDBRANCH  18  29
ENDBRANCH   1  20
TORSDOF 8
ENDMDL
