MODEL 1
REMARK VINA RESULT:    -8.162      0.000      0.000
REMARK INTER + INTRA:         -12.301
REMARK INTER:                 -11.502
REMARK INTRA:                  -0.799
REMARK UNBOUND:                -0.799
REMARK  Name = 
REMARK  7 active torsions:
REMARK  status: ('A' for Active; 'I' for Inactive)
REMARK    1  A    between atoms: C_2  and  C_4
REMARK    2  A    between atoms: C_7  and  N_8
REMARK    3  A    between atoms: N_8  and  C_9
REMARK    4  A    between atoms: C_9  and  C_10
REMARK    5  A    between atoms: C_10  and  C_11
REMARK    6  A    between atoms: C_15  and  O_16
REMARK    7  A    between atoms: O_16  and  C_17
REMARK                            x       y       z     vdW  Elec       q    Type
REMARK                         _______ _______ _______ _____ _____    ______ ____
ROOT
ATOM      1  C   UNL     1      43.192   4.410  11.278  0.00  0.00    +0.000 C 
ENDROOT
BRANCH   1   2
ATOM      2  N   UNL     1      43.777   4.842  10.011  0.00  0.00    +0.000 N 
ATOM      3  H   UNL     1      43.971   5.838   9.938  0.00  0.00    +0.000 HD
BRANCH   2   7
ATOM      4  C   UNL     1      46.478   2.594   7.782  0.00  0.00    +0.000 A 
ATOM      5  C   UNL     1      45.653   1.915   8.668  0.00  0.00    +0.000 A 
ATOM      6  C   UNL     1      44.759   2.653   9.444  0.00  0.00    +0.000 A 
ATOM      7  C   UNL     1      44.709   4.046   9.346  0.00  0.00    +0.000 A 
ATOM      8  C   UNL     1      45.579   4.616   8.405  0.00  0.00    +0.000 A 
ATOM      9  N   UNL     1      46.468   3.944   7.633  0.00  0.00    +0.000 NA
BRANCH   4  11
ATOM     10  N   UNL     1      48.563   2.489   6.547  0.00  0.00    +0.000 N 
ATOM     11  C   UNL     1      47.428   1.821   6.921  0.00  0.00    +0.000 C 
ATOM     12  O   UNL     1      47.217   0.667   6.569  0.00  0.00    +0.000 OA
ATOM     13  H   UNL     1      49.251   2.023   5.975  0.00  0.00    +0.000 HD
ATOM     14  H   UNL     1      48.713   3.440   6.868  0.00  0.00    +0.000 HD
ENDBRANCH   4  11
ENDBRANCH   2   7
ENDBRANCH   1   2
BRANCH   1  15
ATOM     15  C   UNL     1      43.401   5.474  12.362  0.00  0.00    +0.000 C 
BRANCH  15  16
ATOM     16  C   UNL     1      44.831   5.499  12.829  0.00  0.00    +0.000 A 
ATOM     17  C   UNL     1      45.610   6.644  12.681  0.00  0.00    +0.000 A 
ATOM     18  N   UNL     1      46.882   6.751  13.123  0.00  0.00    +0.000 NA
ATOM     19  C   UNL     1      47.398   5.670  13.751  0.00  0.00    +0.000 A 
ATOM     20  C   UNL     1      46.704   4.488  13.968  0.00  0.00    +0.000 A 
ATOM     21  C   UNL     1      45.404   4.398  13.481  0.00  0.00    +0.000 A 
BRANCH  20  22
ATOM     22  O   UNL     1      47.367   3.488  14.629  0.00  0.00    +0.000 OA
BRANCH  22  23
ATOM     23  C   UNL     1      47.916   3.771  15.939  0.00  0.00    +0.000 C 
ATOM     24  C   UNL     1      48.340   2.575  16.817  0.00  0.00    +0.000 C 
ATOM     25  N   UNL     1      47.543   3.096  17.937  0.00  0.00    +0.000 NA
ATOM     26  C   UNL     1      46.874   4.053  17.042  0.00  0.00    +0.000 C 
ATOM     27  H   UNL     1      48.091   3.531  18.678  0.00  0.00    +0.000 HD
ENDBRANCH  22  23
ENDBRANCH  20  22
ENDBRANCH  15  16
ENDBRANCH   1  15
TORSDOF 7
ENDMDL
MODEL 2
REMARK VINA RESULT:    -7.460      1.616      7.589
REMARK INTER + INTRA:         -11.312
REMARK INTER:                 -10.666
REMARK INTRA:                  -0.646
REMARK UNBOUND:                -0.799
REMARK  Name = 
REMARK  7 active torsions:
REMARK  status: ('A' for Active; 'I' for Inactive)
REMARK    1  A    between atoms: C_2  and  C_4
REMARK    2  A    between atoms: C_7  and  N_8
REMARK    3  A    between atoms: N_8  and  C_9
REMARK    4  A    between atoms: C_9  and  C_10
REMARK    5  A    between atoms: C_10  and  C_11
REMARK    6  A    between atoms: C_15  and  O_16
REMARK    7  A    between atoms: O_16  and  C_17
REMARK                            x       y       z     vdW  Elec       q    Type
REMARK                         _______ _______ _______ _____ _____    ______ ____
ROOT
ATOM      1  C   UNL     1      46.649   6.465  11.461  0.00  0.00    +0.000 C 
ENDROOT
BRANCH   1   2
ATOM      2  N   UNL     1      46.609   6.706  12.900  0.00  0.00    +0.000 N 
ATOM      3  H   UNL     1      45.779   7.189  13.238  0.00  0.00    +0.000 HD
BRANCH   2   7
ATOM      4  C   UNL     1      47.821   3.764  15.583  0.00  0.00    +0.000 A 
ATOM      5  C   UNL     1      48.129   5.082  15.890  0.00  0.00    +0.000 A 
ATOM      6  C   UNL     1      47.755   6.081  14.991  0.00  0.00    +0.000 A 
ATOM      7  C   UNL     1      47.103   5.760  13.798  0.00  0.00    +0.000 A 
ATOM      8  C   UNL     1      46.831   4.398  13.606  0.00  0.00    +0.000 A 
ATOM      9  N   UNL     1      47.178   3.390  14.445  0.00  0.00    +0.000 NA
BRANCH   4  11
ATOM     10  N   UNL     1      47.466   2.646  17.706  0.00  0.00    +0.000 N 
ATOM     11  C   UNL     1      48.190   2.677  16.544  0.00  0.00    +0.000 C 
ATOM     12  O   UNL     1      49.076   1.863  16.317  0.00  0.00    +0.000 OA
ATOM     13  H   UNL     1      47.656   1.933  18.392  0.00  0.00    +0.000 HD
ATOM     14  H   UNL     1      46.730   3.328  17.855  0.00  0.00    +0.000 HD
ENDBRANCH   4  11
ENDBRANCH   2   7
ENDBRANCH   1   2
BRANCH   1  15
ATOM     15  C   UNL     1      45.230   6.352  10.890  0.00  0.00    +0.000 C 
BRANCH  15  16
ATOM     16  C   UNL     1      45.017   5.018  10.228  0.00  0.00    +0.000 A 
ATOM     17  C   UNL     1      44.251   4.030  10.843  0.00  0.00    +0.000 A 
ATOM     18  N   UNL     1      43.978   2.832  10.283  0.00  0.00    +0.000 NA
ATOM     19  C   UNL     1      44.482   2.612   9.047  0.00  0.00    +0.000 A 
ATOM     20  C   UNL     1      45.241   3.532   8.338  0.00  0.00    +0.000 A 
ATOM     21  C   UNL     1      45.526   4.749   8.950  0.00  0.00    +0.000 A 
BRANCH  20  22
ATOM     22  O   UNL     1      45.670   3.159   7.092  0.00  0.00    +0.000 OA
BRANCH  22  23
ATOM     23  C   UNL     1      47.094   3.041   6.859  0.00  0.00    +0.000 C 
ATOM     24  C   UNL     1      47.571   2.819   5.407  0.00  0.00    +0.000 C 
ATOM     25  N   UNL     1      48.371   1.661   5.833  0.00  0.00    +0.000 NA
ATOM     26  C   UNL     1      47.694   1.647   7.139  0.00  0.00    +0.000 C 
ATOM     27  H   UNL     1      49.374   1.839   5.885  0.00  0.00    +0.000 HD
ENDBRANCH  22  23
ENDBRANCH  20  22
ENDBRANCH  15  16
ENDBRANCH   1  15
TORSDOF 7
ENDMDL
MODEL 3
REMARK VINA RESULT:    -7.397      2.218      4.103
REMARK INTER + INTRA:         -11.224
REMARK INTER:                 -10.481
REMARK INTRA:                  -0.743
REMARK UNBOUND:                -0.799
REMARK  Name = 
REMARK  7 active torsions:
REMARK  status: ('A' for Active; 'I' for Inactive)
REMARK    1  A    between atoms: C_2  and  C_4
REMARK    2  A    between atoms: C_7  and  N_8
REMARK    3  A    between atoms: N_8  and  C_9
REMARK    4  A    between atoms: C_9  and  C_10
REMARK    5  A    between atoms: C_10  and  C_11
REMARK    6  A    between atoms: C_15  and  O_16
REMARK    7  A    between atoms: O_16  and  C_17
REMARK                            x       y       z     vdW  Elec       q    Type
REMARK                         _______ _______ _______ _____ _____    ______ ____
ROOT
ATOM      1  C   UNL     1      43.986   3.043  11.921  0.00  0.00    +0.000 C 
ENDROOT
BRANCH   1   2
ATOM      2  N   UNL     1      43.714   3.553  10.580  0.00  0.00    +0.000 N 
ATOM      3  H   UNL     1      43.324   4.492  10.543  0.00  0.00    +0.000 HD
BRANCH   2   7
ATOM      4  C   UNL     1      46.435   2.549   7.595  0.00  0.00    +0.000 A 
ATOM      5  C   UNL     1      46.066   3.882   7.709  0.00  0.00    +0.000 A 
ATOM      6  C   UNL     1      45.135   4.236   8.686  0.00  0.00    +0.000 A 
ATOM      7  C   UNL     1      44.571   3.266   9.518  0.00  0.00    +0.000 A 
ATOM      8  C   UNL     1      45.034   1.957   9.320  0.00  0.00    +0.000 A 
ATOM      9  N   UNL     1      45.930   1.563   8.383  0.00  0.00    +0.000 NA
BRANCH   4  11
ATOM     10  N   UNL     1      47.752   3.103   5.635  0.00  0.00    +0.000 N 
ATOM     11  C   UNL     1      47.451   2.150   6.571  0.00  0.00    +0.000 C 
ATOM     12  O   UNL     1      47.986   1.048   6.562  0.00  0.00    +0.000 OA
ATOM     13  H   UNL     1      48.436   2.902   4.922  0.00  0.00    +0.000 HD
ATOM     14  H   UNL     1      47.299   4.009   5.681  0.00  0.00    +0.000 HD
ENDBRANCH   4  11
ENDBRANCH   2   7
ENDBRANCH   1   2
BRANCH   1  15
ATOM     15  C   UNL     1      43.900   4.169  12.958  0.00  0.00    +0.000 C 
BRANCH  15  16
ATOM     16  C   UNL     1      45.192   4.935  13.035  0.00  0.00    +0.000 A 
ATOM     17  C   UNL     1      46.312   4.384  13.654  0.00  0.00    +0.000 A 
ATOM     18  N   UNL     1      47.515   4.994  13.715  0.00  0.00    +0.000 NA
ATOM     19  C   UNL     1      47.610   6.206  13.121  0.00  0.00    +0.000 A 
ATOM     20  C   UNL     1      46.564   6.837  12.463  0.00  0.00    +0.000 A 
ATOM     21  C   UNL     1      45.330   6.195  12.437  0.00  0.00    +0.000 A 
BRANCH  20  22
ATOM     22  O   UNL     1      46.826   8.061  11.906  0.00  0.00    +0.000 OA
BRANCH  22  23
ATOM     23  C   UNL     1      46.349   9.246  12.587  0.00  0.00    +0.000 C 
ATOM     24  C   UNL     1      45.026   9.876  12.100  0.00  0.00    +0.000 C 
ATOM     25  N   UNL     1      45.675  11.191  11.993  0.00  0.00    +0.000 NA
ATOM     26  C   UNL     1      47.001  10.571  12.137  0.00  0.00    +0.000 C 
ATOM     27  H   UNL     1      45.435  11.841  12.740  0.00  0.00    +0.000 HD
ENDBRANCH  22  23
ENDBRANCH  20  22
ENDBRANCH  15  16
ENDBRANCH   1  15
TORSDOF 7
ENDMDL
MODEL 4
REMARK VINA RESULT:    -6.958      1.722      1.959
REMARK INTER + INTRA:         -10.605
REMARK INTER:                 -10.049
REMARK INTRA:                  -0.556
REMARK UNBOUND:                -0.799
REMARK  Name = 
REMARK  7 active torsions:
REMARK  status: ('A' for Active; 'I' for Inactive)
REMARK    1  A    between atoms: C_2  and  C_4
REMARK    2  A    between atoms: C_7  and  N_8
REMARK    3  A    between atoms: N_8  and  C_9
REMARK    4  A    between atoms: C_9  and  C_10
REMARK    5  A    between atoms: C_10  and  C_11
REMARK    6  A    between atoms: C_15  and  O_16
REMARK    7  A    between atoms: O_16  and  C_17
REMARK                            x       y       z     vdW  Elec       q    Type
REMARK                         _______ _______ _______ _____ _____    ______ ____
ROOT
ATOM      1  C   UNL     1      44.138   4.600  11.696  0.00  0.00    +0.000 C 
ENDROOT
BRANCH   1   2
ATOM      2  N   UNL     1      43.747   3.968  10.439  0.00  0.00    +0.000 N 
ATOM      3  H   UNL     1      42.925   4.366   9.989  0.00  0.00    +0.000 HD
BRANCH   2   7
ATOM      4  C   UNL     1      46.480   2.768   7.538  0.00  0.00    +0.000 A 
ATOM      5  C   UNL     1      45.929   1.786   8.350  0.00  0.00    +0.000 A 
ATOM      6  C   UNL     1      45.030   2.170   9.346  0.00  0.00    +0.000 A 
ATOM      7  C   UNL     1      44.709   3.516   9.535  0.00  0.00    +0.000 A 
ATOM      8  C   UNL     1      45.315   4.414   8.645  0.00  0.00    +0.000 A 
ATOM      9  N   UNL     1      46.197   4.091   7.667  0.00  0.00    +0.000 NA
BRANCH   4  11
ATOM     10  N   UNL     1      47.331   3.108   5.293  0.00  0.00    +0.000 N 
ATOM     11  C   UNL     1      47.426   2.377   6.447  0.00  0.00    +0.000 C 
ATOM     12  O   UNL     1      48.238   1.468   6.566  0.00  0.00    +0.000 OA
ATOM     13  H   UNL     1      47.947   2.903   4.521  0.00  0.00    +0.000 HD
ATOM     14  H   UNL     1      46.656   3.863   5.233  0.00  0.00    +0.000 HD
ENDBRANCH   4  11
ENDBRANCH   2   7
ENDBRANCH   1   2
BRANCH   1  15
ATOM     15  C   UNL     1      44.104   6.127  11.569  0.00  0.00    +0.000 C 
BRANCH  15  16
ATOM     16  C   UNL     1      45.286   6.756  12.254  0.00  0.00    +0.000 A 
ATOM     17  C   UNL     1      45.422   8.141  12.317  0.00  0.00    +0.000 A 
ATOM     18  N   UNL     1      46.429   8.771  12.958  0.00  0.00    +0.000 NA
ATOM     19  C   UNL     1      47.339   7.983  13.577  0.00  0.00    +0.000 A 
ATOM     20  C   UNL     1      47.289   6.596  13.594  0.00  0.00    +0.000 A 
ATOM     21  C   UNL     1      46.252   5.975  12.904  0.00  0.00    +0.000 A 
BRANCH  20  22
ATOM     22  O   UNL     1      48.283   5.944  14.274  0.00  0.00    +0.000 OA
BRANCH  22  23
ATOM     23  C   UNL     1      48.621   6.399  15.607  0.00  0.00    +0.000 C 
ATOM     24  C   UNL     1      50.104   6.696  15.913  0.00  0.00    +0.000 C 
ATOM     25  N   UNL     1      50.045   5.836  17.103  0.00  0.00    +0.000 NA
ATOM     26  C   UNL     1      48.753   5.285  16.667  0.00  0.00    +0.000 C 
ATOM     27  H   UNL     1      50.007   6.342  17.987  0.00  0.00    +0.000 HD
ENDBRANCH  22  23
ENDBRANCH  20  22
ENDBRANCH  15  16
ENDBRANCH   1  15
TORSDOF 7
ENDMDL
MODEL 5
REMARK VINA RESULT:    -6.945      2.484      4.031
REMARK INTER + INTRA:         -10.586
REMARK INTER:                  -9.894
REMARK INTRA:                  -0.691
REMARK UNBOUND:                -0.799
REMARK  Name = 
REMARK  7 active torsions:
REMARK  status: ('A' for Active; 'I' for Inactive)
REMARK    1  A    between atoms: C_2  and  C_4
REMARK    2  A    between atoms: C_7  and  N_8
REMARK    3  A    between atoms: N_8  and  C_9
REMARK    4  A    between atoms: C_9  and  C_10
REMARK    5  A    between atoms: C_10  and  C_11
REMARK    6  A    between atoms: C_15  and  O_16
REMARK    7  A    between atoms: O_16  and  C_17
REMARK                            x       y       z     vdW  Elec       q    Type
REMARK                         _______ _______ _______ _____ _____    ______ ____
ROOT
ATOM      1  C   UNL     1      44.146   5.754  11.247  0.00  0.00    +0.000 C 
ENDROOT
BRANCH   1   2
ATOM      2  N   UNL     1      43.570   4.898  10.214  0.00  0.00    +0.000 N 
ATOM      3  H   UNL     1      42.820   5.317   9.670  0.00  0.00    +0.000 HD
BRANCH   2   7
ATOM      4  C   UNL     1      46.031   2.176   8.249  0.00  0.00    +0.000 A 
ATOM      5  C   UNL     1      46.217   3.525   7.979  0.00  0.00    +0.000 A 
ATOM      6  C   UNL     1      45.386   4.452   8.607  0.00  0.00    +0.000 A 
ATOM      7  C   UNL     1      44.374   4.031   9.473  0.00  0.00    +0.000 A 
ATOM      8  C   UNL     1      44.293   2.646   9.680  0.00  0.00    +0.000 A 
ATOM      9  N   UNL     1      45.073   1.706   9.090  0.00  0.00    +0.000 NA
BRANCH   4  11
ATOM     10  N   UNL     1      47.920   1.676   6.813  0.00  0.00    +0.000 N 
ATOM     11  C   UNL     1      46.928   1.165   7.606  0.00  0.00    +0.000 C 
ATOM     12  O   UNL     1      46.795  -0.041   7.773  0.00  0.00    +0.000 OA
ATOM     13  H   UNL     1      48.566   1.049   6.358  0.00  0.00    +0.000 HD
ATOM     14  H   UNL     1      48.009   2.681   6.707  0.00  0.00    +0.000 HD
ENDBRANCH   4  11
ENDBRANCH   2   7
ENDBRANCH   1   2
BRANCH   1  15
ATOM     15  C   UNL     1      44.569   4.923  12.465  0.00  0.00    +0.000 C 
BRANCH  15  16
ATOM     16  C   UNL     1      45.789   5.507  13.123  0.00  0.00    +0.000 A 
ATOM     17  C   UNL     1      46.573   4.741  13.982  0.00  0.00    +0.000 A 
ATOM     18  N   UNL     1      47.707   5.185  14.566  0.00  0.00    +0.000 NA
ATOM     19  C   UNL     1      48.085   6.450  14.269  0.00  0.00    +0.000 A 
ATOM     20  C   UNL     1      47.389   7.292  13.413  0.00  0.00    +0.000 A 
ATOM     21  C   UNL     1      46.212   6.815  12.845  0.00  0.00    +0.000 A 
BRANCH  20  22
ATOM     22  O   UNL     1      47.909   8.543  13.210  0.00  0.00    +0.000 OA
BRANCH  22  23
ATOM     23  C   UNL     1      48.741   8.765  12.045  0.00  0.00    +0.000 C 
ATOM     24  C   UNL     1      50.202   9.208  12.276  0.00  0.00    +0.000 C 
ATOM     25  N   UNL     1      50.019  10.336  11.351  0.00  0.00    +0.000 NA
ATOM     26  C   UNL     1      48.562  10.137  11.362  0.00  0.00    +0.000 C 
ATOM     27  H   UNL     1      50.452  10.205  10.437  0.00  0.00    +0.000 HD
ENDBRANCH  22  23
ENDBRANCH  20  22
ENDBRANCH  15  16
ENDBRANCH   1  15
TORSDOF 7
ENDMDL
MODEL 6
REMARK VINA RESULT:    -6.700      3.133      7.372
REMARK INTER + INTRA:         -10.241
REMARK INTER:                  -9.606
REMARK INTRA:                  -0.635
REMARK UNBOUND:                -0.799
REMARK  Name = 
REMARK  7 active torsions:
REMARK  status: ('A' for Active; 'I' for Inactive)
REMARK    1  A    between atoms: C_2  and  C_4
REMARK    2  A    between atoms: C_7  and  N_8
REMARK    3  A    between atoms: N_8  and  C_9
REMARK    4  A    between atoms: C_9  and  C_10
REMARK    5  A    between atoms: C_10  and  C_11
REMARK    6  A    between atoms: C_15  and  O_16
REMARK    7  A    between atoms: O_16  and  C_17
REMARK                            x       y       z     vdW  Elec       q    Type
REMARK                         _______ _______ _______ _____ _____    ______ ____
ROOT
ATOM      1  C   UNL     1      45.140   5.809  12.675  0.00  0.00    +0.000 C 
ENDROOT
BRANCH   1   2
ATOM      2  N   UNL     1      45.656   7.109  13.095  0.00  0.00    +0.000 N 
ATOM      3  H   UNL     1      45.327   7.436  14.001  0.00  0.00    +0.000 HD
BRANCH   2   7
ATOM      4  C   UNL     1      49.486   8.322  12.009  0.00  0.00    +0.000 A 
ATOM      5  C   UNL     1      49.329   7.024  12.473  0.00  0.00    +0.000 A 
ATOM      6  C   UNL     1      48.058   6.605  12.867  0.00  0.00    +0.000 A 
ATOM      7  C   UNL     1      46.971   7.481  12.815  0.00  0.00    +0.000 A 
ATOM      8  C   UNL     1      47.249   8.761  12.313  0.00  0.00    +0.000 A 
ATOM      9  N   UNL     1      48.466   9.216  11.924  0.00  0.00    +0.000 NA
BRANCH   4  11
ATOM     10  N   UNL     1      51.889   7.998  11.939  0.00  0.00    +0.000 N 
ATOM     11  C   UNL     1      50.836   8.785  11.557  0.00  0.00    +0.000 C 
ATOM     12  O   UNL     1      51.000   9.797  10.887  0.00  0.00    +0.000 OA
ATOM     13  H   UNL     1      52.825   8.248  11.659  0.00  0.00    +0.000 HD
ATOM     14  H   UNL     1      51.715   7.159  12.483  0.00  0.00    +0.000 HD
ENDBRANCH   4  11
ENDBRANCH   2   7
ENDBRANCH   1   2
BRANCH   1  15
ATOM     15  C   UNL     1      44.302   5.945  11.398  0.00  0.00    +0.000 C 
BRANCH  15  16
ATOM     16  C   UNL     1      44.566   4.805  10.453  0.00  0.00    +0.000 A 
ATOM     17  C   UNL     1      43.944   3.572  10.631  0.00  0.00    +0.000 A 
ATOM     18  N   UNL     1      44.096   2.523   9.794  0.00  0.00    +0.000 NA
ATOM     19  C   UNL     1      44.897   2.717   8.720  0.00  0.00    +0.000 A 
ATOM     20  C   UNL     1      45.549   3.909   8.438  0.00  0.00    +0.000 A 
ATOM     21  C   UNL     1      45.393   4.964   9.332  0.00  0.00    +0.000 A 
BRANCH  20  22
ATOM     22  O   UNL     1      46.318   3.945   7.305  0.00  0.00    +0.000 OA
BRANCH  22  23
ATOM     23  C   UNL     1      46.637   2.696   6.646  0.00  0.00    +0.000 C 
ATOM     24  C   UNL     1      47.985   2.024   6.985  0.00  0.00    +0.000 C 
ATOM     25  N   UNL     1      48.309   1.921   5.555  0.00  0.00    +0.000 NA
ATOM     26  C   UNL     1      47.206   2.833   5.218  0.00  0.00    +0.000 C 
ATOM     27  H   UNL     1      48.209   0.983   5.167  0.00  0.00    +0.000 HD
ENDBRANCH  22  23
ENDBRANCH  20  22
ENDBRANCH  15  16
ENDBRANCH   1  15
TORSDOF 7
ENDMDL
MODEL 7
REMARK VINA RESULT:    -6.496      2.542      7.709
REMARK INTER + INTRA:          -9.953
REMARK INTER:                  -9.415
REMARK INTRA:                  -0.538
REMARK UNBOUND:                -0.799
REMARK  Name = 
REMARK  7 active torsions:
REMARK  status: ('A' for Active; 'I' for Inactive)
REMARK    1  A    between atoms: C_2  and  C_4
REMARK    2  A    between atoms: C_7  and  N_8
REMARK    3  A    between atoms: N_8  and  C_9
REMARK    4  A    between atoms: C_9  and  C_10
REMARK    5  A    between atoms: C_10  and  C_11
REMARK    6  A    between atoms: C_15  and  O_16
REMARK    7  A    between atoms: O_16  and  C_17
REMARK                            x       y       z     vdW  Elec       q    Type
REMARK                         _______ _______ _______ _____ _____    ______ ____
ROOT
ATOM      1  C   UNL     1      44.387   6.371  11.878  0.00  0.00    +0.000 C 
ENDROOT
BRANCH   1   2
ATOM      2  N   UNL     1      44.922   7.387  12.781  0.00  0.00    +0.000 N 
ATOM      3  H   UNL     1      44.300   7.668  13.536  0.00  0.00    +0.000 HD
BRANCH   2   7
ATOM      4  C   UNL     1      48.859   7.291  14.127  0.00  0.00    +0.000 A 
ATOM      5  C   UNL     1      48.432   8.434  13.465  0.00  0.00    +0.000 A 
ATOM      6  C   UNL     1      47.124   8.476  12.982  0.00  0.00    +0.000 A 
ATOM      7  C   UNL     1      46.268   7.383  13.144  0.00  0.00    +0.000 A 
ATOM      8  C   UNL     1      46.807   6.293  13.843  0.00  0.00    +0.000 A 
ATOM      9  N   UNL     1      48.070   6.202  14.326  0.00  0.00    +0.000 NA
BRANCH   4  11
ATOM     10  N   UNL     1      51.180   7.984  14.008  0.00  0.00    +0.000 N 
ATOM     11  C   UNL     1      50.250   7.233  14.676  0.00  0.00    +0.000 C 
ATOM     12  O   UNL     1      50.549   6.564  15.657  0.00  0.00    +0.000 OA
ATOM     13  H   UNL     1      52.135   7.999  14.332  0.00  0.00    +0.000 HD
ATOM     14  H   UNL     1      50.894   8.537  13.207  0.00  0.00    +0.000 HD
ENDBRANCH   4  11
ENDBRANCH   2   7
ENDBRANCH   1   2
BRANCH   1  15
ATOM     15  C   UNL     1      45.329   6.155  10.687  0.00  0.00    +0.000 C 
BRANCH  15  16
ATOM     16  C   UNL     1      45.059   4.837  10.015  0.00  0.00    +0.000 A 
ATOM     17  C   UNL     1      44.262   3.873  10.629  0.00  0.00    +0.000 A 
ATOM     18  N   UNL     1      43.939   2.691  10.062  0.00  0.00    +0.000 NA
ATOM     19  C   UNL     1      44.423   2.463   8.819  0.00  0.00    +0.000 A 
ATOM     20  C   UNL     1      45.209   3.361   8.110  0.00  0.00    +0.000 A 
ATOM     21  C   UNL     1      45.546   4.561   8.730  0.00  0.00    +0.000 A 
BRANCH  20  22
ATOM     22  O   UNL     1      45.612   2.983   6.857  0.00  0.00    +0.000 OA
BRANCH  22  23
ATOM     23  C   UNL     1      47.025   3.027   6.543  0.00  0.00    +0.000 C 
ATOM     24  C   UNL     1      47.459   2.643   5.112  0.00  0.00    +0.000 C 
ATOM     25  N   UNL     1      48.440   1.690   5.650  0.00  0.00    +0.000 NA
ATOM     26  C   UNL     1      47.837   1.792   6.987  0.00  0.00    +0.000 C 
ATOM     27  H   UNL     1      49.407   2.010   5.603  0.00  0.00    +0.000 HD
ENDBRANCH  22  23
ENDBRANCH  20  22
ENDBRANCH  15  16
ENDBRANCH   1  15
TORSDOF 7
ENDMDL
MODEL 8
REMARK VINA RESULT:    -6.439      1.745      7.336
REMARK INTER + INTRA:          -9.873
REMARK INTER:                  -9.442
REMARK INTRA:                  -0.431
REMARK UNBOUND:                -0.799
REMARK  Name = 
REMARK  7 active torsions:
REMARK  status: ('A' for Active; 'I' for Inactive)
REMARK    1  A    between atoms: C_2  and  C_4
REMARK    2  A    between atoms: C_7  and  N_8
REMARK    3  A    between atoms: N_8  and  C_9
REMARK    4  A    between atoms: C_9  and  C_10
REMARK    5  A    between atoms: C_10  and  C_11
REMARK    6  A    between atoms: C_15  and  O_16
REMARK    7  A    between atoms: O_16  and  C_17
REMARK                            x       y       z     vdW  Elec       q    Type
REMARK                         _______ _______ _______ _____ _____    ______ ____
ROOT
ATOM      1  C   UNL     1      46.164   7.585  12.744  0.00  0.00    +0.000 C 
ENDROOT
BRANCH   1   2
ATOM      2  N   UNL     1      47.366   6.775  12.922  0.00  0.00    +0.000 N 
ATOM      3  H   UNL     1      48.234   7.214  12.625  0.00  0.00    +0.000 HD
BRANCH   2   7
ATOM      4  C   UNL     1      47.525   4.315  16.276  0.00  0.00    +0.000 A 
ATOM      5  C   UNL     1      48.339   5.439  16.262  0.00  0.00    +0.000 A 
ATOM      6  C   UNL     1      48.321   6.263  15.136  0.00  0.00    +0.000 A 
ATOM      7  C   UNL     1      47.515   5.952  14.038  0.00  0.00    +0.000 A 
ATOM      8  C   UNL     1      46.724   4.801  14.175  0.00  0.00    +0.000 A 
ATOM      9  N   UNL     1      46.711   3.967  15.244  0.00  0.00    +0.000 NA
BRANCH   4  11
ATOM     10  N   UNL     1      48.545   3.611  18.360  0.00  0.00    +0.000 N 
ATOM     11  C   UNL     1      47.509   3.431  17.483  0.00  0.00    +0.000 C 
ATOM     12  O   UNL     1      46.632   2.600  17.686  0.00  0.00    +0.000 OA
ATOM     13  H   UNL     1      48.589   3.054  19.200  0.00  0.00    +0.000 HD
ATOM     14  H   UNL     1      49.247   4.318  18.168  0.00  0.00    +0.000 HD
ENDBRANCH   4  11
ENDBRANCH   2   7
ENDBRANCH   1   2
BRANCH   1  15
ATOM     15  C   UNL     1      45.532   7.324  11.372  0.00  0.00    +0.000 C 
BRANCH  15  16
ATOM     16  C   UNL     1      44.784   6.019  11.358  0.00  0.00    +0.000 A 
ATOM     17  C   UNL     1      43.497   5.929  11.885  0.00  0.00    +0.000 A 
ATOM     18  N   UNL     1      42.751   4.804  11.860  0.00  0.00    +0.000 NA
ATOM     19  C   UNL     1      43.307   3.720  11.272  0.00  0.00    +0.000 A 
ATOM     20  C   UNL     1      44.572   3.705  10.701  0.00  0.00    +0.000 A 
ATOM     21  C   UNL     1      45.328   4.872  10.763  0.00  0.00    +0.000 A 
BRANCH  20  22
ATOM     22  O   UNL     1      44.988   2.529  10.137  0.00  0.00    +0.000 OA
BRANCH  22  23
ATOM     23  C   UNL     1      44.944   2.400   8.695  0.00  0.00    +0.000 C 
ATOM     24  C   UNL     1      46.279   2.188   7.949  0.00  0.00    +0.000 C 
ATOM     25  N   UNL     1      45.966   3.303   7.043  0.00  0.00    +0.000 NA
ATOM     26  C   UNL     1      44.864   3.731   7.918  0.00  0.00    +0.000 C 
ATOM     27  H   UNL     1      45.671   3.017   6.110  0.00  0.00    +0.000 HD
ENDBRANCH  22  23
ENDBRANCH  20  22
ENDBRANCH  15  16
ENDBRANCH   1  15
TORSDOF 7
ENDMDL
MODEL 9
REMARK VINA RESULT:    -6.380      2.617      8.036
REMARK INTER + INTRA:          -9.790
REMARK INTER:                  -9.694
REMARK INTRA:                  -0.096
REMARK UNBOUND:                -0.799
REMARK  Name = 
REMARK  7 active torsions:
REMARK  status: ('A' for Active; 'I' for Inactive)
REMARK    1  A    between atoms: C_2  and  C_4
REMARK    2  A    between atoms: C_7  and  N_8
REMARK    3  A    between atoms: N_8  and  C_9
REMARK    4  A    between atoms: C_9  and  C_10
REMARK    5  A    between atoms: C_10  and  C_11
REMARK    6  A    between atoms: C_15  and  O_16
REMARK    7  A    between atoms: O_16  and  C_17
REMARK                            x       y       z     vdW  Elec       q    Type
REMARK                         _______ _______ _______ _____ _____    ______ ____
ROOT
ATOM      1  C   UNL     1      46.892   4.854  14.957  0.00  0.00    +0.000 C 
ENDROOT
BRANCH   1   2
ATOM      2  N   UNL     1      47.094   4.168  16.230  0.00  0.00    +0.000 N 
ATOM      3  H   UNL     1      46.309   3.605  16.550  0.00  0.00    +0.000 HD
BRANCH   2   7
ATOM      4  C   UNL     1      50.661   2.318  17.316  0.00  0.00    +0.000 A 
ATOM      5  C   UNL     1      50.462   3.628  17.731  0.00  0.00    +0.000 A 
ATOM      6  C   UNL     1      49.285   4.275  17.356  0.00  0.00    +0.000 A 
ATOM      7  C   UNL     1      48.336   3.626  16.561  0.00  0.00    +0.000 A 
ATOM      8  C   UNL     1      48.641   2.301  16.218  0.00  0.00    +0.000 A 
ATOM      9  N   UNL     1      49.771   1.631  16.553  0.00  0.00    +0.000 NA
BRANCH   4  11
ATOM     10  N   UNL     1      51.735   0.285  18.087  0.00  0.00    +0.000 N 
ATOM     11  C   UNL     1      51.905   1.596  17.728  0.00  0.00    +0.000 C 
ATOM     12  O   UNL     1      53.008   2.129  17.745  0.00  0.00    +0.000 OA
ATOM     13  H   UNL     1      52.535  -0.263  18.365  0.00  0.00    +0.000 HD
ATOM     14  H   UNL     1      50.809  -0.128  18.048  0.00  0.00    +0.000 HD
ENDBRANCH   4  11
ENDBRANCH   2   7
ENDBRANCH   1   2
BRANCH   1  15
ATOM     15  C   UNL     1      46.844   3.849  13.800  0.00  0.00    +0.000 C 
BRANCH  15  16
ATOM     16  C   UNL     1      45.682   4.127  12.887  0.00  0.00    +0.000 A 
ATOM     17  C   UNL     1      45.007   5.345  12.942  0.00  0.00    +0.000 A 
ATOM     18  N   UNL     1      43.990   5.680  12.120  0.00  0.00    +0.000 NA
ATOM     19  C   UNL     1      43.635   4.763  11.190  0.00  0.00    +0.000 A 
ATOM     20  C   UNL     1      44.251   3.529  11.036  0.00  0.00    +0.000 A 
ATOM     21  C   UNL     1      45.281   3.202  11.914  0.00  0.00    +0.000 A 
BRANCH  20  22
ATOM     22  O   UNL     1      43.780   2.717  10.040  0.00  0.00    +0.000 OA
BRANCH  22  23
ATOM     23  C   UNL     1      44.420   2.771   8.743  0.00  0.00    +0.000 C 
ATOM     24  C   UNL     1      45.697   1.928   8.532  0.00  0.00    +0.000 C 
ATOM     25  N   UNL     1      46.411   3.110   8.028  0.00  0.00    +0.000 NA
ATOM     26  C   UNL     1      45.337   3.991   8.512  0.00  0.00    +0.000 C 
ATOM     27  H   UNL     1      46.539   3.124   7.016  0.00  0.00    +0.000 HD
ENDBRANCH  22  23
ENDBRANCH  20  22
ENDBRANCH  15  16
ENDBRANCH   1  15
TORSDOF 7
ENDMDL
