MODEL 1
REMARK VINA RESULT:    -7.770      0.000      0.000
REMARK INTER + INTRA:         -10.651
REMARK INTER:                 -10.041
REMARK INTRA:                  -0.610
REMARK UNBOUND:                -0.610
REMARK  Name = 
REMARK  5 active torsions:
REMARK  status: ('A' for Active; 'I' for Inactive)
REMARK    1  A    between atoms: C_2  and  C_4
REMARK    2  A    between atoms: C_7  and  N_8
REMARK    3  A    between atoms: N_8  and  C_9
REMARK    4  A    between atoms: C_9  and  C_10
REMARK    5  A    between atoms: C_14  and  C_15
REMARK                            x       y       z     vdW  Elec       q    Type
REMARK                         _______ _______ _______ _____ _____    ______ ____
ROOT
ATOM      1  N   UNL     1      43.750   4.747   9.961  0.00  0.00    +0.000 N 
ATOM      2  H   UNL     1      43.993   5.740   9.900  0.00  0.00    +0.000 HD
ENDROOT
BRANCH   1   6
ATOM      3  C   UNL     1      46.435   2.602   7.696  0.00  0.00    +0.000 A 
ATOM      4  N   UNL     1      46.433   3.949   7.568  0.00  0.00    +0.000 NA
ATOM      5  C   UNL     1      45.523   4.594   8.332  0.00  0.00    +0.000 A 
ATOM      6  C   UNL     1      44.617   3.979   9.186  0.00  0.00    +0.000 A 
ATOM      7  C   UNL     1      44.754   2.602   9.239  0.00  0.00    +0.000 A 
ATOM      8  N   UNL     1      45.633   1.888   8.506  0.00  0.00    +0.000 NA
BRANCH   3  10
ATOM      9  N   UNL     1      48.529   2.584   6.430  0.00  0.00    +0.000 N 
ATOM     10  C   UNL     1      47.456   1.848   6.868  0.00  0.00    +0.000 C 
ATOM     11  O   UNL     1      47.364   0.656   6.595  0.00  0.00    +0.000 OA
ATOM     12  H   UNL     1      49.253   2.125   5.901  0.00  0.00    +0.000 HD
ATOM     13  H   UNL     1      48.611   3.564   6.677  0.00  0.00    +0.000 HD
ENDBRANCH   3  10
ENDBRANCH   1   6
BRANCH   1  14
ATOM     14  C   UNL     1      43.563   4.383  11.367  0.00  0.00    +0.000 C 
BRANCH  14  15
ATOM     15  C   UNL     1      44.820   4.743  12.138  0.00  0.00    +0.000 A 
ATOM     16  C   UNL     1      45.543   3.744  12.784  0.00  0.00    +0.000 A 
ATOM     17  C   UNL     1      46.657   4.097  13.534  0.00  0.00    +0.000 A 
ATOM     18  C   UNL     1      47.017   5.437  13.630  0.00  0.00    +0.000 A 
ATOM     19  C   UNL     1      46.251   6.398  12.969  0.00  0.00    +0.000 A 
ATOM     20  N   UNL     1      45.153   6.058  12.227  0.00  0.00    +0.000 NA
BRANCH  19  21
ATOM     21  C   UNL     1      46.638   7.870  13.071  0.00  0.00    +0.000 C 
ATOM     22  F   UNL     1      47.583   8.115  14.029  0.00  0.00    +0.000 F 
ATOM     23  F   UNL     1      47.163   8.365  11.913  0.00  0.00    +0.000 F 
ATOM     24  F   UNL     1      45.586   8.678  13.386  0.00  0.00    +0.000 F 
ENDBRANCH  19  21
ENDBRANCH  14  15
ENDBRANCH   1  14
TORSDOF 5
ENDMDL
MODEL 2
REMARK VINA RESULT:    -7.575      1.882      2.612
REMARK INTER + INTRA:         -10.400
REMARK INTER:                  -9.907
REMARK INTRA:                  -0.494
REMARK UNBOUND:                -0.610
REMARK  Name = 
REMARK  5 active torsions:
REMARK  status: ('A' for Active; 'I' for Inactive)
REMARK    1  A    between atoms: C_2  and  C_4
REMARK    2  A    between atoms: C_7  and  N_8
REMARK    3  A    between atoms: N_8  and  C_9
REMARK    4  A    between atoms: C_9  and  C_10
REMARK    5  A    between atoms: C_14  and  C_15
REMARK                            x       y       z     vdW  Elec       q    Type
REMARK                         _______ _______ _______ _____ _____    ______ ____
ROOT
ATOM      1  N   UNL     1      43.747   4.613  10.117  0.00  0.00    +0.000 N 
ATOM      2  H   UNL     1      43.853   5.619   9.957  0.00  0.00    +0.000 HD
ENDROOT
BRANCH   1   6
ATOM      3  C   UNL     1      46.359   2.356   7.874  0.00  0.00    +0.000 A 
ATOM      4  N   UNL     1      45.567   1.712   8.763  0.00  0.00    +0.000 NA
ATOM      5  C   UNL     1      44.739   2.510   9.473  0.00  0.00    +0.000 A 
ATOM      6  C   UNL     1      44.672   3.892   9.363  0.00  0.00    +0.000 A 
ATOM      7  C   UNL     1      45.515   4.412   8.395  0.00  0.00    +0.000 A 
ATOM      8  N   UNL     1      46.371   3.682   7.650  0.00  0.00    +0.000 NA
BRANCH   3  10
ATOM      9  N   UNL     1      48.397   2.119   6.542  0.00  0.00    +0.000 N 
ATOM     10  C   UNL     1      47.286   1.490   7.047  0.00  0.00    +0.000 C 
ATOM     11  O   UNL     1      47.090   0.300   6.828  0.00  0.00    +0.000 OA
ATOM     12  H   UNL     1      49.063   1.582   6.008  0.00  0.00    +0.000 HD
ATOM     13  H   UNL     1      48.565   3.098   6.743  0.00  0.00    +0.000 HD
ENDBRANCH   3  10
ENDBRANCH   1   6
BRANCH   1  14
ATOM     14  C   UNL     1      43.673   4.359  11.558  0.00  0.00    +0.000 C 
BRANCH  14  15
ATOM     15  C   UNL     1      44.831   5.064  12.240  0.00  0.00    +0.000 A 
ATOM     16  C   UNL     1      45.308   6.264  11.722  0.00  0.00    +0.000 A 
ATOM     17  C   UNL     1      46.407   6.867  12.322  0.00  0.00    +0.000 A 
ATOM     18  C   UNL     1      47.007   6.253  13.416  0.00  0.00    +0.000 A 
ATOM     19  C   UNL     1      46.492   5.045  13.889  0.00  0.00    +0.000 A 
ATOM     20  N   UNL     1      45.409   4.447  13.303  0.00  0.00    +0.000 NA
BRANCH  19  21
ATOM     21  C   UNL     1      47.145   4.364  15.086  0.00  0.00    +0.000 C 
ATOM     22  F   UNL     1      47.560   3.088  14.822  0.00  0.00    +0.000 F 
ATOM     23  F   UNL     1      48.257   5.019  15.530  0.00  0.00    +0.000 F 
ATOM     24  F   UNL     1      46.314   4.258  16.161  0.00  0.00    +0.000 F 
ENDBRANCH  19  21
ENDBRANCH  14  15
ENDBRANCH   1  14
TORSDOF 5
ENDMDL
MODEL 3
REMARK VINA RESULT:    -7.295      4.436      6.812
REMARK INTER + INTRA:         -10.038
REMARK INTER:                  -9.724
REMARK INTRA:                  -0.314
REMARK UNBOUND:                -0.610
REMARK  Name = 
REMARK  5 active torsions:
REMARK  status: ('A' for Active; 'I' for Inactive)
REMARK    1  A    between atoms: C_2  and  C_4
REMARK    2  A    between atoms: C_7  and  N_8
REMARK    3  A    between atoms: N_8  and  C_9
REMARK    4  A    between atoms: C_9  and  C_10
REMARK    5  A    between atoms: C_14  and  C_15
REMARK                            x       y       z     vdW  Elec       q    Type
REMARK                         _______ _______ _______ _____ _____    ______ ____
ROOT
ATOM      1  N   UNL     1      44.503   2.619  12.104  0.00  0.00    +0.000 N 
ATOM      2  H   UNL     1      44.974   1.719  11.976  0.00  0.00    +0.000 HD
ENDROOT
BRANCH   1   6
ATOM      3  C   UNL     1      46.979   5.510  13.674  0.00  0.00    +0.000 A 
ATOM      4  N   UNL     1      45.756   5.892  13.236  0.00  0.00    +0.000 NA
ATOM      5  C   UNL     1      44.996   4.898  12.726  0.00  0.00    +0.000 A 
ATOM      6  C   UNL     1      45.388   3.571  12.609  0.00  0.00    +0.000 A 
ATOM      7  C   UNL     1      46.649   3.320  13.125  0.00  0.00    +0.000 A 
ATOM      8  N   UNL     1      47.466   4.257  13.647  0.00  0.00    +0.000 NA
BRANCH   3  10
ATOM      9  N   UNL     1      47.296   7.851  14.312  0.00  0.00    +0.000 N 
ATOM     10  C   UNL     1      47.850   6.596  14.272  0.00  0.00    +0.000 C 
ATOM     11  O   UNL     1      48.979   6.398  14.708  0.00  0.00    +0.000 OA
ATOM     12  H   UNL     1      47.821   8.605  14.727  0.00  0.00    +0.000 HD
ATOM     13  H   UNL     1      46.354   8.004  13.970  0.00  0.00    +0.000 HD
ENDBRANCH   3  10
ENDBRANCH   1   6
BRANCH   1  14
ATOM     14  C   UNL     1      43.747   2.944  10.893  0.00  0.00    +0.000 C 
BRANCH  14  15
ATOM     15  C   UNL     1      44.723   3.187   9.756  0.00  0.00    +0.000 A 
ATOM     16  C   UNL     1      44.941   4.484   9.301  0.00  0.00    +0.000 A 
ATOM     17  C   UNL     1      45.792   4.685   8.222  0.00  0.00    +0.000 A 
ATOM     18  C   UNL     1      46.395   3.588   7.617  0.00  0.00    +0.000 A 
ATOM     19  C   UNL     1      46.133   2.308   8.109  0.00  0.00    +0.000 A 
ATOM     20  N   UNL     1      45.298   2.103   9.173  0.00  0.00    +0.000 NA
BRANCH  19  21
ATOM     21  C   UNL     1      46.789   1.099   7.450  0.00  0.00    +0.000 C 
ATOM     22  F   UNL     1      46.393  -0.093   7.991  0.00  0.00    +0.000 F 
ATOM     23  F   UNL     1      46.508   1.001   6.118  0.00  0.00    +0.000 F 
ATOM     24  F   UNL     1      48.148   1.107   7.551  0.00  0.00    +0.000 F 
ENDBRANCH  19  21
ENDBRANCH  14  15
ENDBRANCH   1  14
TORSDOF 5
ENDMDL
MODEL 4
REMARK VINA RESULT:    -7.097      4.026      6.693
REMARK INTER + INTRA:          -9.781
REMARK INTER:                  -9.382
REMARK INTRA:                  -0.399
REMARK UNBOUND:                -0.610
REMARK  Name = 
REMARK  5 active torsions:
REMARK  status: ('A' for Active; 'I' for Inactive)
REMARK    1  A    between atoms: C_2  and  C_4
REMARK    2  A    between atoms: C_7  and  N_8
REMARK    3  A    between atoms: N_8  and  C_9
REMARK    4  A    between atoms: C_9  and  C_10
REMARK    5  A    between atoms: C_14  and  C_15
REMARK                            x       y       z     vdW  Elec       q    Type
REMARK                         _______ _______ _______ _____ _____    ______ ____
ROOT
ATOM      1  N   UNL     1      45.555   6.063  10.889  0.00  0.00    +0.000 N 
ATOM      2  H   UNL     1      45.455   7.081  10.857  0.00  0.00    +0.000 HD
ENDROOT
BRANCH   1   6
ATOM      3  C   UNL     1      46.968   4.700  14.508  0.00  0.00    +0.000 A 
ATOM      4  N   UNL     1      45.721   4.329  14.134  0.00  0.00    +0.000 NA
ATOM      5  C   UNL     1      45.314   4.816  12.941  0.00  0.00    +0.000 A 
ATOM      6  C   UNL     1      46.059   5.654  12.124  0.00  0.00    +0.000 A 
ATOM      7  C   UNL     1      47.325   5.925  12.615  0.00  0.00    +0.000 A 
ATOM      8  N   UNL     1      47.802   5.480  13.796  0.00  0.00    +0.000 NA
BRANCH   3  10
ATOM      9  N   UNL     1      47.090   4.863  16.945  0.00  0.00    +0.000 N 
ATOM     10  C   UNL     1      47.465   4.155  15.831  0.00  0.00    +0.000 C 
ATOM     11  O   UNL     1      48.154   3.146  15.936  0.00  0.00    +0.000 OA
ATOM     12  H   UNL     1      47.369   4.528  17.855  0.00  0.00    +0.000 HD
ATOM     13  H   UNL     1      46.503   5.684  16.855  0.00  0.00    +0.000 HD
ENDBRANCH   3  10
ENDBRANCH   1   6
BRANCH   1  14
ATOM     14  C   UNL     1      44.320   5.443  10.402  0.00  0.00    +0.000 C 
BRANCH  14  15
ATOM     15  C   UNL     1      44.673   4.172   9.652  0.00  0.00    +0.000 A 
ATOM     16  C   UNL     1      44.200   2.946  10.112  0.00  0.00    +0.000 A 
ATOM     17  C   UNL     1      44.579   1.786   9.450  0.00  0.00    +0.000 A 
ATOM     18  C   UNL     1      45.428   1.875   8.352  0.00  0.00    +0.000 A 
ATOM     19  C   UNL     1      45.879   3.130   7.938  0.00  0.00    +0.000 A 
ATOM     20  N   UNL     1      45.508   4.277   8.585  0.00  0.00    +0.000 NA
BRANCH  19  21
ATOM     21  C   UNL     1      46.812   3.236   6.737  0.00  0.00    +0.000 C 
ATOM     22  F   UNL     1      46.490   2.374   5.725  0.00  0.00    +0.000 F 
ATOM     23  F   UNL     1      46.809   4.476   6.167  0.00  0.00    +0.000 F 
ATOM     24  F   UNL     1      48.112   2.963   7.044  0.00  0.00    +0.000 F 
ENDBRANCH  19  21
ENDBRANCH  14  15
ENDBRANCH   1  14
TORSDOF 5
ENDMDL
MODEL 5
REMARK VINA RESULT:    -6.902      4.278      6.934
REMARK INTER + INTRA:          -9.530
REMARK INTER:                  -9.172
REMARK INTRA:                  -0.357
REMARK UNBOUND:                -0.610
REMARK  Name = 
REMARK  5 active torsions:
REMARK  status: ('A' for Active; 'I' for Inactive)
REMARK    1  A    between atoms: C_2  and  C_4
REMARK    2  A    between atoms: C_7  and  N_8
REMARK    3  A    between atoms: N_8  and  C_9
REMARK    4  A    between atoms: C_9  and  C_10
REMARK    5  A    between atoms: C_14  and  C_15
REMARK                            x       y       z     vdW  Elec       q    Type
REMARK                         _______ _______ _______ _____ _____    ______ ____
ROOT
ATOM      1  N   UNL     1      47.471   6.485  12.217  0.00  0.00    +0.000 N 
ATOM      2  H   UNL     1      48.280   7.104  12.115  0.00  0.00    +0.000 HD
ENDROOT
BRANCH   1   6
ATOM      3  C   UNL     1      47.454   4.534  15.842  0.00  0.00    +0.000 A 
ATOM      4  N   UNL     1      46.663   4.048  14.857  0.00  0.00    +0.000 NA
ATOM      5  C   UNL     1      46.708   4.737  13.696  0.00  0.00    +0.000 A 
ATOM      6  C   UNL     1      47.468   5.878  13.472  0.00  0.00    +0.000 A 
ATOM      7  C   UNL     1      48.250   6.242  14.555  0.00  0.00    +0.000 A 
ATOM      8  N   UNL     1      48.258   5.609  15.746  0.00  0.00    +0.000 NA
BRANCH   3  10
ATOM      9  N   UNL     1      48.450   4.086  18.031  0.00  0.00    +0.000 N 
ATOM     10  C   UNL     1      47.444   3.774  17.152  0.00  0.00    +0.000 C 
ATOM     11  O   UNL     1      46.601   2.931  17.443  0.00  0.00    +0.000 OA
ATOM     12  H   UNL     1      48.474   3.631  18.930  0.00  0.00    +0.000 HD
ATOM     13  H   UNL     1      49.132   4.798  17.795  0.00  0.00    +0.000 HD
ENDBRANCH   3  10
ENDBRANCH   1   6
BRANCH   1  14
ATOM     14  C   UNL     1      46.265   7.193  11.783  0.00  0.00    +0.000 C 
BRANCH  14  15
ATOM     15  C   UNL     1      45.344   6.211  11.083  0.00  0.00    +0.000 A 
ATOM     16  C   UNL     1      44.047   6.028  11.551  0.00  0.00    +0.000 A 
ATOM     17  C   UNL     1      43.235   5.083  10.936  0.00  0.00    +0.000 A 
ATOM     18  C   UNL     1      43.741   4.337   9.877  0.00  0.00    +0.000 A 
ATOM     19  C   UNL     1      45.053   4.556   9.453  0.00  0.00    +0.000 A 
ATOM     20  N   UNL     1      45.857   5.486  10.053  0.00  0.00    +0.000 NA
BRANCH  19  21
ATOM     21  C   UNL     1      45.616   3.741   8.294  0.00  0.00    +0.000 C 
ATOM     22  F   UNL     1      44.713   3.539   7.287  0.00  0.00    +0.000 F 
ATOM     23  F   UNL     1      46.692   4.333   7.699  0.00  0.00    +0.000 F 
ATOM     24  F   UNL     1      46.026   2.495   8.666  0.00  0.00    +0.000 F 
ENDBRANCH  19  21
ENDBRANCH  14  15
ENDBRANCH   1  14
TORSDOF 5
ENDMDL
MODEL 6
REMARK VINA RESULT:    -6.609      3.923      6.120
REMARK INTER + INTRA:          -9.151
REMARK INTER:                  -8.549
REMARK INTRA:                  -0.603
REMARK UNBOUND:                -0.610
REMARK  Name = 
REMARK  5 active torsions:
REMARK  status: ('A' for Active; 'I' for Inactive)
REMARK    1  A    between atoms: C_2  and  C_4
REMARK    2  A    between atoms: C_7  and  N_8
REMARK    3  A    between atoms: N_8  and  C_9
REMARK    4  A    between atoms: C_9  and  C_10
REMARK    5  A    between atoms: C_14  and  C_15
REMARK                            x       y       z     vdW  Elec       q    Type
REMARK                         _______ _______ _______ _____ _____    ______ ____
ROOT
ATOM      1  N   UNL     1      43.820   6.243  12.729  0.00  0.00    +0.000 N 
ATOM      2  H   UNL     1      43.500   5.457  13.302  0.00  0.00    +0.000 HD
ENDROOT
BRANCH   1   6
ATOM      3  C   UNL     1      47.844   6.953  13.232  0.00  0.00    +0.000 A 
ATOM      4  N   UNL     1      47.054   7.997  12.890  0.00  0.00    +0.000 NA
ATOM      5  C   UNL     1      45.746   7.697  12.733  0.00  0.00    +0.000 A 
ATOM      6  C   UNL     1      45.195   6.430  12.874  0.00  0.00    +0.000 A 
ATOM      7  C   UNL     1      46.113   5.466  13.255  0.00  0.00    +0.000 A 
ATOM      8  N   UNL     1      47.432   5.687  13.428  0.00  0.00    +0.000 NA
BRANCH   3  10
ATOM      9  N   UNL     1      50.106   7.151  12.321  0.00  0.00    +0.000 N 
ATOM     10  C   UNL     1      49.314   7.258  13.437  0.00  0.00    +0.000 C 
ATOM     11  O   UNL     1      49.796   7.588  14.515  0.00  0.00    +0.000 OA
ATOM     12  H   UNL     1      51.087   7.372  12.394  0.00  0.00    +0.000 HD
ATOM     13  H   UNL     1      49.699   6.899  11.428  0.00  0.00    +0.000 HD
ENDBRANCH   3  10
ENDBRANCH   1   6
BRANCH   1  14
ATOM     14  C   UNL     1      43.273   6.108  11.378  0.00  0.00    +0.000 C 
BRANCH  14  15
ATOM     15  C   UNL     1      43.663   4.750  10.824  0.00  0.00    +0.000 A 
ATOM     16  C   UNL     1      43.247   3.594  11.478  0.00  0.00    +0.000 A 
ATOM     17  C   UNL     1      43.660   2.360  10.993  0.00  0.00    +0.000 A 
ATOM     18  C   UNL     1      44.486   2.310   9.874  0.00  0.00    +0.000 A 
ATOM     19  C   UNL     1      44.879   3.501   9.262  0.00  0.00    +0.000 A 
ATOM     20  N   UNL     1      44.474   4.720   9.734  0.00  0.00    +0.000 NA
BRANCH  19  21
ATOM     21  C   UNL     1      45.785   3.455   8.037  0.00  0.00    +0.000 C 
ATOM     22  F   UNL     1      46.627   2.377   8.028  0.00  0.00    +0.000 F 
ATOM     23  F   UNL     1      45.092   3.380   6.864  0.00  0.00    +0.000 F 
ATOM     24  F   UNL     1      46.595   4.547   7.929  0.00  0.00    +0.000 F 
ENDBRANCH  19  21
ENDBRANCH  14  15
ENDBRANCH   1  14
TORSDOF 5
ENDMDL
MODEL 7
REMARK VINA RESULT:    -6.424      3.829      5.526
REMARK INTER + INTRA:          -8.913
REMARK INTER:                  -8.372
REMARK INTRA:                  -0.541
REMARK UNBOUND:                -0.610
REMARK  Name = 
REMARK  5 active torsions:
REMARK  status: ('A' for Active; 'I' for Inactive)
REMARK    1  A    between atoms: C_2  and  C_4
REMARK    2  A    between atoms: C_7  and  N_8
REMARK    3  A    between atoms: N_8  and  C_9
REMARK    4  A    between atoms: C_9  and  C_10
REMARK    5  A    between atoms: C_14  and  C_15
REMARK                            x       y       z     vdW  Elec       q    Type
REMARK                         _______ _______ _______ _____ _____    ______ ____
ROOT
ATOM      1  N   UNL     1      46.949   7.111  13.759  0.00  0.00    +0.000 N 
ATOM      2  H   UNL     1      46.863   8.097  13.497  0.00  0.00    +0.000 HD
ENDROOT
BRANCH   1   6
ATOM      3  C   UNL     1      44.927   4.730  11.077  0.00  0.00    +0.000 A 
ATOM      4  N   UNL     1      45.687   5.736  10.584  0.00  0.00    +0.000 NA
ATOM      5  C   UNL     1      46.318   6.484  11.515  0.00  0.00    +0.000 A 
ATOM      6  C   UNL     1      46.218   6.303  12.888  0.00  0.00    +0.000 A 
ATOM      7  C   UNL     1      45.433   5.220  13.248  0.00  0.00    +0.000 A 
ATOM      8  N   UNL     1      44.771   4.429  12.378  0.00  0.00    +0.000 NA
BRANCH   3  10
ATOM      9  N   UNL     1      44.131   4.374   8.791  0.00  0.00    +0.000 N 
ATOM     10  C   UNL     1      44.222   3.857  10.059  0.00  0.00    +0.000 C 
ATOM     11  O   UNL     1      43.757   2.752  10.317  0.00  0.00    +0.000 OA
ATOM     12  H   UNL     1      43.698   3.822   8.067  0.00  0.00    +0.000 HD
ATOM     13  H   UNL     1      44.537   5.278   8.578  0.00  0.00    +0.000 HD
ENDBRANCH   3  10
ENDBRANCH   1   6
BRANCH   1  14
ATOM     14  C   UNL     1      48.361   6.794  13.983  0.00  0.00    +0.000 C 
BRANCH  14  15
ATOM     15  C   UNL     1      48.539   6.336  15.418  0.00  0.00    +0.000 A 
ATOM     16  C   UNL     1      49.014   7.230  16.374  0.00  0.00    +0.000 A 
ATOM     17  C   UNL     1      49.227   6.780  17.670  0.00  0.00    +0.000 A 
ATOM     18  C   UNL     1      48.973   5.449  17.980  0.00  0.00    +0.000 A 
ATOM     19  C   UNL     1      48.505   4.593  16.980  0.00  0.00    +0.000 A 
ATOM     20  N   UNL     1      48.292   5.030  15.701  0.00  0.00    +0.000 NA
BRANCH  19  21
ATOM     21  C   UNL     1      48.226   3.131  17.310  0.00  0.00    +0.000 C 
ATOM     22  F   UNL     1      48.707   2.263  16.370  0.00  0.00    +0.000 F 
ATOM     23  F   UNL     1      48.789   2.734  18.488  0.00  0.00    +0.000 F 
ATOM     24  F   UNL     1      46.895   2.851  17.413  0.00  0.00    +0.000 F 
ENDBRANCH  19  21
ENDBRANCH  14  15
ENDBRANCH   1  14
TORSDOF 5
ENDMDL
MODEL 8
REMARK VINA RESULT:    -5.532      3.863      5.333
REMARK INTER + INTRA:          -7.759
REMARK INTER:                  -7.364
REMARK INTRA:                  -0.395
REMARK UNBOUND:                -0.610
REMARK  Name = 
REMARK  5 active torsions:
REMARK  status: ('A' for Active; 'I' for Inactive)
REMARK    1  A    between atoms: C_2  and  C_4
REMARK    2  A    between atoms: C_7  and  N_8
REMARK    3  A    between atoms: N_8  and  C_9
REMARK    4  A    between atoms: C_9  and  C_10
REMARK    5  A    between atoms: C_14  and  C_15
REMARK                            x       y       z     vdW  Elec       q    Type
REMARK                         _______ _______ _______ _____ _____    ______ ____
ROOT
ATOM      1  N   UNL     1      46.352   5.864  14.006  0.00  0.00    +0.000 N 
ATOM      2  H   UNL     1      45.906   6.781  14.096  0.00  0.00    +0.000 HD
ENDROOT
BRANCH   1   6
ATOM      3  C   UNL     1      45.145   3.973  10.554  0.00  0.00    +0.000 A 
ATOM      4  N   UNL     1      45.116   3.265  11.708  0.00  0.00    +0.000 NA
ATOM      5  C   UNL     1      45.531   3.940  12.803  0.00  0.00    +0.000 A 
ATOM      6  C   UNL     1      45.987   5.252  12.807  0.00  0.00    +0.000 A 
ATOM      7  C   UNL     1      45.933   5.861  11.565  0.00  0.00    +0.000 A 
ATOM      8  N   UNL     1      45.535   5.254  10.429  0.00  0.00    +0.000 NA
BRANCH   3  10
ATOM      9  N   UNL     1      44.511   1.895   9.429  0.00  0.00    +0.000 N 
ATOM     10  C   UNL     1      44.666   3.253   9.310  0.00  0.00    +0.000 C 
ATOM     11  O   UNL     1      44.418   3.819   8.251  0.00  0.00    +0.000 OA
ATOM     12  H   UNL     1      44.167   1.371   8.640  0.00  0.00    +0.000 HD
ATOM     13  H   UNL     1      44.698   1.435  10.313  0.00  0.00    +0.000 HD
ENDBRANCH   3  10
ENDBRANCH   1   6
BRANCH   1  14
ATOM     14  C   UNL     1      47.777   5.989  14.319  0.00  0.00    +0.000 C 
BRANCH  14  15
ATOM     15  C   UNL     1      48.077   5.187  15.572  0.00  0.00    +0.000 A 
ATOM     16  C   UNL     1      47.125   4.300  16.066  0.00  0.00    +0.000 A 
ATOM     17  C   UNL     1      47.390   3.616  17.246  0.00  0.00    +0.000 A 
ATOM     18  C   UNL     1      48.592   3.843  17.909  0.00  0.00    +0.000 A 
ATOM     19  C   UNL     1      49.507   4.750  17.372  0.00  0.00    +0.000 A 
ATOM     20  N   UNL     1      49.253   5.425  16.210  0.00  0.00    +0.000 NA
BRANCH  19  21
ATOM     21  C   UNL     1      50.826   5.005  18.094  0.00  0.00    +0.000 C 
ATOM     22  F   UNL     1      50.849   6.191  18.774  0.00  0.00    +0.000 F 
ATOM     23  F   UNL     1      51.117   4.051  19.025  0.00  0.00    +0.000 F 
ATOM     24  F   UNL     1      51.896   5.051  17.251  0.00  0.00    +0.000 F 
ENDBRANCH  19  21
ENDBRANCH  14  15
ENDBRANCH   1  14
TORSDOF 5
ENDMDL
