MODEL 1
REMARK VINA RESULT:    -8.615      0.000      0.000
REMARK INTER + INTRA:         -12.318
REMARK INTER:                 -11.133
REMARK INTRA:                  -1.185
REMARK UNBOUND:                -1.185
REMARK  Name = 
REMARK  5 active torsions:
REMARK  status: ('A' for Active; 'I' for Inactive)
REMARK    1  A    between atoms: C_2  and  C_3
REMARK    2  A    between atoms: C_8  and  C_9
REMARK    3  A    between atoms: C_9  and  O_10
REMARK    4  A    between atoms: O_10  and  C_11
REMARK    5  A    between atoms: C_16  and  C_17
REMARK                            x       y       z     vdW  Elec       q    Type
REMARK                         _______ _______ _______ _____ _____    ______ ____
ROOT
ATOM      1  C   UNL     1      44.379   5.205  10.948  0.00  0.00    +0.000 A 
ATOM      2  C   UNL     1      43.640   4.296  11.692  0.00  0.00    +0.000 A 
ATOM      3  C   UNL     1      43.636   2.959  11.317  0.00  0.00    +0.000 A 
ATOM      4  F   UNL     1      42.935   2.074  12.039  0.00  0.00    +0.000 F 
ATOM      5  C   UNL     1      44.363   2.513  10.213  0.00  0.00    +0.000 A 
ATOM      6  C   UNL     1      45.091   3.418   9.426  0.00  0.00    +0.000 A 
ATOM      7  C   UNL     1      45.054   4.773   9.803  0.00  0.00    +0.000 A 
ENDROOT
BRANCH   6   8
ATOM      8  C   UNL     1      45.881   2.993   8.246  0.00  0.00    +0.000 A 
ATOM      9  C   UNL     1      46.230   3.895   7.225  0.00  0.00    +0.000 A 
ATOM     10  C   UNL     1      46.998   3.488   6.128  0.00  0.00    +0.000 A 
ATOM     11  C   UNL     1      47.437   2.174   6.044  0.00  0.00    +0.000 A 
ATOM     12  F   UNL     1      48.184   1.790   5.002  0.00  0.00    +0.000 F 
ATOM     13  C   UNL     1      47.113   1.255   7.028  0.00  0.00    +0.000 A 
ATOM     14  C   UNL     1      46.332   1.660   8.113  0.00  0.00    +0.000 A 
ENDBRANCH   6   8
BRANCH   1  15
ATOM     15  O   UNL     1      44.388   6.497  11.404  0.00  0.00    +0.000 OA
BRANCH  15  16
ATOM     16  C   UNL     1      44.913   6.673  12.726  0.00  0.00    +0.000 C 
BRANCH  16  22
ATOM     17  C   UNL     1      47.318   5.878  13.065  0.00  0.00    +0.000 A 
ATOM     18  N   UNL     1      48.665   6.042  12.996  0.00  0.00    +0.000 NA
ATOM     19  C   UNL     1      49.121   7.202  12.475  0.00  0.00    +0.000 A 
ATOM     20  C   UNL     1      48.299   8.221  12.033  0.00  0.00    +0.000 A 
ATOM     21  C   UNL     1      46.925   8.037  12.117  0.00  0.00    +0.000 A 
ATOM     22  C   UNL     1      46.404   6.839  12.630  0.00  0.00    +0.000 A 
BRANCH  17  24
ATOM     23  N   UNL     1      46.583   3.598  14.084  0.00  0.00    +0.000 NA
ATOM     24  C   UNL     1      46.903   4.631  13.659  0.00  0.00    +0.000 C 
ENDBRANCH  17  24
ENDBRANCH  16  22
ENDBRANCH  15  16
ENDBRANCH   1  15
TORSDOF 5
ENDMDL
MODEL 2
REMARK VINA RESULT:    -7.840      1.623      2.203
REMARK INTER + INTRA:         -11.316
REMARK INTER:                 -10.362
REMARK INTRA:                  -0.954
REMARK UNBOUND:                -1.185
REMARK  Name = 
REMARK  5 active torsions:
REMARK  status: ('A' for Active; 'I' for Inactive)
REMARK    1  A    between atoms: C_2  and  C_3
REMARK    2  A    between atoms: C_8  and  C_9
REMARK    3  A    between atoms: C_9  and  O_10
REMARK    4  A    between atoms: O_10  and  C_11
REMARK    5  A    between atoms: C_16  and  C_17
REMARK                            x       y       z     vdW  Elec       q    Type
REMARK                         _______ _______ _______ _____ _____    ______ ____
ROOT
ATOM      1  C   UNL     1      44.332   5.266  10.884  0.00  0.00    +0.000 A 
ATOM      2  C   UNL     1      43.572   4.372  11.626  0.00  0.00    +0.000 A 
ATOM      3  C   UNL     1      43.566   3.030  11.269  0.00  0.00    +0.000 A 
ATOM      4  F   UNL     1      42.844   2.160  11.990  0.00  0.00    +0.000 F 
ATOM      5  C   UNL     1      44.310   2.564  10.186  0.00  0.00    +0.000 A 
ATOM      6  C   UNL     1      45.060   3.452   9.401  0.00  0.00    +0.000 A 
ATOM      7  C   UNL     1      45.026   4.813   9.759  0.00  0.00    +0.000 A 
ENDROOT
BRANCH   6   8
ATOM      8  C   UNL     1      45.869   3.005   8.242  0.00  0.00    +0.000 A 
ATOM      9  C   UNL     1      46.224   3.885   7.204  0.00  0.00    +0.000 A 
ATOM     10  C   UNL     1      47.010   3.459   6.128  0.00  0.00    +0.000 A 
ATOM     11  C   UNL     1      47.461   2.147   6.082  0.00  0.00    +0.000 A 
ATOM     12  F   UNL     1      48.225   1.744   5.059  0.00  0.00    +0.000 F 
ATOM     13  C   UNL     1      47.132   1.249   7.084  0.00  0.00    +0.000 A 
ATOM     14  C   UNL     1      46.333   1.674   8.148  0.00  0.00    +0.000 A 
ENDBRANCH   6   8
BRANCH   1  15
ATOM     15  O   UNL     1      44.342   6.563  11.322  0.00  0.00    +0.000 OA
BRANCH  15  16
ATOM     16  C   UNL     1      44.967   6.771  12.596  0.00  0.00    +0.000 C 
BRANCH  16  22
ATOM     17  C   UNL     1      46.416   8.832  12.168  0.00  0.00    +0.000 A 
ATOM     18  N   UNL     1      47.609   9.445  11.949  0.00  0.00    +0.000 NA
ATOM     19  C   UNL     1      48.712   8.665  11.934  0.00  0.00    +0.000 A 
ATOM     20  C   UNL     1      48.686   7.295  12.111  0.00  0.00    +0.000 A 
ATOM     21  C   UNL     1      47.457   6.686  12.330  0.00  0.00    +0.000 A 
ATOM     22  C   UNL     1      46.286   7.458  12.376  0.00  0.00    +0.000 A 
BRANCH  17  24
ATOM     23  N   UNL     1      44.351  10.416  12.176  0.00  0.00    +0.000 NA
ATOM     24  C   UNL     1      45.279   9.720  12.141  0.00  0.00    +0.000 C 
ENDBRANCH  17  24
ENDBRANCH  16  22
ENDBRANCH  15  16
ENDBRANCH   1  15
TORSDOF 5
ENDMDL
MODEL 3
REMARK VINA RESULT:    -7.565      1.836      2.347
REMARK INTER + INTRA:         -10.962
REMARK INTER:                 -10.082
REMARK INTRA:                  -0.880
REMARK UNBOUND:                -1.185
REMARK  Name = 
REMARK  5 active torsions:
REMARK  status: ('A' for Active; 'I' for Inactive)
REMARK    1  A    between atoms: C_2  and  C_3
REMARK    2  A    between atoms: C_8  and  C_9
REMARK    3  A    between atoms: C_9  and  O_10
REMARK    4  A    between atoms: O_10  and  C_11
REMARK    5  A    between atoms: C_16  and  C_17
REMARK                            x       y       z     vdW  Elec       q    Type
REMARK                         _______ _______ _______ _____ _____    ______ ____
ROOT
ATOM      1  C   UNL     1      45.181   6.286  11.994  0.00  0.00    +0.000 A 
ATOM      2  C   UNL     1      43.815   6.340  12.235  0.00  0.00    +0.000 A 
ATOM      3  C   UNL     1      42.962   5.553  11.474  0.00  0.00    +0.000 A 
ATOM      4  F   UNL     1      41.643   5.591  11.711  0.00  0.00    +0.000 F 
ATOM      5  C   UNL     1      43.450   4.708  10.477  0.00  0.00    +0.000 A 
ATOM      6  C   UNL     1      44.823   4.659  10.193  0.00  0.00    +0.000 A 
ATOM      7  C   UNL     1      45.667   5.490  10.953  0.00  0.00    +0.000 A 
ENDROOT
BRANCH   6   8
ATOM      8  C   UNL     1      45.390   3.775   9.147  0.00  0.00    +0.000 A 
ATOM      9  C   UNL     1      46.026   4.294   8.004  0.00  0.00    +0.000 A 
ATOM     10  C   UNL     1      46.581   3.449   7.036  0.00  0.00    +0.000 A 
ATOM     11  C   UNL     1      46.517   2.073   7.205  0.00  0.00    +0.000 A 
ATOM     12  F   UNL     1      47.061   1.267   6.284  0.00  0.00    +0.000 F 
ATOM     13  C   UNL     1      45.897   1.523   8.315  0.00  0.00    +0.000 A 
ATOM     14  C   UNL     1      45.330   2.369   9.270  0.00  0.00    +0.000 A 
ENDBRANCH   6   8
BRANCH   1  15
ATOM     15  O   UNL     1      45.973   7.042  12.817  0.00  0.00    +0.000 OA
BRANCH  15  16
ATOM     16  C   UNL     1      47.377   6.761  12.738  0.00  0.00    +0.000 C 
BRANCH  16  22
ATOM     17  C   UNL     1      47.716   5.188  14.723  0.00  0.00    +0.000 A 
ATOM     18  N   UNL     1      48.153   4.905  15.978  0.00  0.00    +0.000 NA
ATOM     19  C   UNL     1      48.772   5.895  16.656  0.00  0.00    +0.000 A 
ATOM     20  C   UNL     1      48.966   7.167  16.152  0.00  0.00    +0.000 A 
ATOM     21  C   UNL     1      48.509   7.438  14.869  0.00  0.00    +0.000 A 
ATOM     22  C   UNL     1      47.878   6.435  14.117  0.00  0.00    +0.000 A 
BRANCH  17  24
ATOM     23  N   UNL     1      46.439   3.247  13.550  0.00  0.00    +0.000 NA
ATOM     24  C   UNL     1      47.038   4.095  14.070  0.00  0.00    +0.000 C 
ENDBRANCH  17  24
ENDBRANCH  16  22
ENDBRANCH  15  16
ENDBRANCH   1  15
TORSDOF 5
ENDMDL
MODEL 4
REMARK VINA RESULT:    -7.329      1.766      2.826
REMARK INTER + INTRA:         -10.656
REMARK INTER:                  -9.932
REMARK INTRA:                  -0.724
REMARK UNBOUND:                -1.185
REMARK  Name = 
REMARK  5 active torsions:
REMARK  status: ('A' for Active; 'I' for Inactive)
REMARK    1  A    between atoms: C_2  and  C_3
REMARK    2  A    between atoms: C_8  and  C_9
REMARK    3  A    between atoms: C_9  and  O_10
REMARK    4  A    between atoms: O_10  and  C_11
REMARK    5  A    between atoms: C_16  and  C_17
REMARK                            x       y       z     vdW  Elec       q    Type
REMARK                         _______ _______ _______ _____ _____    ______ ____
ROOT
ATOM      1  C   UNL     1      45.352   6.386  11.621  0.00  0.00    +0.000 A 
ATOM      2  C   UNL     1      44.001   6.380  11.944  0.00  0.00    +0.000 A 
ATOM      3  C   UNL     1      43.154   5.494  11.293  0.00  0.00    +0.000 A 
ATOM      4  F   UNL     1      41.852   5.474  11.609  0.00  0.00    +0.000 F 
ATOM      5  C   UNL     1      43.633   4.609  10.326  0.00  0.00    +0.000 A 
ATOM      6  C   UNL     1      44.987   4.618   9.959  0.00  0.00    +0.000 A 
ATOM      7  C   UNL     1      45.822   5.548  10.607  0.00  0.00    +0.000 A 
ENDROOT
BRANCH   6   8
ATOM      8  C   UNL     1      45.544   3.696   8.941  0.00  0.00    +0.000 A 
ATOM      9  C   UNL     1      46.188   4.173   7.785  0.00  0.00    +0.000 A 
ATOM     10  C   UNL     1      46.734   3.293   6.844  0.00  0.00    +0.000 A 
ATOM     11  C   UNL     1      46.651   1.923   7.053  0.00  0.00    +0.000 A 
ATOM     12  F   UNL     1      47.186   1.083   6.158  0.00  0.00    +0.000 F 
ATOM     13  C   UNL     1      46.023   1.414   8.178  0.00  0.00    +0.000 A 
ATOM     14  C   UNL     1      45.465   2.295   9.107  0.00  0.00    +0.000 A 
ENDBRANCH   6   8
BRANCH   1  15
ATOM     15  O   UNL     1      46.143   7.242  12.340  0.00  0.00    +0.000 OA
BRANCH  15  16
ATOM     16  C   UNL     1      47.512   6.836  12.477  0.00  0.00    +0.000 C 
BRANCH  16  22
ATOM     17  C   UNL     1      48.562   6.583  14.792  0.00  0.00    +0.000 A 
ATOM     18  N   UNL     1      48.722   5.947  15.983  0.00  0.00    +0.000 NA
ATOM     19  C   UNL     1      47.976   4.842  16.199  0.00  0.00    +0.000 A 
ATOM     20  C   UNL     1      47.084   4.325  15.279  0.00  0.00    +0.000 A 
ATOM     21  C   UNL     1      46.938   4.986  14.067  0.00  0.00    +0.000 A 
ATOM     22  C   UNL     1      47.676   6.150  13.804  0.00  0.00    +0.000 A 
BRANCH  17  24
ATOM     23  N   UNL     1      50.095   8.671  14.537  0.00  0.00    +0.000 NA
ATOM     24  C   UNL     1      49.412   7.735  14.617  0.00  0.00    +0.000 C 
ENDBRANCH  17  24
ENDBRANCH  16  22
ENDBRANCH  15  16
ENDBRANCH   1  15
TORSDOF 5
ENDMDL
MODEL 5
REMARK VINA RESULT:    -7.199      1.742      2.195
REMARK INTER + INTRA:         -10.488
REMARK INTER:                  -9.652
REMARK INTRA:                  -0.837
REMARK UNBOUND:                -1.185
REMARK  Name = 
REMARK  5 active torsions:
REMARK  status: ('A' for Active; 'I' for Inactive)
REMARK    1  A    between atoms: C_2  and  C_3
REMARK    2  A    between atoms: C_8  and  C_9
REMARK    3  A    between atoms: C_9  and  O_10
REMARK    4  A    between atoms: O_10  and  C_11
REMARK    5  A    between atoms: C_16  and  C_17
REMARK                            x       y       z     vdW  Elec       q    Type
REMARK                         _______ _______ _______ _____ _____    ______ ____
ROOT
ATOM      1  C   UNL     1      45.288   6.452  11.556  0.00  0.00    +0.000 A 
ATOM      2  C   UNL     1      43.947   6.402  11.913  0.00  0.00    +0.000 A 
ATOM      3  C   UNL     1      43.122   5.460  11.313  0.00  0.00    +0.000 A 
ATOM      4  F   UNL     1      41.829   5.398  11.663  0.00  0.00    +0.000 F 
ATOM      5  C   UNL     1      43.614   4.563  10.365  0.00  0.00    +0.000 A 
ATOM      6  C   UNL     1      44.958   4.614   9.963  0.00  0.00    +0.000 A 
ATOM      7  C   UNL     1      45.769   5.599  10.559  0.00  0.00    +0.000 A 
ENDROOT
BRANCH   6   8
ATOM      8  C   UNL     1      45.528   3.682   8.963  0.00  0.00    +0.000 A 
ATOM      9  C   UNL     1      46.198   4.146   7.816  0.00  0.00    +0.000 A 
ATOM     10  C   UNL     1      46.757   3.256   6.892  0.00  0.00    +0.000 A 
ATOM     11  C   UNL     1      46.660   1.888   7.108  0.00  0.00    +0.000 A 
ATOM     12  F   UNL     1      47.206   1.038   6.230  0.00  0.00    +0.000 F 
ATOM     13  C   UNL     1      46.005   1.392   8.224  0.00  0.00    +0.000 A 
ATOM     14  C   UNL     1      45.436   2.283   9.136  0.00  0.00    +0.000 A 
ENDBRANCH   6   8
BRANCH   1  15
ATOM     15  O   UNL     1      46.060   7.363  12.226  0.00  0.00    +0.000 OA
BRANCH  15  16
ATOM     16  C   UNL     1      46.918   6.811  13.233  0.00  0.00    +0.000 C 
BRANCH  16  22
ATOM     17  C   UNL     1      49.276   7.387  14.032  0.00  0.00    +0.000 A 
ATOM     18  N   UNL     1      50.522   7.897  13.850  0.00  0.00    +0.000 NA
ATOM     19  C   UNL     1      50.814   8.392  12.628  0.00  0.00    +0.000 A 
ATOM     20  C   UNL     1      49.918   8.421  11.576  0.00  0.00    +0.000 A 
ATOM     21  C   UNL     1      48.649   7.899  11.784  0.00  0.00    +0.000 A 
ATOM     22  C   UNL     1      48.305   7.353  13.030  0.00  0.00    +0.000 A 
BRANCH  17  24
ATOM     23  N   UNL     1      48.768   6.549  16.444  0.00  0.00    +0.000 NA
ATOM     24  C   UNL     1      49.023   6.903  15.368  0.00  0.00    +0.000 C 
ENDBRANCH  17  24
ENDBRANCH  16  22
ENDBRANCH  15  16
ENDBRANCH   1  15
TORSDOF 5
ENDMDL
MODEL 6
REMARK VINA RESULT:    -6.855      1.517      2.550
REMARK INTER + INTRA:         -10.043
REMARK INTER:                  -9.250
REMARK INTRA:                  -0.793
REMARK UNBOUND:                -1.185
REMARK  Name = 
REMARK  5 active torsions:
REMARK  status: ('A' for Active; 'I' for Inactive)
REMARK    1  A    between atoms: C_2  and  C_3
REMARK    2  A    between atoms: C_8  and  C_9
REMARK    3  A    between atoms: C_9  and  O_10
REMARK    4  A    between atoms: O_10  and  C_11
REMARK    5  A    between atoms: C_16  and  C_17
REMARK                            x       y       z     vdW  Elec       q    Type
REMARK                         _______ _______ _______ _____ _____    ______ ____
ROOT
ATOM      1  C   UNL     1      44.609   5.036  11.183  0.00  0.00    +0.000 A 
ATOM      2  C   UNL     1      43.733   4.137  11.775  0.00  0.00    +0.000 A 
ATOM      3  C   UNL     1      43.589   2.871  11.224  0.00  0.00    +0.000 A 
ATOM      4  F   UNL     1      42.755   1.993  11.800  0.00  0.00    +0.000 F 
ATOM      5  C   UNL     1      44.307   2.485  10.093  0.00  0.00    +0.000 A 
ATOM      6  C   UNL     1      45.174   3.386   9.457  0.00  0.00    +0.000 A 
ATOM      7  C   UNL     1      45.281   4.676  10.011  0.00  0.00    +0.000 A 
ENDROOT
BRANCH   6   8
ATOM      8  C   UNL     1      45.962   3.023   8.255  0.00  0.00    +0.000 A 
ATOM      9  C   UNL     1      46.416   1.710   8.037  0.00  0.00    +0.000 A 
ATOM     10  C   UNL     1      47.136   1.373   6.885  0.00  0.00    +0.000 A 
ATOM     11  C   UNL     1      47.402   2.345   5.931  0.00  0.00    +0.000 A 
ATOM     12  F   UNL     1      48.080   2.018   4.823  0.00  0.00    +0.000 F 
ATOM     13  C   UNL     1      46.975   3.650   6.110  0.00  0.00    +0.000 A 
ATOM     14  C   UNL     1      46.270   3.986   7.268  0.00  0.00    +0.000 A 
ENDBRANCH   6   8
BRANCH   1  15
ATOM     15  O   UNL     1      44.750   6.247  11.807  0.00  0.00    +0.000 OA
BRANCH  15  16
ATOM     16  C   UNL     1      46.097   6.731  11.900  0.00  0.00    +0.000 C 
BRANCH  16  22
ATOM     17  C   UNL     1      47.168   9.034  12.181  0.00  0.00    +0.000 A 
ATOM     18  N   UNL     1      47.131  10.393  12.172  0.00  0.00    +0.000 NA
ATOM     19  C   UNL     1      45.958  10.977  11.843  0.00  0.00    +0.000 A 
ATOM     20  C   UNL     1      44.809  10.274  11.536  0.00  0.00    +0.000 A 
ATOM     21  C   UNL     1      44.866   8.887  11.555  0.00  0.00    +0.000 A 
ATOM     22  C   UNL     1      46.067   8.234  11.870  0.00  0.00    +0.000 A 
BRANCH  17  24
ATOM     23  N   UNL     1      49.477   8.018  12.823  0.00  0.00    +0.000 NA
ATOM     24  C   UNL     1      48.441   8.479  12.570  0.00  0.00    +0.000 C 
ENDBRANCH  17  24
ENDBRANCH  16  22
ENDBRANCH  15  16
ENDBRANCH   1  15
TORSDOF 5
ENDMDL
MODEL 7
REMARK VINA RESULT:    -6.680      3.004      4.784
REMARK INTER + INTRA:          -9.817
REMARK INTER:                  -8.745
REMARK INTRA:                  -1.073
REMARK UNBOUND:                -1.185
REMARK  Name = 
REMARK  5 active torsions:
REMARK  status: ('A' for Active; 'I' for Inactive)
REMARK    1  A    between atoms: C_2  and  C_3
REMARK    2  A    between atoms: C_8  and  C_9
REMARK    3  A    between atoms: C_9  and  O_10
REMARK    4  A    between atoms: O_10  and  C_11
REMARK    5  A    between atoms: C_16  and  C_17
REMARK                            x       y       z     vdW  Elec       q    Type
REMARK                         _______ _______ _______ _____ _____    ______ ____
ROOT
ATOM      1  C   UNL     1      47.034   7.738  13.305  0.00  0.00    +0.000 A 
ATOM      2  C   UNL     1      46.272   8.890  13.161  0.00  0.00    +0.000 A 
ATOM      3  C   UNL     1      45.202   8.886  12.277  0.00  0.00    +0.000 A 
ATOM      4  F   UNL     1      44.453   9.991  12.145  0.00  0.00    +0.000 F 
ATOM      5  C   UNL     1      44.876   7.751  11.535  0.00  0.00    +0.000 A 
ATOM      6  C   UNL     1      45.651   6.586  11.638  0.00  0.00    +0.000 A 
ATOM      7  C   UNL     1      46.752   6.621  12.514  0.00  0.00    +0.000 A 
ENDROOT
BRANCH   6   8
ATOM      8  C   UNL     1      45.344   5.353  10.874  0.00  0.00    +0.000 A 
ATOM      9  C   UNL     1      44.736   4.239  11.480  0.00  0.00    +0.000 A 
ATOM     10  C   UNL     1      44.427   3.090  10.742  0.00  0.00    +0.000 A 
ATOM     11  C   UNL     1      44.713   3.047   9.385  0.00  0.00    +0.000 A 
ATOM     12  F   UNL     1      44.404   1.952   8.678  0.00  0.00    +0.000 F 
ATOM     13  C   UNL     1      45.313   4.123   8.752  0.00  0.00    +0.000 A 
ATOM     14  C   UNL     1      45.635   5.260   9.495  0.00  0.00    +0.000 A 
ENDBRANCH   6   8
BRANCH   1  15
ATOM     15  O   UNL     1      48.039   7.788  14.234  0.00  0.00    +0.000 OA
BRANCH  15  16
ATOM     16  C   UNL     1      48.732   6.551  14.449  0.00  0.00    +0.000 C 
BRANCH  16  22
ATOM     17  C   UNL     1      47.737   4.792  16.013  0.00  0.00    +0.000 A 
ATOM     18  N   UNL     1      47.385   4.329  17.242  0.00  0.00    +0.000 NA
ATOM     19  C   UNL     1      47.661   5.118  18.302  0.00  0.00    +0.000 A 
ATOM     20  C   UNL     1      48.260   6.360  18.202  0.00  0.00    +0.000 A 
ATOM     21  C   UNL     1      48.608   6.817  16.937  0.00  0.00    +0.000 A 
ATOM     22  C   UNL     1      48.361   6.024  15.806  0.00  0.00    +0.000 A 
BRANCH  17  24
ATOM     23  N   UNL     1      47.093   3.256  14.013  0.00  0.00    +0.000 NA
ATOM     24  C   UNL     1      47.384   3.913  14.925  0.00  0.00    +0.000 C 
ENDBRANCH  17  24
ENDBRANCH  16  22
ENDBRANCH  15  16
ENDBRANCH   1  15
TORSDOF 5
ENDMDL
MODEL 8
REMARK VINA RESULT:    -6.573      3.604      7.582
REMARK INTER + INTRA:          -9.679
REMARK INTER:                  -8.841
REMARK INTRA:                  -0.838
REMARK UNBOUND:                -1.185
REMARK  Name = 
REMARK  5 active torsions:
REMARK  status: ('A' for Active; 'I' for Inactive)
REMARK    1  A    between atoms: C_2  and  C_3
REMARK    2  A    between atoms: C_8  and  C_9
REMARK    3  A    between atoms: C_9  and  O_10
REMARK    4  A    between atoms: O_10  and  C_11
REMARK    5  A    between atoms: C_16  and  C_17
REMARK                            x       y       z     vdW  Elec       q    Type
REMARK                         _______ _______ _______ _____ _____    ______ ____
ROOT
ATOM      1  C   UNL     1      47.274   6.668  12.199  0.00  0.00    +0.000 A 
ATOM      2  C   UNL     1      47.915   7.899  12.177  0.00  0.00    +0.000 A 
ATOM      3  C   UNL     1      48.620   8.314  13.299  0.00  0.00    +0.000 A 
ATOM      4  F   UNL     1      49.253   9.496  13.279  0.00  0.00    +0.000 F 
ATOM      5  C   UNL     1      48.699   7.519  14.442  0.00  0.00    +0.000 A 
ATOM      6  C   UNL     1      48.033   6.286  14.501  0.00  0.00    +0.000 A 
ATOM      7  C   UNL     1      47.296   5.899  13.366  0.00  0.00    +0.000 A 
ENDROOT
BRANCH   6   8
ATOM      8  C   UNL     1      48.089   5.404  15.690  0.00  0.00    +0.000 A 
ATOM      9  C   UNL     1      47.269   4.267  15.808  0.00  0.00    +0.000 A 
ATOM     10  C   UNL     1      47.349   3.427  16.924  0.00  0.00    +0.000 A 
ATOM     11  C   UNL     1      48.259   3.708  17.934  0.00  0.00    +0.000 A 
ATOM     12  F   UNL     1      48.345   2.896  18.994  0.00  0.00    +0.000 F 
ATOM     13  C   UNL     1      49.082   4.820  17.856  0.00  0.00    +0.000 A 
ATOM     14  C   UNL     1      48.988   5.665  16.748  0.00  0.00    +0.000 A 
ENDBRANCH   6   8
BRANCH   1  15
ATOM     15  O   UNL     1      46.645   6.291  11.042  0.00  0.00    +0.000 OA
BRANCH  15  16
ATOM     16  C   UNL     1      45.265   5.932  11.187  0.00  0.00    +0.000 C 
BRANCH  16  22
ATOM     17  C   UNL     1      44.376   3.565  10.819  0.00  0.00    +0.000 A 
ATOM     18  N   UNL     1      44.152   2.464  10.053  0.00  0.00    +0.000 NA
ATOM     19  C   UNL     1      44.557   2.514   8.766  0.00  0.00    +0.000 A 
ATOM     20  C   UNL     1      45.192   3.603   8.201  0.00  0.00    +0.000 A 
ATOM     21  C   UNL     1      45.416   4.716   9.001  0.00  0.00    +0.000 A 
ATOM     22  C   UNL     1      44.994   4.721  10.339  0.00  0.00    +0.000 A 
BRANCH  17  24
ATOM     23  N   UNL     1      43.618   3.381  13.302  0.00  0.00    +0.000 NA
ATOM     24  C   UNL     1      43.946   3.430  12.189  0.00  0.00    +0.000 C 
ENDBRANCH  17  24
ENDBRANCH  16  22
ENDBRANCH  15  16
ENDBRANCH   1  15
TORSDOF 5
ENDMDL
MODEL 9
REMARK VINA RESULT:    -6.218      3.916      6.420
REMARK INTER + INTRA:          -9.221
REMARK INTER:                  -8.256
REMARK INTRA:                  -0.965
REMARK UNBOUND:                -1.185
REMARK  Name = 
REMARK  5 active torsions:
REMARK  status: ('A' for Active; 'I' for Inactive)
REMARK    1  A    between atoms: C_2  and  C_3
REMARK    2  A    between atoms: C_8  and  C_9
REMARK    3  A    between atoms: C_9  and  O_10
REMARK    4  A    between atoms: O_10  and  C_11
REMARK    5  A    between atoms: C_16  and  C_17
REMARK                            x       y       z     vdW  Elec       q    Type
REMARK                         _______ _______ _______ _____ _____    ______ ____
ROOT
ATOM      1  C   UNL     1      49.024   7.199  14.462  0.00  0.00    +0.000 A 
ATOM      2  C   UNL     1      49.749   7.924  13.526  0.00  0.00    +0.000 A 
ATOM      3  C   UNL     1      49.311   7.957  12.209  0.00  0.00    +0.000 A 
ATOM      4  F   UNL     1      50.000   8.667  11.304  0.00  0.00    +0.000 F 
ATOM      5  C   UNL     1      48.158   7.283  11.810  0.00  0.00    +0.000 A 
ATOM      6  C   UNL     1      47.425   6.517  12.730  0.00  0.00    +0.000 A 
ATOM      7  C   UNL     1      47.905   6.468  14.052  0.00  0.00    +0.000 A 
ENDROOT
BRANCH   6   8
ATOM      8  C   UNL     1      46.192   5.785  12.356  0.00  0.00    +0.000 A 
ATOM      9  C   UNL     1      45.459   5.040  13.298  0.00  0.00    +0.000 A 
ATOM     10  C   UNL     1      44.281   4.375  12.938  0.00  0.00    +0.000 A 
ATOM     11  C   UNL     1      43.816   4.454  11.633  0.00  0.00    +0.000 A 
ATOM     12  F   UNL     1      42.682   3.828  11.295  0.00  0.00    +0.000 F 
ATOM     13  C   UNL     1      44.511   5.175  10.676  0.00  0.00    +0.000 A 
ATOM     14  C   UNL     1      45.694   5.824  11.034  0.00  0.00    +0.000 A 
ENDBRANCH   6   8
BRANCH   1  15
ATOM     15  O   UNL     1      49.475   7.253  15.754  0.00  0.00    +0.000 OA
BRANCH  15  16
ATOM     16  C   UNL     1      48.771   6.414  16.680  0.00  0.00    +0.000 C 
BRANCH  16  22
ATOM     17  C   UNL     1      49.196   3.972  17.301  0.00  0.00    +0.000 A 
ATOM     18  N   UNL     1      50.004   2.940  17.661  0.00  0.00    +0.000 NA
ATOM     19  C   UNL     1      51.323   3.201  17.782  0.00  0.00    +0.000 A 
ATOM     20  C   UNL     1      51.882   4.449  17.579  0.00  0.00    +0.000 A 
ATOM     21  C   UNL     1      51.039   5.491  17.216  0.00  0.00    +0.000 A 
ATOM     22  C   UNL     1      49.663   5.264  17.056  0.00  0.00    +0.000 A 
BRANCH  17  24
ATOM     23  N   UNL     1      46.662   3.383  17.208  0.00  0.00    +0.000 NA
ATOM     24  C   UNL     1      47.797   3.629  17.220  0.00  0.00    +0.000 C 
ENDBRANCH  17  24
ENDBRANCH  16  22
ENDBRANCH  15  16
ENDBRANCH   1  15
TORSDOF 5
ENDMDL
