MODEL 1
REMARK VINA RESULT:    -8.632      0.000      0.000
REMARK INTER + INTRA:         -12.350
REMARK INTER:                 -11.659
REMARK INTRA:                  -0.691
REMARK UNBOUND:                -0.691
REMARK  Name = 
REMARK  6 active torsions:
REMARK  status: ('A' for Active; 'I' for Inactive)
REMARK    1  A    between atoms: C_2  and  C_25
REMARK    2  A    between atoms: N_3  and  C_4
REMARK    3  A    between atoms: C_4  and  C_5
REMARK    4  A    between atoms: C_8  and  C_9
REMARK    5  A    between atoms: C_9  and  N_10
REMARK    6  A    between atoms: C_11  and  C_13
REMARK                            x       y       z     vdW  Elec       q    Type
REMARK                         _______ _______ _______ _____ _____    ______ ____
ROOT
ATOM      1  C   UNL     1      44.602   5.549  11.293  0.00  0.00    +0.000 A 
ATOM      2  C   UNL     1      45.678   4.972  11.982  0.00  0.00    +0.000 A 
ATOM      3  C   UNL     1      46.562   5.767  12.728  0.00  0.00    +0.000 A 
ATOM      4  C   UNL     1      46.382   7.156  12.810  0.00  0.00    +0.000 A 
ATOM      5  C   UNL     1      45.306   7.727  12.118  0.00  0.00    +0.000 A 
ATOM      6  C   UNL     1      44.422   6.934  11.377  0.00  0.00    +0.000 A 
ENDROOT
BRANCH   1   7
ATOM      7  C   UNL     1      43.677   4.705  10.454  0.00  0.00    +0.000 C 
BRANCH   7  10
ATOM      8  O   UNL     1      45.528   5.088   8.402  0.00  0.00    +0.000 OA
ATOM      9  C   UNL     1      45.266   3.941   8.753  0.00  0.00    +0.000 C 
ATOM     10  N   UNL     1      44.352   3.645   9.746  0.00  0.00    +0.000 N 
ATOM     11  H   UNL     1      44.144   2.672   9.951  0.00  0.00    +0.000 HD
BRANCH   9  12
ATOM     12  C   UNL     1      45.946   2.781   8.109  0.00  0.00    +0.000 A 
ATOM     13  C   UNL     1      46.757   2.966   7.001  0.00  0.00    +0.000 A 
ATOM     14  C   UNL     1      47.382   1.854   6.451  0.00  0.00    +0.000 A 
ATOM     15  C   UNL     1      47.152   0.624   7.037  0.00  0.00    +0.000 A 
ATOM     16  N   UNL     1      46.356   0.469   8.117  0.00  0.00    +0.000 NA
ATOM     17  N   UNL     1      45.743   1.562   8.665  0.00  0.00    +0.000 NA
ENDBRANCH   9  12
ENDBRANCH   7  10
ENDBRANCH   1   7
BRANCH   4  18
ATOM     18  C   UNL     1      47.297   8.034  13.632  0.00  0.00    +0.000 C 
BRANCH  18  19
ATOM     19  N   UNL     1      47.730   7.420  14.864  0.00  0.00    +0.000 N 
ATOM     20  C   UNL     1      49.007   6.921  15.005  0.00  0.00    +0.000 C 
ATOM     21  O   UNL     1      49.833   6.956  14.098  0.00  0.00    +0.000 OA
ATOM     22  H   UNL     1      47.072   7.206  15.607  0.00  0.00    +0.000 HD
BRANCH  20  23
ATOM     23  C   UNL     1      49.293   6.349  16.340  0.00  0.00    +0.000 A 
ATOM     24  N   UNL     1      50.269   6.874  17.127  0.00  0.00    +0.000 NA
ATOM     25  N   UNL     1      50.275   6.085  18.223  0.00  0.00    +0.000 N 
ATOM     26  C   UNL     1      49.346   5.093  18.180  0.00  0.00    +0.000 A 
ATOM     27  N   UNL     1      49.144   4.163  19.146  0.00  0.00    +0.000 NA
ATOM     28  C   UNL     1      48.209   3.319  18.836  0.00  0.00    +0.000 A 
ATOM     29  N   UNL     1      47.477   3.343  17.665  0.00  0.00    +0.000 N 
ATOM     30  C   UNL     1      47.634   4.307  16.680  0.00  0.00    +0.000 A 
ATOM     31  O   UNL     1      46.910   4.329  15.696  0.00  0.00    +0.000 OA
ATOM     32  C   UNL     1      48.687   5.239  16.982  0.00  0.00    +0.000 A 
ATOM     33  H   UNL     1      50.936   6.273  18.967  0.00  0.00    +0.000 HD
ATOM     34  H   UNL     1      46.749   2.663  17.495  0.00  0.00    +0.000 HD
ENDBRANCH  20  23
ENDBRANCH  18  19
ENDBRANCH   4  18
TORSDOF 6
ENDMDL
MODEL 2
REMARK VINA RESULT:    -8.324      0.952      1.300
REMARK INTER + INTRA:         -11.934
REMARK INTER:                 -11.095
REMARK INTRA:                  -0.839
REMARK UNBOUND:                -0.691
REMARK  Name = 
REMARK  6 active torsions:
REMARK  status: ('A' for Active; 'I' for Inactive)
REMARK    1  A    between atoms: C_2  and  C_25
REMARK    2  A    between atoms: N_3  and  C_4
REMARK    3  A    between atoms: C_4  and  C_5
REMARK    4  A    between atoms: C_8  and  C_9
REMARK    5  A    between atoms: C_9  and  N_10
REMARK    6  A    between atoms: C_11  and  C_13
REMARK                            x       y       z     vdW  Elec       q    Type
REMARK                         _______ _______ _______ _____ _____    ______ ____
ROOT
ATOM      1  C   UNL     1      45.082   6.388  11.308  0.00  0.00    +0.000 A 
ATOM      2  C   UNL     1      44.760   7.729  11.562  0.00  0.00    +0.000 A 
ATOM      3  C   UNL     1      45.527   8.497  12.451  0.00  0.00    +0.000 A 
ATOM      4  C   UNL     1      46.642   7.942  13.100  0.00  0.00    +0.000 A 
ATOM      5  C   UNL     1      46.958   6.601  12.844  0.00  0.00    +0.000 A 
ATOM      6  C   UNL     1      46.196   5.837  11.953  0.00  0.00    +0.000 A 
ENDROOT
BRANCH   1   7
ATOM      7  C   UNL     1      44.235   5.548  10.388  0.00  0.00    +0.000 C 
BRANCH   7  10
ATOM      8  O   UNL     1      43.943   2.785  10.135  0.00  0.00    +0.000 OA
ATOM      9  C   UNL     1      44.775   3.357   9.435  0.00  0.00    +0.000 C 
ATOM     10  N   UNL     1      45.007   4.717   9.497  0.00  0.00    +0.000 N 
ATOM     11  H   UNL     1      45.747   5.117   8.927  0.00  0.00    +0.000 HD
BRANCH   9  12
ATOM     12  C   UNL     1      45.591   2.588   8.453  0.00  0.00    +0.000 A 
ATOM     13  C   UNL     1      46.105   3.207   7.325  0.00  0.00    +0.000 A 
ATOM     14  C   UNL     1      46.875   2.449   6.452  0.00  0.00    +0.000 A 
ATOM     15  C   UNL     1      47.078   1.116   6.756  0.00  0.00    +0.000 A 
ATOM     16  N   UNL     1      46.566   0.535   7.862  0.00  0.00    +0.000 NA
ATOM     17  N   UNL     1      45.812   1.279   8.727  0.00  0.00    +0.000 NA
ENDBRANCH   9  12
ENDBRANCH   7  10
ENDBRANCH   1   7
BRANCH   4  18
ATOM     18  C   UNL     1      47.507   8.751  14.038  0.00  0.00    +0.000 C 
BRANCH  18  19
ATOM     19  N   UNL     1      47.840   8.056  15.258  0.00  0.00    +0.000 N 
ATOM     20  C   UNL     1      49.079   7.482  15.440  0.00  0.00    +0.000 C 
ATOM     21  O   UNL     1      49.954   7.517  14.580  0.00  0.00    +0.000 OA
ATOM     22  H   UNL     1      47.131   7.842  15.954  0.00  0.00    +0.000 HD
BRANCH  20  23
ATOM     23  C   UNL     1      49.263   6.832  16.757  0.00  0.00    +0.000 A 
ATOM     24  N   UNL     1      49.923   7.467  17.760  0.00  0.00    +0.000 NA
ATOM     25  N   UNL     1      49.936   6.572  18.771  0.00  0.00    +0.000 N 
ATOM     26  C   UNL     1      49.306   5.405  18.468  0.00  0.00    +0.000 A 
ATOM     27  N   UNL     1      49.178   4.342  19.300  0.00  0.00    +0.000 NA
ATOM     28  C   UNL     1      48.551   3.349  18.746  0.00  0.00    +0.000 A 
ATOM     29  N   UNL     1      48.052   3.348  17.458  0.00  0.00    +0.000 N 
ATOM     30  C   UNL     1      48.132   4.436  16.601  0.00  0.00    +0.000 A 
ATOM     31  O   UNL     1      47.609   4.412  15.498  0.00  0.00    +0.000 OA
ATOM     32  C   UNL     1      48.850   5.542  17.178  0.00  0.00    +0.000 A 
ATOM     33  H   UNL     1      50.388   6.814  19.644  0.00  0.00    +0.000 HD
ATOM     34  H   UNL     1      47.557   2.546  17.095  0.00  0.00    +0.000 HD
ENDBRANCH  20  23
ENDBRANCH  18  19
ENDBRANCH   4  18
TORSDOF 6
ENDMDL
MODEL 3
REMARK VINA RESULT:    -8.153      1.657      1.915
REMARK INTER + INTRA:         -11.703
REMARK INTER:                 -10.748
REMARK INTRA:                  -0.955
REMARK UNBOUND:                -0.691
REMARK  Name = 
REMARK  6 active torsions:
REMARK  status: ('A' for Active; 'I' for Inactive)
REMARK    1  A    between atoms: C_2  and  C_25
REMARK    2  A    between atoms: N_3  and  C_4
REMARK    3  A    between atoms: C_4  and  C_5
REMARK    4  A    between atoms: C_8  and  C_9
REMARK    5  A    between atoms: C_9  and  N_10
REMARK    6  A    between atoms: C_11  and  C_13
REMARK                            x       y       z     vdW  Elec       q    Type
REMARK                         _______ _______ _______ _____ _____    ______ ____
ROOT
ATOM      1  C   UNL     1      45.254   5.760  11.384  0.00  0.00    +0.000 A 
ATOM      2  C   UNL     1      46.012   4.963  12.252  0.00  0.00    +0.000 A 
ATOM      3  C   UNL     1      46.848   5.546  13.217  0.00  0.00    +0.000 A 
ATOM      4  C   UNL     1      46.936   6.941  13.341  0.00  0.00    +0.000 A 
ATOM      5  C   UNL     1      46.176   7.733  12.469  0.00  0.00    +0.000 A 
ATOM      6  C   UNL     1      45.338   7.151  11.510  0.00  0.00    +0.000 A 
ENDROOT
BRANCH   1   7
ATOM      7  C   UNL     1      44.389   5.137  10.318  0.00  0.00    +0.000 C 
BRANCH   7  10
ATOM      8  O   UNL     1      44.685   2.393   9.907  0.00  0.00    +0.000 OA
ATOM      9  C   UNL     1      45.217   3.169   9.117  0.00  0.00    +0.000 C 
ATOM     10  N   UNL     1      45.144   4.543   9.242  0.00  0.00    +0.000 N 
ATOM     11  H   UNL     1      45.651   5.125   8.582  0.00  0.00    +0.000 HD
BRANCH   9  12
ATOM     12  C   UNL     1      45.983   2.648   7.949  0.00  0.00    +0.000 A 
ATOM     13  C   UNL     1      46.217   3.452   6.845  0.00  0.00    +0.000 A 
ATOM     14  C   UNL     1      46.952   2.923   5.791  0.00  0.00    +0.000 A 
ATOM     15  C   UNL     1      47.402   1.621   5.903  0.00  0.00    +0.000 A 
ATOM     16  N   UNL     1      47.160   0.857   6.990  0.00  0.00    +0.000 NA
ATOM     17  N   UNL     1      46.441   1.376   8.031  0.00  0.00    +0.000 NA
ENDBRANCH   9  12
ENDBRANCH   7  10
ENDBRANCH   1   7
BRANCH   4  18
ATOM     18  C   UNL     1      47.801   7.599  14.390  0.00  0.00    +0.000 C 
BRANCH  18  19
ATOM     19  N   UNL     1      48.020   6.775  15.554  0.00  0.00    +0.000 N 
ATOM     20  C   UNL     1      49.288   6.384  15.927  0.00  0.00    +0.000 C 
ATOM     21  O   UNL     1      50.288   6.697  15.290  0.00  0.00    +0.000 OA
ATOM     22  H   UNL     1      47.245   6.340  16.047  0.00  0.00    +0.000 HD
BRANCH  20  23
ATOM     23  C   UNL     1      49.335   5.564  17.159  0.00  0.00    +0.000 A 
ATOM     24  N   UNL     1      49.960   4.357  17.167  0.00  0.00    +0.000 NA
ATOM     25  N   UNL     1      49.764   3.888  18.418  0.00  0.00    +0.000 N 
ATOM     26  C   UNL     1      49.058   4.739  19.210  0.00  0.00    +0.000 A 
ATOM     27  N   UNL     1      48.721   4.511  20.503  0.00  0.00    +0.000 NA
ATOM     28  C   UNL     1      48.025   5.481  21.014  0.00  0.00    +0.000 A 
ATOM     29  N   UNL     1      47.659   6.631  20.343  0.00  0.00    +0.000 N 
ATOM     30  C   UNL     1      48.026   6.908  19.035  0.00  0.00    +0.000 A 
ATOM     31  O   UNL     1      47.741   7.974  18.510  0.00  0.00    +0.000 OA
ATOM     32  C   UNL     1      48.773   5.836  18.432  0.00  0.00    +0.000 A 
ATOM     33  H   UNL     1      50.136   2.981  18.674  0.00  0.00    +0.000 HD
ATOM     34  H   UNL     1      47.130   7.356  20.808  0.00  0.00    +0.000 HD
ENDBRANCH  20  23
ENDBRANCH  18  19
ENDBRANCH   4  18
TORSDOF 6
ENDMDL
MODEL 4
REMARK VINA RESULT:    -7.534      3.278      4.191
REMARK INTER + INTRA:         -10.868
REMARK INTER:                 -10.042
REMARK INTRA:                  -0.826
REMARK UNBOUND:                -0.691
REMARK  Name = 
REMARK  6 active torsions:
REMARK  status: ('A' for Active; 'I' for Inactive)
REMARK    1  A    between atoms: C_2  and  C_25
REMARK    2  A    between atoms: N_3  and  C_4
REMARK    3  A    between atoms: C_4  and  C_5
REMARK    4  A    between atoms: C_8  and  C_9
REMARK    5  A    between atoms: C_9  and  N_10
REMARK    6  A    between atoms: C_11  and  C_13
REMARK                            x       y       z     vdW  Elec       q    Type
REMARK                         _______ _______ _______ _____ _____    ______ ____
ROOT
ATOM      1  C   UNL     1      44.624   4.760  11.827  0.00  0.00    +0.000 A 
ATOM      2  C   UNL     1      44.006   5.945  11.404  0.00  0.00    +0.000 A 
ATOM      3  C   UNL     1      44.462   7.193  11.854  0.00  0.00    +0.000 A 
ATOM      4  C   UNL     1      45.555   7.285  12.729  0.00  0.00    +0.000 A 
ATOM      5  C   UNL     1      46.169   6.097  13.149  0.00  0.00    +0.000 A 
ATOM      6  C   UNL     1      45.717   4.852  12.696  0.00  0.00    +0.000 A 
ENDROOT
BRANCH   1   7
ATOM      7  C   UNL     1      44.109   3.415  11.381  0.00  0.00    +0.000 C 
BRANCH   7  10
ATOM      8  O   UNL     1      44.159   4.067   8.668  0.00  0.00    +0.000 OA
ATOM      9  C   UNL     1      44.910   3.185   9.077  0.00  0.00    +0.000 C 
ATOM     10  N   UNL     1      44.949   2.778  10.396  0.00  0.00    +0.000 N 
ATOM     11  H   UNL     1      45.558   2.007  10.656  0.00  0.00    +0.000 HD
BRANCH   9  12
ATOM     12  C   UNL     1      45.846   2.499   8.142  0.00  0.00    +0.000 A 
ATOM     13  C   UNL     1      46.394   3.181   7.067  0.00  0.00    +0.000 A 
ATOM     14  C   UNL     1      47.276   2.499   6.237  0.00  0.00    +0.000 A 
ATOM     15  C   UNL     1      47.548   1.175   6.527  0.00  0.00    +0.000 A 
ATOM     16  N   UNL     1      47.001   0.533   7.581  0.00  0.00    +0.000 NA
ATOM     17  N   UNL     1      46.137   1.201   8.403  0.00  0.00    +0.000 NA
ENDBRANCH   9  12
ENDBRANCH   7  10
ENDBRANCH   1   7
BRANCH   4  18
ATOM     18  C   UNL     1      46.090   8.615  13.205  0.00  0.00    +0.000 C 
BRANCH  18  19
ATOM     19  N   UNL     1      47.524   8.733  13.088  0.00  0.00    +0.000 N 
ATOM     20  C   UNL     1      48.323   8.889  14.200  0.00  0.00    +0.000 C 
ATOM     21  O   UNL     1      47.865   8.950  15.337  0.00  0.00    +0.000 OA
ATOM     22  H   UNL     1      47.973   8.850  12.184  0.00  0.00    +0.000 HD
BRANCH  20  23
ATOM     23  C   UNL     1      49.771   8.967  13.904  0.00  0.00    +0.000 A 
ATOM     24  N   UNL     1      50.615   9.636  14.733  0.00  0.00    +0.000 NA
ATOM     25  N   UNL     1      51.821   9.537  14.133  0.00  0.00    +0.000 N 
ATOM     26  C   UNL     1      51.790   8.828  12.972  0.00  0.00    +0.000 A 
ATOM     27  N   UNL     1      52.858   8.583  12.173  0.00  0.00    +0.000 NA
ATOM     28  C   UNL     1      52.541   7.902  11.114  0.00  0.00    +0.000 A 
ATOM     29  N   UNL     1      51.269   7.456  10.812  0.00  0.00    +0.000 N 
ATOM     30  C   UNL     1      50.169   7.657  11.632  0.00  0.00    +0.000 A 
ATOM     31  O   UNL     1      49.079   7.177  11.356  0.00  0.00    +0.000 OA
ATOM     32  C   UNL     1      50.484   8.437  12.798  0.00  0.00    +0.000 A 
ATOM     33  H   UNL     1      52.628   9.972  14.562  0.00  0.00    +0.000 HD
ATOM     34  H   UNL     1      51.096   6.914   9.977  0.00  0.00    +0.000 HD
ENDBRANCH  20  23
ENDBRANCH  18  19
ENDBRANCH   4  18
TORSDOF 6
ENDMDL
MODEL 5
REMARK VINA RESULT:    -6.930      2.664      3.271
REMARK INTER + INTRA:         -10.051
REMARK INTER:                  -9.270
REMARK INTRA:                  -0.781
REMARK UNBOUND:                -0.691
REMARK  Name = 
REMARK  6 active torsions:
REMARK  status: ('A' for Active; 'I' for Inactive)
REMARK    1  A    between atoms: C_2  and  C_25
REMARK    2  A    between atoms: N_3  and  C_4
REMARK    3  A    between atoms: C_4  and  C_5
REMARK    4  A    between atoms: C_8  and  C_9
REMARK    5  A    between atoms: C_9  and  N_10
REMARK    6  A    between atoms: C_11  and  C_13
REMARK                            x       y       z     vdW  Elec       q    Type
REMARK                         _______ _______ _______ _____ _____    ______ ____
ROOT
ATOM      1  C   UNL     1      45.116   4.481  11.873  0.00  0.00    +0.000 A 
ATOM      2  C   UNL     1      45.602   3.280  12.407  0.00  0.00    +0.000 A 
ATOM      3  C   UNL     1      46.446   3.281  13.528  0.00  0.00    +0.000 A 
ATOM      4  C   UNL     1      46.814   4.486  14.147  0.00  0.00    +0.000 A 
ATOM      5  C   UNL     1      46.327   5.684  13.608  0.00  0.00    +0.000 A 
ATOM      6  C   UNL     1      45.481   5.682  12.493  0.00  0.00    +0.000 A 
ENDROOT
BRANCH   1   7
ATOM      7  C   UNL     1      44.245   4.487  10.643  0.00  0.00    +0.000 C 
BRANCH   7  10
ATOM      8  O   UNL     1      46.099   5.431   8.784  0.00  0.00    +0.000 OA
ATOM      9  C   UNL     1      45.714   4.268   8.695  0.00  0.00    +0.000 C 
ATOM     10  N   UNL     1      44.787   3.712   9.554  0.00  0.00    +0.000 N 
ATOM     11  H   UNL     1      44.474   2.759   9.391  0.00  0.00    +0.000 HD
BRANCH   9  12
ATOM     12  C   UNL     1      46.250   3.376   7.628  0.00  0.00    +0.000 A 
ATOM     13  C   UNL     1      46.486   2.034   7.883  0.00  0.00    +0.000 A 
ATOM     14  C   UNL     1      46.968   1.243   6.848  0.00  0.00    +0.000 A 
ATOM     15  C   UNL     1      47.193   1.843   5.623  0.00  0.00    +0.000 A 
ATOM     16  N   UNL     1      46.955   3.153   5.399  0.00  0.00    +0.000 NA
ATOM     17  N   UNL     1      46.476   3.934   6.414  0.00  0.00    +0.000 NA
ENDBRANCH   9  12
ENDBRANCH   7  10
ENDBRANCH   1   7
BRANCH   4  18
ATOM     18  C   UNL     1      47.694   4.518  15.374  0.00  0.00    +0.000 C 
BRANCH  18  19
ATOM     19  N   UNL     1      47.774   5.821  15.991  0.00  0.00    +0.000 N 
ATOM     20  C   UNL     1      48.625   6.063  17.047  0.00  0.00    +0.000 C 
ATOM     21  O   UNL     1      49.343   5.192  17.528  0.00  0.00    +0.000 OA
ATOM     22  H   UNL     1      47.107   6.554  15.764  0.00  0.00    +0.000 HD
BRANCH  20  23
ATOM     23  C   UNL     1      48.600   7.458  17.542  0.00  0.00    +0.000 A 
ATOM     24  N   UNL     1      49.047   8.479  16.765  0.00  0.00    +0.000 NA
ATOM     25  N   UNL     1      48.919   9.574  17.546  0.00  0.00    +0.000 N 
ATOM     26  C   UNL     1      48.402   9.304  18.775  0.00  0.00    +0.000 A 
ATOM     27  N   UNL     1      48.174  10.218  19.749  0.00  0.00    +0.000 NA
ATOM     28  C   UNL     1      47.697   9.684  20.832  0.00  0.00    +0.000 A 
ATOM     29  N   UNL     1      47.433   8.338  21.000  0.00  0.00    +0.000 N 
ATOM     30  C   UNL     1      47.617   7.389  20.006  0.00  0.00    +0.000 A 
ATOM     31  O   UNL     1      47.297   6.222  20.179  0.00  0.00    +0.000 OA
ATOM     32  C   UNL     1      48.175   7.948  18.804  0.00  0.00    +0.000 A 
ATOM     33  H   UNL     1      49.200  10.478  17.186  0.00  0.00    +0.000 HD
ATOM     34  H   UNL     1      47.044   7.991  21.865  0.00  0.00    +0.000 HD
ENDBRANCH  20  23
ENDBRANCH  18  19
ENDBRANCH   4  18
TORSDOF 6
ENDMDL
MODEL 6
REMARK VINA RESULT:    -6.856      2.754      3.765
REMARK INTER + INTRA:          -9.951
REMARK INTER:                  -9.146
REMARK INTRA:                  -0.805
REMARK UNBOUND:                -0.691
REMARK  Name = 
REMARK  6 active torsions:
REMARK  status: ('A' for Active; 'I' for Inactive)
REMARK    1  A    between atoms: C_2  and  C_25
REMARK    2  A    between atoms: N_3  and  C_4
REMARK    3  A    between atoms: C_4  and  C_5
REMARK    4  A    between atoms: C_8  and  C_9
REMARK    5  A    between atoms: C_9  and  N_10
REMARK    6  A    between atoms: C_11  and  C_13
REMARK                            x       y       z     vdW  Elec       q    Type
REMARK                         _______ _______ _______ _____ _____    ______ ____
ROOT
ATOM      1  C   UNL     1      47.085   6.529  13.579  0.00  0.00    +0.000 A 
ATOM      2  C   UNL     1      47.935   7.571  13.184  0.00  0.00    +0.000 A 
ATOM      3  C   UNL     1      49.080   7.888  13.930  0.00  0.00    +0.000 A 
ATOM      4  C   UNL     1      49.406   7.160  15.086  0.00  0.00    +0.000 A 
ATOM      5  C   UNL     1      48.552   6.121  15.477  0.00  0.00    +0.000 A 
ATOM      6  C   UNL     1      47.412   5.802  14.729  0.00  0.00    +0.000 A 
ENDROOT
BRANCH   1   7
ATOM      7  C   UNL     1      45.830   6.215  12.804  0.00  0.00    +0.000 C 
BRANCH   7  10
ATOM      8  O   UNL     1      43.912   5.620  10.868  0.00  0.00    +0.000 OA
ATOM      9  C   UNL     1      45.053   5.190  10.720  0.00  0.00    +0.000 C 
ATOM     10  N   UNL     1      46.069   5.414  11.629  0.00  0.00    +0.000 N 
ATOM     11  H   UNL     1      46.976   4.985  11.470  0.00  0.00    +0.000 HD
BRANCH   9  12
ATOM     12  C   UNL     1      45.406   4.388   9.514  0.00  0.00    +0.000 A 
ATOM     13  C   UNL     1      45.134   3.030   9.467  0.00  0.00    +0.000 A 
ATOM     14  C   UNL     1      45.466   2.333   8.312  0.00  0.00    +0.000 A 
ATOM     15  C   UNL     1      46.057   3.034   7.278  0.00  0.00    +0.000 A 
ATOM     16  N   UNL     1      46.313   4.358   7.349  0.00  0.00    +0.000 NA
ATOM     17  N   UNL     1      45.982   5.049   8.481  0.00  0.00    +0.000 NA
ENDBRANCH   9  12
ENDBRANCH   7  10
ENDBRANCH   1   7
BRANCH   4  18
ATOM     18  C   UNL     1      50.649   7.455  15.893  0.00  0.00    +0.000 C 
BRANCH  18  19
ATOM     19  N   UNL     1      51.331   6.268  16.352  0.00  0.00    +0.000 N 
ATOM     20  C   UNL     1      51.733   6.135  17.663  0.00  0.00    +0.000 C 
ATOM     21  O   UNL     1      51.550   7.012  18.501  0.00  0.00    +0.000 OA
ATOM     22  H   UNL     1      51.663   5.564  15.699  0.00  0.00    +0.000 HD
BRANCH  20  23
ATOM     23  C   UNL     1      52.394   4.846  17.970  0.00  0.00    +0.000 A 
ATOM     24  N   UNL     1      53.663   4.814  18.456  0.00  0.00    +0.000 NA
ATOM     25  N   UNL     1      53.944   3.498  18.568  0.00  0.00    +0.000 N 
ATOM     26  C   UNL     1      52.916   2.691  18.190  0.00  0.00    +0.000 A 
ATOM     27  N   UNL     1      52.936   1.336  18.201  0.00  0.00    +0.000 NA
ATOM     28  C   UNL     1      51.828   0.818  17.767  0.00  0.00    +0.000 A 
ATOM     29  N   UNL     1      50.731   1.541  17.341  0.00  0.00    +0.000 N 
ATOM     30  C   UNL     1      50.668   2.926  17.359  0.00  0.00    +0.000 A 
ATOM     31  O   UNL     1      49.647   3.517  17.043  0.00  0.00    +0.000 OA
ATOM     32  C   UNL     1      51.895   3.529  17.807  0.00  0.00    +0.000 A 
ATOM     33  H   UNL     1      54.853   3.211  18.909  0.00  0.00    +0.000 HD
ATOM     34  H   UNL     1      49.891   1.072  17.031  0.00  0.00    +0.000 HD
ENDBRANCH  20  23
ENDBRANCH  18  19
ENDBRANCH   4  18
TORSDOF 6
ENDMDL
MODEL 7
REMARK VINA RESULT:    -6.590      2.497      3.770
REMARK INTER + INTRA:          -9.592
REMARK INTER:                  -8.574
REMARK INTRA:                  -1.018
REMARK UNBOUND:                -0.691
REMARK  Name = 
REMARK  6 active torsions:
REMARK  status: ('A' for Active; 'I' for Inactive)
REMARK    1  A    between atoms: C_2  and  C_25
REMARK    2  A    between atoms: N_3  and  C_4
REMARK    3  A    between atoms: C_4  and  C_5
REMARK    4  A    between atoms: C_8  and  C_9
REMARK    5  A    between atoms: C_9  and  N_10
REMARK    6  A    between atoms: C_11  and  C_13
REMARK                            x       y       z     vdW  Elec       q    Type
REMARK                         _______ _______ _______ _____ _____    ______ ____
ROOT
ATOM      1  C   UNL     1      46.649   7.837  12.380  0.00  0.00    +0.000 A 
ATOM      2  C   UNL     1      46.699   8.589  13.562  0.00  0.00    +0.000 A 
ATOM      3  C   UNL     1      47.887   8.684  14.303  0.00  0.00    +0.000 A 
ATOM      4  C   UNL     1      49.055   8.036  13.872  0.00  0.00    +0.000 A 
ATOM      5  C   UNL     1      48.999   7.285  12.691  0.00  0.00    +0.000 A 
ATOM      6  C   UNL     1      47.815   7.194  11.949  0.00  0.00    +0.000 A 
ENDROOT
BRANCH   1   7
ATOM      7  C   UNL     1      45.364   7.696  11.604  0.00  0.00    +0.000 C 
BRANCH   7  10
ATOM      8  O   UNL     1      44.169   5.253  12.227  0.00  0.00    +0.000 OA
ATOM      9  C   UNL     1      44.709   5.384  11.131  0.00  0.00    +0.000 C 
ATOM     10  N   UNL     1      45.343   6.546  10.735  0.00  0.00    +0.000 N 
ATOM     11  H   UNL     1      45.814   6.568   9.836  0.00  0.00    +0.000 HD
BRANCH   9  12
ATOM     12  C   UNL     1      44.701   4.263  10.148  0.00  0.00    +0.000 A 
ATOM     13  C   UNL     1      45.288   4.415   8.902  0.00  0.00    +0.000 A 
ATOM     14  C   UNL     1      45.269   3.333   8.031  0.00  0.00    +0.000 A 
ATOM     15  C   UNL     1      44.657   2.168   8.455  0.00  0.00    +0.000 A 
ATOM     16  N   UNL     1      44.091   2.046   9.675  0.00  0.00    +0.000 NA
ATOM     17  N   UNL     1      44.113   3.106  10.538  0.00  0.00    +0.000 NA
ENDBRANCH   9  12
ENDBRANCH   7  10
ENDBRANCH   1   7
BRANCH   4  18
ATOM     18  C   UNL     1      50.357   8.146  14.631  0.00  0.00    +0.000 C 
BRANCH  18  19
ATOM     19  N   UNL     1      50.695   6.952  15.368  0.00  0.00    +0.000 N 
ATOM     20  C   UNL     1      50.279   6.772  16.670  0.00  0.00    +0.000 C 
ATOM     21  O   UNL     1      49.619   7.612  17.273  0.00  0.00    +0.000 OA
ATOM     22  H   UNL     1      51.365   6.280  15.006  0.00  0.00    +0.000 HD
BRANCH  20  23
ATOM     23  C   UNL     1      50.690   5.482  17.268  0.00  0.00    +0.000 A 
ATOM     24  N   UNL     1      49.772   4.651  17.828  0.00  0.00    +0.000 NA
ATOM     25  N   UNL     1      50.501   3.618  18.301  0.00  0.00    +0.000 N 
ATOM     26  C   UNL     1      51.834   3.742  18.060  0.00  0.00    +0.000 A 
ATOM     27  N   UNL     1      52.785   2.850  18.431  0.00  0.00    +0.000 NA
ATOM     28  C   UNL     1      53.981   3.229  18.094  0.00  0.00    +0.000 A 
ATOM     29  N   UNL     1      54.281   4.400  17.426  0.00  0.00    +0.000 N 
ATOM     30  C   UNL     1      53.324   5.308  16.999  0.00  0.00    +0.000 A 
ATOM     31  O   UNL     1      53.634   6.293  16.345  0.00  0.00    +0.000 OA
ATOM     32  C   UNL     1      51.991   4.930  17.386  0.00  0.00    +0.000 A 
ATOM     33  H   UNL     1      50.034   2.857  18.779  0.00  0.00    +0.000 HD
ATOM     34  H   UNL     1      55.234   4.625  17.179  0.00  0.00    +0.000 HD
ENDBRANCH  20  23
ENDBRANCH  18  19
ENDBRANCH   4  18
TORSDOF 6
ENDMDL
MODEL 8
REMARK VINA RESULT:    -6.352      5.595      8.093
REMARK INTER + INTRA:          -9.270
REMARK INTER:                  -8.366
REMARK INTRA:                  -0.904
REMARK UNBOUND:                -0.691
REMARK  Name = 
REMARK  6 active torsions:
REMARK  status: ('A' for Active; 'I' for Inactive)
REMARK    1  A    between atoms: C_2  and  C_25
REMARK    2  A    between atoms: N_3  and  C_4
REMARK    3  A    between atoms: C_4  and  C_5
REMARK    4  A    between atoms: C_8  and  C_9
REMARK    5  A    between atoms: C_9  and  N_10
REMARK    6  A    between atoms: C_11  and  C_13
REMARK                            x       y       z     vdW  Elec       q    Type
REMARK                         _______ _______ _______ _____ _____    ______ ____
ROOT
ATOM      1  C   UNL     1      48.215   8.498  13.105  0.00  0.00    +0.000 A 
ATOM      2  C   UNL     1      49.240   8.651  14.049  0.00  0.00    +0.000 A 
ATOM      3  C   UNL     1      50.587   8.605  13.662  0.00  0.00    +0.000 A 
ATOM      4  C   UNL     1      50.940   8.416  12.316  0.00  0.00    +0.000 A 
ATOM      5  C   UNL     1      49.912   8.263  11.377  0.00  0.00    +0.000 A 
ATOM      6  C   UNL     1      48.568   8.313  11.763  0.00  0.00    +0.000 A 
ENDROOT
BRANCH   1   7
ATOM      7  C   UNL     1      46.767   8.502  13.524  0.00  0.00    +0.000 C 
BRANCH   7  10
ATOM      8  O   UNL     1      44.754   7.943  11.675  0.00  0.00    +0.000 OA
ATOM      9  C   UNL     1      45.145   7.042  12.412  0.00  0.00    +0.000 C 
ATOM     10  N   UNL     1      46.123   7.221  13.370  0.00  0.00    +0.000 N 
ATOM     11  H   UNL     1      46.362   6.445  13.981  0.00  0.00    +0.000 HD
BRANCH   9  12
ATOM     12  C   UNL     1      44.569   5.672  12.298  0.00  0.00    +0.000 A 
ATOM     13  C   UNL     1      43.505   5.424  11.444  0.00  0.00    +0.000 A 
ATOM     14  C   UNL     1      43.018   4.125  11.362  0.00  0.00    +0.000 A 
ATOM     15  C   UNL     1      43.619   3.156  12.143  0.00  0.00    +0.000 A 
ATOM     16  N   UNL     1      44.654   3.423  12.968  0.00  0.00    +0.000 NA
ATOM     17  N   UNL     1      45.140   4.699  13.048  0.00  0.00    +0.000 NA
ENDBRANCH   9  12
ENDBRANCH   7  10
ENDBRANCH   1   7
BRANCH   4  18
ATOM     18  C   UNL     1      52.381   8.395  11.862  0.00  0.00    +0.000 C 
BRANCH  18  19
ATOM     19  N   UNL     1      52.553   7.907  10.515  0.00  0.00    +0.000 N 
ATOM     20  C   UNL     1      53.234   8.640   9.568  0.00  0.00    +0.000 C 
ATOM     21  O   UNL     1      53.715   9.743   9.809  0.00  0.00    +0.000 OA
ATOM     22  H   UNL     1      52.057   7.084  10.184  0.00  0.00    +0.000 HD
BRANCH  20  23
ATOM     23  C   UNL     1      53.340   7.981   8.247  0.00  0.00    +0.000 A 
ATOM     24  N   UNL     1      53.162   8.689   7.100  0.00  0.00    +0.000 NA
ATOM     25  N   UNL     1      53.283   7.770   6.118  0.00  0.00    +0.000 N 
ATOM     26  C   UNL     1      53.542   6.517   6.579  0.00  0.00    +0.000 A 
ATOM     27  N   UNL     1      53.704   5.414   5.808  0.00  0.00    +0.000 NA
ATOM     28  C   UNL     1      53.918   4.343   6.509  0.00  0.00    +0.000 A 
ATOM     29  N   UNL     1      53.984   4.301   7.888  0.00  0.00    +0.000 N 
ATOM     30  C   UNL     1      53.863   5.420   8.699  0.00  0.00    +0.000 A 
ATOM     31  O   UNL     1      54.005   5.341   9.910  0.00  0.00    +0.000 OA
ATOM     32  C   UNL     1      53.595   6.618   7.949  0.00  0.00    +0.000 A 
ATOM     33  H   UNL     1      53.180   8.058   5.153  0.00  0.00    +0.000 HD
ATOM     34  H   UNL     1      54.172   3.433   8.371  0.00  0.00    +0.000 HD
ENDBRANCH  20  23
ENDBRANCH  18  19
ENDBRANCH   4  18
TORSDOF 6
ENDMDL
MODEL 9
REMARK VINA RESULT:    -6.205      3.955      9.761
REMARK INTER + INTRA:          -9.072
REMARK INTER:                  -8.431
REMARK INTRA:                  -0.642
REMARK UNBOUND:                -0.691
REMARK  Name = 
REMARK  6 active torsions:
REMARK  status: ('A' for Active; 'I' for Inactive)
REMARK    1  A    between atoms: C_2  and  C_25
REMARK    2  A    between atoms: N_3  and  C_4
REMARK    3  A    between atoms: C_4  and  C_5
REMARK    4  A    between atoms: C_8  and  C_9
REMARK    5  A    between atoms: C_9  and  N_10
REMARK    6  A    between atoms: C_11  and  C_13
REMARK                            x       y       z     vdW  Elec       q    Type
REMARK                         _______ _______ _______ _____ _____    ______ ____
ROOT
ATOM      1  C   UNL     1      50.091   4.501  17.567  0.00  0.00    +0.000 A 
ATOM      2  C   UNL     1      49.488   5.625  16.987  0.00  0.00    +0.000 A 
ATOM      3  C   UNL     1      48.281   5.509  16.280  0.00  0.00    +0.000 A 
ATOM      4  C   UNL     1      47.646   4.265  16.147  0.00  0.00    +0.000 A 
ATOM      5  C   UNL     1      48.254   3.144  16.727  0.00  0.00    +0.000 A 
ATOM      6  C   UNL     1      49.455   3.261  17.437  0.00  0.00    +0.000 A 
ENDROOT
BRANCH   1   7
ATOM      7  C   UNL     1      51.410   4.614  18.289  0.00  0.00    +0.000 C 
BRANCH   7  10
ATOM      8  O   UNL     1      53.344   3.708  20.084  0.00  0.00    +0.000 OA
ATOM      9  C   UNL     1      53.205   3.115  19.017  0.00  0.00    +0.000 C 
ATOM     10  N   UNL     1      52.289   3.495  18.056  0.00  0.00    +0.000 N 
ATOM     11  H   UNL     1      52.262   2.991  17.174  0.00  0.00    +0.000 HD
BRANCH   9  12
ATOM     12  C   UNL     1      54.039   1.920  18.704  0.00  0.00    +0.000 A 
ATOM     13  C   UNL     1      54.466   1.679  17.408  0.00  0.00    +0.000 A 
ATOM     14  C   UNL     1      55.258   0.560  17.175  0.00  0.00    +0.000 A 
ATOM     15  C   UNL     1      55.566  -0.252  18.249  0.00  0.00    +0.000 A 
ATOM     16  N   UNL     1      55.137   0.005  19.504  0.00  0.00    +0.000 NA
ATOM     17  N   UNL     1      54.363   1.107  19.739  0.00  0.00    +0.000 NA
ENDBRANCH   9  12
ENDBRANCH   7  10
ENDBRANCH   1   7
BRANCH   4  18
ATOM     18  C   UNL     1      46.330   4.112  15.420  0.00  0.00    +0.000 C 
BRANCH  18  19
ATOM     19  N   UNL     1      46.409   4.430  14.014  0.00  0.00    +0.000 N 
ATOM     20  C   UNL     1      45.274   4.564  13.245  0.00  0.00    +0.000 C 
ATOM     21  O   UNL     1      44.146   4.407  13.701  0.00  0.00    +0.000 OA
ATOM     22  H   UNL     1      47.297   4.422  13.520  0.00  0.00    +0.000 HD
BRANCH  20  23
ATOM     23  C   UNL     1      45.534   4.918  11.831  0.00  0.00    +0.000 A 
ATOM     24  N   UNL     1      46.239   6.035  11.512  0.00  0.00    +0.000 NA
ATOM     25  N   UNL     1      46.236   6.058  10.162  0.00  0.00    +0.000 N 
ATOM     26  C   UNL     1      45.576   5.007   9.605  0.00  0.00    +0.000 A 
ATOM     27  N   UNL     1      45.421   4.792   8.275  0.00  0.00    +0.000 NA
ATOM     28  C   UNL     1      44.728   3.725   8.021  0.00  0.00    +0.000 A 
ATOM     29  N   UNL     1      44.200   2.878   8.976  0.00  0.00    +0.000 N 
ATOM     30  C   UNL     1      44.379   3.051  10.340  0.00  0.00    +0.000 A 
ATOM     31  O   UNL     1      43.955   2.232  11.142  0.00  0.00    +0.000 OA
ATOM     32  C   UNL     1      45.118   4.245  10.653  0.00  0.00    +0.000 A 
ATOM     33  H   UNL     1      46.701   6.815   9.676  0.00  0.00    +0.000 HD
ATOM     34  H   UNL     1      43.684   2.052   8.707  0.00  0.00    +0.000 HD
ENDBRANCH  20  23
ENDBRANCH  18  19
ENDBRANCH   4  18
TORSDOF 6
ENDMDL
