MODEL 1
REMARK VINA RESULT:    -8.396      0.000      0.000
REMARK INTER + INTRA:         -12.137
REMARK INTER:                 -11.341
REMARK INTRA:                  -0.796
REMARK UNBOUND:                -0.796
REMARK  Name = 
REMARK  6 active torsions:
REMARK  status: ('A' for Active; 'I' for Inactive)
REMARK    1  A    between atoms: C_2  and  C_19
REMARK    2  A    between atoms: N_3  and  C_4
REMARK    3  A    between atoms: C_4  and  C_5
REMARK    4  A    between atoms: C_8  and  C_9
REMARK    5  A    between atoms: C_9  and  O_10
REMARK    6  A    between atoms: O_10  and  C_11
REMARK                            x       y       z     vdW  Elec       q    Type
REMARK                         _______ _______ _______ _____ _____    ______ ____
ROOT
ATOM      1  O   UNL     1      49.034   6.563  13.178  0.00  0.00    +0.000 OA
ATOM      2  C   UNL     1      48.294   6.565  14.158  0.00  0.00    +0.000 C 
ATOM      3  N   UNL     1      46.951   6.820  14.064  0.00  0.00    +0.000 N 
ATOM      4  H   UNL     1      46.417   6.981  14.912  0.00  0.00    +0.000 HD
ENDROOT
BRANCH   2   5
ATOM      5  C   UNL     1      48.801   6.239  15.498  0.00  0.00    +0.000 A 
ATOM      6  C   UNL     1      49.735   7.070  16.100  0.00  0.00    +0.000 A 
ATOM      7  S   UNL     1      50.223   6.541  17.647  0.00  0.00    +0.000 S 
ATOM      8  C   UNL     1      49.167   5.208  17.586  0.00  0.00    +0.000 A 
ATOM      9  N   UNL     1      49.062   4.350  18.635  0.00  0.00    +0.000 NA
ATOM     10  C   UNL     1      48.193   3.410  18.473  0.00  0.00    +0.000 A 
ATOM     11  N   UNL     1      47.427   3.242  17.348  0.00  0.00    +0.000 N 
ATOM     12  C   UNL     1      47.556   4.033  16.231  0.00  0.00    +0.000 A 
ATOM     13  O   UNL     1      46.958   3.773  15.191  0.00  0.00    +0.000 OA
ATOM     14  C   UNL     1      48.479   5.145  16.386  0.00  0.00    +0.000 A 
ATOM     15  H   UNL     1      46.787   2.467  17.270  0.00  0.00    +0.000 HD
ENDBRANCH   2   5
BRANCH   3  16
ATOM     16  C   UNL     1      46.319   7.199  12.825  0.00  0.00    +0.000 C 
BRANCH  16  17
ATOM     17  C   UNL     1      45.827   6.001  12.071  0.00  0.00    +0.000 A 
ATOM     18  C   UNL     1      45.499   4.814  12.727  0.00  0.00    +0.000 A 
ATOM     19  C   UNL     1      45.028   3.728  11.994  0.00  0.00    +0.000 A 
ATOM     20  C   UNL     1      44.919   3.841  10.609  0.00  0.00    +0.000 A 
ATOM     21  N   UNL     1      45.258   4.977   9.948  0.00  0.00    +0.000 NA
ATOM     22  C   UNL     1      45.702   6.020  10.687  0.00  0.00    +0.000 A 
BRANCH  20  23
ATOM     23  C   UNL     1      44.392   2.684   9.792  0.00  0.00    +0.000 C 
BRANCH  23  24
ATOM     24  O   UNL     1      44.620   2.955   8.411  0.00  0.00    +0.000 OA
BRANCH  24  25
ATOM     25  C   UNL     1      45.778   2.379   7.938  0.00  0.00    +0.000 A 
ATOM     26  N   UNL     1      46.026   1.091   8.183  0.00  0.00    +0.000 NA
ATOM     27  C   UNL     1      47.157   0.645   7.643  0.00  0.00    +0.000 A 
ATOM     28  N   UNL     1      48.009   1.355   6.909  0.00  0.00    +0.000 NA
ATOM     29  C   UNL     1      47.645   2.625   6.740  0.00  0.00    +0.000 A 
ATOM     30  N   UNL     1      46.547   3.195   7.225  0.00  0.00    +0.000 NA
ENDBRANCH  24  25
ENDBRANCH  23  24
ENDBRANCH  20  23
ENDBRANCH  16  17
ENDBRANCH   3  16
TORSDOF 6
ENDMDL
MODEL 2
REMARK VINA RESULT:    -7.528      2.067      2.706
REMARK INTER + INTRA:         -10.964
REMARK INTER:                 -10.340
REMARK INTRA:                  -0.624
REMARK UNBOUND:                -0.796
REMARK  Name = 
REMARK  6 active torsions:
REMARK  status: ('A' for Active; 'I' for Inactive)
REMARK    1  A    between atoms: C_2  and  C_19
REMARK    2  A    between atoms: N_3  and  C_4
REMARK    3  A    between atoms: C_4  and  C_5
REMARK    4  A    between atoms: C_8  and  C_9
REMARK    5  A    between atoms: C_9  and  O_10
REMARK    6  A    between atoms: O_10  and  C_11
REMARK                            x       y       z     vdW  Elec       q    Type
REMARK                         _______ _______ _______ _____ _____    ______ ____
ROOT
ATOM      1  O   UNL     1      49.756   6.725  15.330  0.00  0.00    +0.000 OA
ATOM      2  C   UNL     1      48.707   6.218  15.722  0.00  0.00    +0.000 C 
ATOM      3  N   UNL     1      47.598   6.120  14.924  0.00  0.00    +0.000 N 
ATOM      4  H   UNL     1      46.711   5.855  15.340  0.00  0.00    +0.000 HD
ENDROOT
BRANCH   2   5
ATOM      5  C   UNL     1      48.596   5.634  17.065  0.00  0.00    +0.000 A 
ATOM      6  C   UNL     1      48.804   4.274  17.242  0.00  0.00    +0.000 A 
ATOM      7  S   UNL     1      48.629   3.760  18.859  0.00  0.00    +0.000 S 
ATOM      8  C   UNL     1      48.316   5.347  19.388  0.00  0.00    +0.000 A 
ATOM      9  N   UNL     1      48.112   5.619  20.704  0.00  0.00    +0.000 NA
ATOM     10  C   UNL     1      47.930   6.868  20.971  0.00  0.00    +0.000 A 
ATOM     11  N   UNL     1      47.920   7.872  20.036  0.00  0.00    +0.000 N 
ATOM     12  C   UNL     1      48.038   7.638  18.687  0.00  0.00    +0.000 A 
ATOM     13  O   UNL     1      47.886   8.536  17.865  0.00  0.00    +0.000 OA
ATOM     14  C   UNL     1      48.308   6.252  18.339  0.00  0.00    +0.000 A 
ATOM     15  H   UNL     1      47.740   8.827  20.306  0.00  0.00    +0.000 HD
ENDBRANCH   2   5
BRANCH   3  16
ATOM     16  C   UNL     1      47.542   6.685  13.600  0.00  0.00    +0.000 C 
BRANCH  16  17
ATOM     17  C   UNL     1      46.637   5.897  12.703  0.00  0.00    +0.000 A 
ATOM     18  C   UNL     1      46.237   6.390  11.461  0.00  0.00    +0.000 A 
ATOM     19  C   UNL     1      45.409   5.621  10.646  0.00  0.00    +0.000 A 
ATOM     20  C   UNL     1      44.974   4.379  11.105  0.00  0.00    +0.000 A 
ATOM     21  N   UNL     1      45.328   3.892  12.321  0.00  0.00    +0.000 NA
ATOM     22  C   UNL     1      46.142   4.656  13.085  0.00  0.00    +0.000 A 
BRANCH  20  23
ATOM     23  C   UNL     1      44.090   3.516  10.233  0.00  0.00    +0.000 C 
BRANCH  23  24
ATOM     24  O   UNL     1      44.256   3.914   8.874  0.00  0.00    +0.000 OA
BRANCH  24  25
ATOM     25  C   UNL     1      45.301   3.268   8.252  0.00  0.00    +0.000 A 
ATOM     26  N   UNL     1      46.101   3.943   7.425  0.00  0.00    +0.000 NA
ATOM     27  C   UNL     1      47.093   3.217   6.918  0.00  0.00    +0.000 A 
ATOM     28  N   UNL     1      47.334   1.934   7.170  0.00  0.00    +0.000 NA
ATOM     29  C   UNL     1      46.464   1.378   8.010  0.00  0.00    +0.000 A 
ATOM     30  N   UNL     1      45.432   1.987   8.584  0.00  0.00    +0.000 NA
ENDBRANCH  24  25
ENDBRANCH  23  24
ENDBRANCH  20  23
ENDBRANCH  16  17
ENDBRANCH   3  16
TORSDOF 6
ENDMDL
MODEL 3
REMARK VINA RESULT:    -7.104      1.918      2.775
REMARK INTER + INTRA:         -10.392
REMARK INTER:                  -9.885
REMARK INTRA:                  -0.507
REMARK UNBOUND:                -0.796
REMARK  Name = 
REMARK  6 active torsions:
REMARK  status: ('A' for Active; 'I' for Inactive)
REMARK    1  A    between atoms: C_2  and  C_19
REMARK    2  A    between atoms: N_3  and  C_4
REMARK    3  A    between atoms: C_4  and  C_5
REMARK    4  A    between atoms: C_8  and  C_9
REMARK    5  A    between atoms: C_9  and  O_10
REMARK    6  A    between atoms: O_10  and  C_11
REMARK                            x       y       z     vdW  Elec       q    Type
REMARK                         _______ _______ _______ _____ _____    ______ ____
ROOT
ATOM      1  O   UNL     1      49.021   8.065  15.660  0.00  0.00    +0.000 OA
ATOM      2  C   UNL     1      48.712   6.876  15.643  0.00  0.00    +0.000 C 
ATOM      3  N   UNL     1      47.968   6.326  14.632  0.00  0.00    +0.000 N 
ATOM      4  H   UNL     1      47.594   5.389  14.746  0.00  0.00    +0.000 HD
ENDROOT
BRANCH   2   5
ATOM      5  C   UNL     1      49.170   5.953  16.689  0.00  0.00    +0.000 A 
ATOM      6  C   UNL     1      48.240   5.236  17.429  0.00  0.00    +0.000 A 
ATOM      7  S   UNL     1      48.940   4.219  18.606  0.00  0.00    +0.000 S 
ATOM      8  C   UNL     1      50.514   4.666  18.136  0.00  0.00    +0.000 A 
ATOM      9  N   UNL     1      51.605   4.116  18.733  0.00  0.00    +0.000 NA
ATOM     10  C   UNL     1      52.734   4.511  18.251  0.00  0.00    +0.000 A 
ATOM     11  N   UNL     1      52.873   5.419  17.232  0.00  0.00    +0.000 N 
ATOM     12  C   UNL     1      51.805   6.063  16.655  0.00  0.00    +0.000 A 
ATOM     13  O   UNL     1      51.966   6.971  15.845  0.00  0.00    +0.000 OA
ATOM     14  C   UNL     1      50.505   5.607  17.121  0.00  0.00    +0.000 A 
ATOM     15  H   UNL     1      53.787   5.711  16.921  0.00  0.00    +0.000 HD
ENDBRANCH   2   5
BRANCH   3  16
ATOM     16  C   UNL     1      47.411   7.114  13.562  0.00  0.00    +0.000 C 
BRANCH  16  17
ATOM     17  C   UNL     1      46.581   6.276  12.637  0.00  0.00    +0.000 A 
ATOM     18  C   UNL     1      46.499   6.564  11.275  0.00  0.00    +0.000 A 
ATOM     19  C   UNL     1      45.731   5.752  10.442  0.00  0.00    +0.000 A 
ATOM     20  C   UNL     1      45.036   4.679  10.998  0.00  0.00    +0.000 A 
ATOM     21  N   UNL     1      45.080   4.398  12.325  0.00  0.00    +0.000 NA
ATOM     22  C   UNL     1      45.843   5.197  13.106  0.00  0.00    +0.000 A 
BRANCH  20  23
ATOM     23  C   UNL     1      44.211   3.771  10.114  0.00  0.00    +0.000 C 
BRANCH  23  24
ATOM     24  O   UNL     1      44.455   4.111   8.751  0.00  0.00    +0.000 OA
BRANCH  24  25
ATOM     25  C   UNL     1      45.423   3.322   8.170  0.00  0.00    +0.000 A 
ATOM     26  N   UNL     1      46.268   3.853   7.285  0.00  0.00    +0.000 NA
ATOM     27  C   UNL     1      47.177   2.998   6.824  0.00  0.00    +0.000 A 
ATOM     28  N   UNL     1      47.300   1.720   7.172  0.00  0.00    +0.000 NA
ATOM     29  C   UNL     1      46.395   1.316   8.061  0.00  0.00    +0.000 A 
ATOM     30  N   UNL     1      45.437   2.064   8.598  0.00  0.00    +0.000 NA
ENDBRANCH  24  25
ENDBRANCH  23  24
ENDBRANCH  20  23
ENDBRANCH  16  17
ENDBRANCH   3  16
TORSDOF 6
ENDMDL
MODEL 4
REMARK VINA RESULT:    -7.077      3.539      8.038
REMARK INTER + INTRA:         -10.355
REMARK INTER:                  -9.431
REMARK INTRA:                  -0.925
REMARK UNBOUND:                -0.796
REMARK  Name = 
REMARK  6 active torsions:
REMARK  status: ('A' for Active; 'I' for Inactive)
REMARK    1  A    between atoms: C_2  and  C_19
REMARK    2  A    between atoms: N_3  and  C_4
REMARK    3  A    between atoms: C_4  and  C_5
REMARK    4  A    between atoms: C_8  and  C_9
REMARK    5  A    between atoms: C_9  and  O_10
REMARK    6  A    between atoms: O_10  and  C_11
REMARK                            x       y       z     vdW  Elec       q    Type
REMARK                         _______ _______ _______ _____ _____    ______ ____
ROOT
ATOM      1  O   UNL     1      45.642   7.883  11.745  0.00  0.00    +0.000 OA
ATOM      2  C   UNL     1      46.286   6.879  11.453  0.00  0.00    +0.000 C 
ATOM      3  N   UNL     1      47.619   6.751  11.745  0.00  0.00    +0.000 N 
ATOM      4  H   UNL     1      48.143   5.985  11.335  0.00  0.00    +0.000 HD
ENDROOT
BRANCH   2   5
ATOM      5  C   UNL     1      45.646   5.722  10.813  0.00  0.00    +0.000 A 
ATOM      6  C   UNL     1      45.828   5.499   9.455  0.00  0.00    +0.000 A 
ATOM      7  S   UNL     1      45.011   4.120   8.873  0.00  0.00    +0.000 S 
ATOM      8  C   UNL     1      44.423   3.745  10.425  0.00  0.00    +0.000 A 
ATOM      9  N   UNL     1      43.666   2.635  10.637  0.00  0.00    +0.000 NA
ATOM     10  C   UNL     1      43.325   2.447  11.866  0.00  0.00    +0.000 A 
ATOM     11  N   UNL     1      43.660   3.279  12.905  0.00  0.00    +0.000 N 
ATOM     12  C   UNL     1      44.351   4.453  12.728  0.00  0.00    +0.000 A 
ATOM     13  O   UNL     1      44.515   5.244  13.652  0.00  0.00    +0.000 OA
ATOM     14  C   UNL     1      44.813   4.680  11.369  0.00  0.00    +0.000 A 
ATOM     15  H   UNL     1      43.334   3.093  13.841  0.00  0.00    +0.000 HD
ENDBRANCH   2   5
BRANCH   3  16
ATOM     16  C   UNL     1      48.390   7.817  12.330  0.00  0.00    +0.000 C 
BRANCH  16  17
ATOM     17  C   UNL     1      48.987   7.408  13.642  0.00  0.00    +0.000 A 
ATOM     18  C   UNL     1      50.275   7.801  14.007  0.00  0.00    +0.000 A 
ATOM     19  C   UNL     1      50.791   7.416  15.242  0.00  0.00    +0.000 A 
ATOM     20  C   UNL     1      50.014   6.619  16.081  0.00  0.00    +0.000 A 
ATOM     21  N   UNL     1      48.769   6.203  15.735  0.00  0.00    +0.000 NA
ATOM     22  C   UNL     1      48.291   6.602  14.534  0.00  0.00    +0.000 A 
BRANCH  20  23
ATOM     23  C   UNL     1      50.541   6.203  17.436  0.00  0.00    +0.000 C 
BRANCH  23  24
ATOM     24  O   UNL     1      49.846   5.033  17.860  0.00  0.00    +0.000 OA
BRANCH  24  25
ATOM     25  C   UNL     1      50.593   3.886  17.716  0.00  0.00    +0.000 A 
ATOM     26  N   UNL     1      51.846   3.848  18.174  0.00  0.00    +0.000 NA
ATOM     27  C   UNL     1      52.449   2.675  18.006  0.00  0.00    +0.000 A 
ATOM     28  N   UNL     1      51.915   1.591  17.449  0.00  0.00    +0.000 NA
ATOM     29  C   UNL     1      50.662   1.762  17.033  0.00  0.00    +0.000 A 
ATOM     30  N   UNL     1      49.948   2.878  17.138  0.00  0.00    +0.000 NA
ENDBRANCH  24  25
ENDBRANCH  23  24
ENDBRANCH  20  23
ENDBRANCH  16  17
ENDBRANCH   3  16
TORSDOF 6
ENDMDL
MODEL 5
REMARK VINA RESULT:    -7.028      1.704      2.355
REMARK INTER + INTRA:         -10.289
REMARK INTER:                  -9.301
REMARK INTRA:                  -0.988
REMARK UNBOUND:                -0.796
REMARK  Name = 
REMARK  6 active torsions:
REMARK  status: ('A' for Active; 'I' for Inactive)
REMARK    1  A    between atoms: C_2  and  C_19
REMARK    2  A    between atoms: N_3  and  C_4
REMARK    3  A    between atoms: C_4  and  C_5
REMARK    4  A    between atoms: C_8  and  C_9
REMARK    5  A    between atoms: C_9  and  O_10
REMARK    6  A    between atoms: O_10  and  C_11
REMARK                            x       y       z     vdW  Elec       q    Type
REMARK                         _______ _______ _______ _____ _____    ______ ____
ROOT
ATOM      1  O   UNL     1      49.980   8.464  14.927  0.00  0.00    +0.000 OA
ATOM      2  C   UNL     1      49.000   8.148  15.598  0.00  0.00    +0.000 C 
ATOM      3  N   UNL     1      47.745   8.044  15.059  0.00  0.00    +0.000 N 
ATOM      4  H   UNL     1      46.947   7.951  15.679  0.00  0.00    +0.000 HD
ENDROOT
BRANCH   2   5
ATOM      5  C   UNL     1      49.128   7.809  17.021  0.00  0.00    +0.000 A 
ATOM      6  C   UNL     1      49.441   8.802  17.939  0.00  0.00    +0.000 A 
ATOM      7  S   UNL     1      49.558   8.237  19.544  0.00  0.00    +0.000 S 
ATOM      8  C   UNL     1      49.147   6.653  19.075  0.00  0.00    +0.000 A 
ATOM      9  N   UNL     1      49.030   5.660  19.996  0.00  0.00    +0.000 NA
ATOM     10  C   UNL     1      48.671   4.520  19.510  0.00  0.00    +0.000 A 
ATOM     11  N   UNL     1      48.430   4.280  18.181  0.00  0.00    +0.000 N 
ATOM     12  C   UNL     1      48.614   5.229  17.204  0.00  0.00    +0.000 A 
ATOM     13  O   UNL     1      48.527   4.947  16.013  0.00  0.00    +0.000 OA
ATOM     14  C   UNL     1      48.960   6.548  17.707  0.00  0.00    +0.000 A 
ATOM     15  H   UNL     1      48.181   3.356  17.860  0.00  0.00    +0.000 HD
ENDBRANCH   2   5
BRANCH   3  16
ATOM     16  C   UNL     1      47.458   8.388  13.689  0.00  0.00    +0.000 C 
BRANCH  16  17
ATOM     17  C   UNL     1      46.587   7.359  13.036  0.00  0.00    +0.000 A 
ATOM     18  C   UNL     1      45.430   7.721  12.344  0.00  0.00    +0.000 A 
ATOM     19  C   UNL     1      44.654   6.739  11.733  0.00  0.00    +0.000 A 
ATOM     20  C   UNL     1      45.038   5.404  11.851  0.00  0.00    +0.000 A 
ATOM     21  N   UNL     1      46.143   5.026  12.542  0.00  0.00    +0.000 NA
ATOM     22  C   UNL     1      46.884   6.004  13.114  0.00  0.00    +0.000 A 
BRANCH  20  23
ATOM     23  C   UNL     1      44.224   4.319  11.182  0.00  0.00    +0.000 C 
BRANCH  23  24
ATOM     24  O   UNL     1      44.104   4.625   9.795  0.00  0.00    +0.000 OA
BRANCH  24  25
ATOM     25  C   UNL     1      44.908   3.835   9.003  0.00  0.00    +0.000 A 
ATOM     26  N   UNL     1      45.616   4.388   8.017  0.00  0.00    +0.000 NA
ATOM     27  C   UNL     1      46.380   3.528   7.350  0.00  0.00    +0.000 A 
ATOM     28  N   UNL     1      46.486   2.224   7.590  0.00  0.00    +0.000 NA
ATOM     29  C   UNL     1      45.727   1.799   8.598  0.00  0.00    +0.000 A 
ATOM     30  N   UNL     1      44.921   2.550   9.341  0.00  0.00    +0.000 NA
ENDBRANCH  24  25
ENDBRANCH  23  24
ENDBRANCH  20  23
ENDBRANCH  16  17
ENDBRANCH   3  16
TORSDOF 6
ENDMDL
MODEL 6
REMARK VINA RESULT:    -6.801      3.442      7.904
REMARK INTER + INTRA:          -9.983
REMARK INTER:                  -9.107
REMARK INTRA:                  -0.876
REMARK UNBOUND:                -0.796
REMARK  Name = 
REMARK  6 active torsions:
REMARK  status: ('A' for Active; 'I' for Inactive)
REMARK    1  A    between atoms: C_2  and  C_19
REMARK    2  A    between atoms: N_3  and  C_4
REMARK    3  A    between atoms: C_4  and  C_5
REMARK    4  A    between atoms: C_8  and  C_9
REMARK    5  A    between atoms: C_9  and  O_10
REMARK    6  A    between atoms: O_10  and  C_11
REMARK                            x       y       z     vdW  Elec       q    Type
REMARK                         _______ _______ _______ _____ _____    ______ ____
ROOT
ATOM      1  O   UNL     1      44.936   7.949  11.642  0.00  0.00    +0.000 OA
ATOM      2  C   UNL     1      45.747   7.071  11.359  0.00  0.00    +0.000 C 
ATOM      3  N   UNL     1      47.083   7.188  11.643  0.00  0.00    +0.000 N 
ATOM      4  H   UNL     1      47.734   6.522  11.239  0.00  0.00    +0.000 HD
ENDROOT
BRANCH   2   5
ATOM      5  C   UNL     1      45.321   5.808  10.742  0.00  0.00    +0.000 A 
ATOM      6  C   UNL     1      45.656   5.542   9.421  0.00  0.00    +0.000 A 
ATOM      7  S   UNL     1      45.077   4.039   8.859  0.00  0.00    +0.000 S 
ATOM      8  C   UNL     1      44.399   3.671  10.376  0.00  0.00    +0.000 A 
ATOM      9  N   UNL     1      43.772   2.483  10.591  0.00  0.00    +0.000 NA
ATOM     10  C   UNL     1      43.343   2.316  11.797  0.00  0.00    +0.000 A 
ATOM     11  N   UNL     1      43.473   3.237  12.805  0.00  0.00    +0.000 N 
ATOM     12  C   UNL     1      44.024   4.481  12.615  0.00  0.00    +0.000 A 
ATOM     13  O   UNL     1      44.000   5.334  13.498  0.00  0.00    +0.000 OA
ATOM     14  C   UNL     1      44.578   4.696  11.289  0.00  0.00    +0.000 A 
ATOM     15  H   UNL     1      43.087   3.059  13.720  0.00  0.00    +0.000 HD
ENDBRANCH   2   5
BRANCH   3  16
ATOM     16  C   UNL     1      47.654   8.384  12.206  0.00  0.00    +0.000 C 
BRANCH  16  17
ATOM     17  C   UNL     1      48.320   8.109  13.520  0.00  0.00    +0.000 A 
ATOM     18  C   UNL     1      47.921   8.761  14.687  0.00  0.00    +0.000 A 
ATOM     19  C   UNL     1      48.551   8.467  15.894  0.00  0.00    +0.000 A 
ATOM     20  C   UNL     1      49.592   7.540  15.904  0.00  0.00    +0.000 A 
ATOM     21  N   UNL     1      50.015   6.914  14.776  0.00  0.00    +0.000 NA
ATOM     22  C   UNL     1      49.376   7.212  13.622  0.00  0.00    +0.000 A 
BRANCH  20  23
ATOM     23  C   UNL     1      50.281   7.187  17.203  0.00  0.00    +0.000 C 
BRANCH  23  24
ATOM     24  O   UNL     1      50.427   5.771  17.276  0.00  0.00    +0.000 OA
BRANCH  24  25
ATOM     25  C   UNL     1      49.221   5.117  17.400  0.00  0.00    +0.000 A 
ATOM     26  N   UNL     1      48.275   5.614  18.197  0.00  0.00    +0.000 NA
ATOM     27  C   UNL     1      47.146   4.911  18.203  0.00  0.00    +0.000 A 
ATOM     28  N   UNL     1      46.905   3.808  17.499  0.00  0.00    +0.000 NA
ATOM     29  C   UNL     1      47.930   3.417  16.745  0.00  0.00    +0.000 A 
ATOM     30  N   UNL     1      49.109   4.024  16.650  0.00  0.00    +0.000 NA
ENDBRANCH  24  25
ENDBRANCH  23  24
ENDBRANCH  20  23
ENDBRANCH  16  17
ENDBRANCH   3  16
TORSDOF 6
ENDMDL
MODEL 7
REMARK VINA RESULT:    -6.450      3.091      3.901
REMARK INTER + INTRA:          -9.509
REMARK INTER:                  -8.750
REMARK INTRA:                  -0.758
REMARK UNBOUND:                -0.796
REMARK  Name = 
REMARK  6 active torsions:
REMARK  status: ('A' for Active; 'I' for Inactive)
REMARK    1  A    between atoms: C_2  and  C_19
REMARK    2  A    between atoms: N_3  and  C_4
REMARK    3  A    between atoms: C_4  and  C_5
REMARK    4  A    between atoms: C_8  and  C_9
REMARK    5  A    between atoms: C_9  and  O_10
REMARK    6  A    between atoms: O_10  and  C_11
REMARK                            x       y       z     vdW  Elec       q    Type
REMARK                         _______ _______ _______ _____ _____    ______ ____
ROOT
ATOM      1  O   UNL     1      47.292   9.420  12.341  0.00  0.00    +0.000 OA
ATOM      2  C   UNL     1      48.107   8.526  12.552  0.00  0.00    +0.000 C 
ATOM      3  N   UNL     1      47.732   7.275  12.968  0.00  0.00    +0.000 N 
ATOM      4  H   UNL     1      48.443   6.628  13.292  0.00  0.00    +0.000 HD
ENDROOT
BRANCH   2   5
ATOM      5  C   UNL     1      49.542   8.730  12.316  0.00  0.00    +0.000 A 
ATOM      6  C   UNL     1      49.964   9.373  11.161  0.00  0.00    +0.000 A 
ATOM      7  S   UNL     1      51.659   9.519  11.040  0.00  0.00    +0.000 S 
ATOM      8  C   UNL     1      51.887   8.770  12.551  0.00  0.00    +0.000 A 
ATOM      9  N   UNL     1      53.133   8.613  13.073  0.00  0.00    +0.000 NA
ATOM     10  C   UNL     1      53.158   8.070  14.243  0.00  0.00    +0.000 A 
ATOM     11  N   UNL     1      52.048   7.656  14.935  0.00  0.00    +0.000 N 
ATOM     12  C   UNL     1      50.777   7.718  14.415  0.00  0.00    +0.000 A 
ATOM     13  O   UNL     1      49.822   7.213  14.997  0.00  0.00    +0.000 OA
ATOM     14  C   UNL     1      50.689   8.379  13.123  0.00  0.00    +0.000 A 
ATOM     15  H   UNL     1      52.137   7.208  15.835  0.00  0.00    +0.000 HD
ENDBRANCH   2   5
BRANCH   3  16
ATOM     16  C   UNL     1      46.367   6.940  13.282  0.00  0.00    +0.000 C 
BRANCH  16  17
ATOM     17  C   UNL     1      45.821   5.913  12.337  0.00  0.00    +0.000 A 
ATOM     18  C   UNL     1      45.615   4.593  12.739  0.00  0.00    +0.000 A 
ATOM     19  C   UNL     1      45.090   3.670  11.838  0.00  0.00    +0.000 A 
ATOM     20  C   UNL     1      44.804   4.082  10.537  0.00  0.00    +0.000 A 
ATOM     21  N   UNL     1      45.022   5.354  10.117  0.00  0.00    +0.000 NA
ATOM     22  C   UNL     1      45.522   6.231  11.018  0.00  0.00    +0.000 A 
BRANCH  20  23
ATOM     23  C   UNL     1      44.215   3.106   9.545  0.00  0.00    +0.000 C 
BRANCH  23  24
ATOM     24  O   UNL     1      45.082   1.979   9.438  0.00  0.00    +0.000 OA
BRANCH  24  25
ATOM     25  C   UNL     1      45.892   2.034   8.326  0.00  0.00    +0.000 A 
ATOM     26  N   UNL     1      46.678   0.998   8.025  0.00  0.00    +0.000 NA
ATOM     27  C   UNL     1      47.383   1.158   6.909  0.00  0.00    +0.000 A 
ATOM     28  N   UNL     1      47.356   2.222   6.110  0.00  0.00    +0.000 NA
ATOM     29  C   UNL     1      46.533   3.184   6.523  0.00  0.00    +0.000 A 
ATOM     30  N   UNL     1      45.777   3.151   7.615  0.00  0.00    +0.000 NA
ENDBRANCH  24  25
ENDBRANCH  23  24
ENDBRANCH  20  23
ENDBRANCH  16  17
ENDBRANCH   3  16
TORSDOF 6
ENDMDL
MODEL 8
REMARK VINA RESULT:    -6.437      2.875      8.437
REMARK INTER + INTRA:          -9.491
REMARK INTER:                  -8.794
REMARK INTRA:                  -0.698
REMARK UNBOUND:                -0.796
REMARK  Name = 
REMARK  6 active torsions:
REMARK  status: ('A' for Active; 'I' for Inactive)
REMARK    1  A    between atoms: C_2  and  C_19
REMARK    2  A    between atoms: N_3  and  C_4
REMARK    3  A    between atoms: C_4  and  C_5
REMARK    4  A    between atoms: C_8  and  C_9
REMARK    5  A    between atoms: C_9  and  O_10
REMARK    6  A    between atoms: O_10  and  C_11
REMARK                            x       y       z     vdW  Elec       q    Type
REMARK                         _______ _______ _______ _____ _____    ______ ____
ROOT
ATOM      1  O   UNL     1      44.352   7.536  11.465  0.00  0.00    +0.000 OA
ATOM      2  C   UNL     1      45.102   6.566  11.543  0.00  0.00    +0.000 C 
ATOM      3  N   UNL     1      46.411   6.681  11.934  0.00  0.00    +0.000 N 
ATOM      4  H   UNL     1      47.033   5.887  11.818  0.00  0.00    +0.000 HD
ENDROOT
BRANCH   2   5
ATOM      5  C   UNL     1      44.621   5.205  11.271  0.00  0.00    +0.000 A 
ATOM      6  C   UNL     1      43.809   4.565  12.197  0.00  0.00    +0.000 A 
ATOM      7  S   UNL     1      43.349   2.991  11.730  0.00  0.00    +0.000 S 
ATOM      8  C   UNL     1      44.179   3.127  10.251  0.00  0.00    +0.000 A 
ATOM      9  N   UNL     1      44.156   2.118   9.340  0.00  0.00    +0.000 NA
ATOM     10  C   UNL     1      44.790   2.371   8.245  0.00  0.00    +0.000 A 
ATOM     11  N   UNL     1      45.459   3.539   7.983  0.00  0.00    +0.000 N 
ATOM     12  C   UNL     1      45.581   4.553   8.903  0.00  0.00    +0.000 A 
ATOM     13  O   UNL     1      46.301   5.525   8.693  0.00  0.00    +0.000 OA
ATOM     14  C   UNL     1      44.831   4.343  10.131  0.00  0.00    +0.000 A 
ATOM     15  H   UNL     1      45.963   3.663   7.118  0.00  0.00    +0.000 HD
ENDBRANCH   2   5
BRANCH   3  16
ATOM     16  C   UNL     1      47.034   7.954  12.191  0.00  0.00    +0.000 C 
BRANCH  16  17
ATOM     17  C   UNL     1      47.919   7.899  13.399  0.00  0.00    +0.000 A 
ATOM     18  C   UNL     1      48.090   9.010  14.225  0.00  0.00    +0.000 A 
ATOM     19  C   UNL     1      48.906   8.917  15.349  0.00  0.00    +0.000 A 
ATOM     20  C   UNL     1      49.560   7.714  15.612  0.00  0.00    +0.000 A 
ATOM     21  N   UNL     1      49.430   6.628  14.807  0.00  0.00    +0.000 NA
ATOM     22  C   UNL     1      48.621   6.746  13.729  0.00  0.00    +0.000 A 
BRANCH  20  23
ATOM     23  C   UNL     1      50.437   7.579  16.836  0.00  0.00    +0.000 C 
BRANCH  23  24
ATOM     24  O   UNL     1      49.707   6.892  17.851  0.00  0.00    +0.000 OA
BRANCH  24  25
ATOM     25  C   UNL     1      49.812   5.523  17.749  0.00  0.00    +0.000 A 
ATOM     26  N   UNL     1      51.008   4.960  17.574  0.00  0.00    +0.000 NA
ATOM     27  C   UNL     1      50.981   3.632  17.528  0.00  0.00    +0.000 A 
ATOM     28  N   UNL     1      49.900   2.865  17.645  0.00  0.00    +0.000 NA
ATOM     29  C   UNL     1      48.771   3.549  17.815  0.00  0.00    +0.000 A 
ATOM     30  N   UNL     1      48.660   4.872  17.877  0.00  0.00    +0.000 NA
ENDBRANCH  24  25
ENDBRANCH  23  24
ENDBRANCH  20  23
ENDBRANCH  16  17
ENDBRANCH   3  16
TORSDOF 6
ENDMDL
MODEL 9
REMARK VINA RESULT:    -6.396      4.680      7.440
REMARK INTER + INTRA:          -9.436
REMARK INTER:                  -8.511
REMARK INTRA:                  -0.925
REMARK UNBOUND:                -0.796
REMARK  Name = 
REMARK  6 active torsions:
REMARK  status: ('A' for Active; 'I' for Inactive)
REMARK    1  A    between atoms: C_2  and  C_19
REMARK    2  A    between atoms: N_3  and  C_4
REMARK    3  A    between atoms: C_4  and  C_5
REMARK    4  A    between atoms: C_8  and  C_9
REMARK    5  A    between atoms: C_9  and  O_10
REMARK    6  A    between atoms: O_10  and  C_11
REMARK                            x       y       z     vdW  Elec       q    Type
REMARK                         _______ _______ _______ _____ _____    ______ ____
ROOT
ATOM      1  O   UNL     1      44.550   7.780  11.046  0.00  0.00    +0.000 OA
ATOM      2  C   UNL     1      45.103   6.888  11.684  0.00  0.00    +0.000 C 
ATOM      3  N   UNL     1      46.106   7.143  12.582  0.00  0.00    +0.000 N 
ATOM      4  H   UNL     1      46.647   6.368  12.953  0.00  0.00    +0.000 HD
ENDROOT
BRANCH   2   5
ATOM      5  C   UNL     1      44.682   5.487  11.558  0.00  0.00    +0.000 A 
ATOM      6  C   UNL     1      43.985   4.884  12.596  0.00  0.00    +0.000 A 
ATOM      7  S   UNL     1      43.581   3.255  12.292  0.00  0.00    +0.000 S 
ATOM      8  C   UNL     1      44.282   3.312  10.742  0.00  0.00    +0.000 A 
ATOM      9  N   UNL     1      44.246   2.232   9.917  0.00  0.00    +0.000 NA
ATOM     10  C   UNL     1      44.775   2.426   8.757  0.00  0.00    +0.000 A 
ATOM     11  N   UNL     1      45.353   3.603   8.351  0.00  0.00    +0.000 N 
ATOM     12  C   UNL     1      45.488   4.693   9.176  0.00  0.00    +0.000 A 
ATOM     13  O   UNL     1      46.131   5.680   8.833  0.00  0.00    +0.000 OA
ATOM     14  C   UNL     1      44.851   4.546  10.475  0.00  0.00    +0.000 A 
ATOM     15  H   UNL     1      45.779   3.681   7.440  0.00  0.00    +0.000 HD
ENDBRANCH   2   5
BRANCH   3  16
ATOM     16  C   UNL     1      46.654   8.461  12.779  0.00  0.00    +0.000 C 
BRANCH  16  17
ATOM     17  C   UNL     1      48.048   8.563  12.237  0.00  0.00    +0.000 A 
ATOM     18  C   UNL     1      48.829   7.426  12.023  0.00  0.00    +0.000 A 
ATOM     19  C   UNL     1      50.113   7.558  11.502  0.00  0.00    +0.000 A 
ATOM     20  C   UNL     1      50.604   8.834  11.228  0.00  0.00    +0.000 A 
ATOM     21  N   UNL     1      49.872   9.955  11.454  0.00  0.00    +0.000 NA
ATOM     22  C   UNL     1      48.624   9.794  11.951  0.00  0.00    +0.000 A 
BRANCH  20  23
ATOM     23  C   UNL     1      51.988   9.005  10.644  0.00  0.00    +0.000 C 
BRANCH  23  24
ATOM     24  O   UNL     1      52.492   7.723  10.275  0.00  0.00    +0.000 OA
BRANCH  24  25
ATOM     25  C   UNL     1      52.695   7.600   8.919  0.00  0.00    +0.000 A 
ATOM     26  N   UNL     1      52.778   8.693   8.158  0.00  0.00    +0.000 NA
ATOM     27  C   UNL     1      53.011   8.442   6.873  0.00  0.00    +0.000 A 
ATOM     28  N   UNL     1      53.165   7.240   6.323  0.00  0.00    +0.000 NA
ATOM     29  C   UNL     1      53.058   6.235   7.190  0.00  0.00    +0.000 A 
ATOM     30  N   UNL     1      52.826   6.347   8.493  0.00  0.00    +0.000 NA
ENDBRANCH  24  25
ENDBRANCH  23  24
ENDBRANCH  20  23
ENDBRANCH  16  17
ENDBRANCH   3  16
TORSDOF 6
ENDMDL
