MODEL 1
REMARK VINA RESULT:    -9.057      0.000      0.000
REMARK INTER + INTRA:         -13.487
REMARK INTER:                 -12.763
REMARK INTRA:                  -0.724
REMARK UNBOUND:                -0.724
REMARK  Name = 
REMARK  8 active torsions:
REMARK  status: ('A' for Active; 'I' for Inactive)
REMARK    1  A    between atoms: C_1  and  C_2
REMARK    2  A    between atoms: C_2  and  N_3
REMARK    3  A    between atoms: C_2  and  C_25
REMARK    4  A    between atoms: N_3  and  C_4
REMARK    5  A    between atoms: C_4  and  C_5
REMARK    6  A    between atoms: C_8  and  C_9
REMARK    7  A    between atoms: C_9  and  N_10
REMARK    8  A    between atoms: C_11  and  C_13
REMARK                            x       y       z     vdW  Elec       q    Type
REMARK                         _______ _______ _______ _____ _____    ______ ____
ROOT
ATOM      1  C   UNL     1      43.522   4.672  12.162  0.00  0.00    +0.000 C 
ATOM      2  C   UNL     1      44.171   3.342  12.601  0.00  0.00    +0.000 C 
ATOM      3  C   UNL     1      45.695   3.344  12.493  0.00  0.00    +0.000 C 
ATOM      4  C   UNL     1      46.332   4.517  13.253  0.00  0.00    +0.000 C 
ATOM      5  C   UNL     1      45.761   5.831  12.702  0.00  0.00    +0.000 C 
ATOM      6  C   UNL     1      44.232   5.894  12.776  0.00  0.00    +0.000 C 
ENDROOT
BRANCH   1   7
ATOM      7  C   UNL     1      43.437   4.815  10.627  0.00  0.00    +0.000 C 
BRANCH   7   8
ATOM      8  N   UNL     1      44.302   3.834   9.979  0.00  0.00    +0.000 NA
ATOM      9  H   UNL     1      43.736   3.048   9.652  0.00  0.00    +0.000 HD
BRANCH   8  11
ATOM     10  C   UNL     1      46.019   5.482   9.180  0.00  0.00    +0.000 C 
ATOM     11  C   UNL     1      45.045   4.356   8.816  0.00  0.00    +0.000 C 
BRANCH  11  12
ATOM     12  C   UNL     1      45.816   3.224   8.136  0.00  0.00    +0.000 A 
ATOM     13  C   UNL     1      46.648   3.487   7.046  0.00  0.00    +0.000 A 
ATOM     14  C   UNL     1      47.325   2.435   6.440  0.00  0.00    +0.000 A 
ATOM     15  C   UNL     1      47.162   1.149   6.936  0.00  0.00    +0.000 A 
ATOM     16  C   UNL     1      46.327   0.970   8.027  0.00  0.00    +0.000 A 
ATOM     17  N   UNL     1      45.654   1.971   8.636  0.00  0.00    +0.000 NA
ENDBRANCH  11  12
ENDBRANCH   8  11
ENDBRANCH   7   8
ENDBRANCH   1   7
BRANCH   4  18
ATOM     18  C   UNL     1      46.135   4.428  14.777  0.00  0.00    +0.000 C 
BRANCH  18  19
ATOM     19  N   UNL     1      47.360   4.623  15.519  0.00  0.00    +0.000 N 
ATOM     20  C   UNL     1      47.571   4.136  16.781  0.00  0.00    +0.000 C 
ATOM     21  O   UNL     1      46.681   3.582  17.419  0.00  0.00    +0.000 OA
ATOM     22  H   UNL     1      48.079   5.179  15.063  0.00  0.00    +0.000 HD
BRANCH  20  23
ATOM     23  C   UNL     1      48.937   4.262  17.321  0.00  0.00    +0.000 A 
ATOM     24  C   UNL     1      49.296   5.423  17.995  0.00  0.00    +0.000 A 
ATOM     25  S   UNL     1      50.862   5.371  18.668  0.00  0.00    +0.000 S 
ATOM     26  C   UNL     1      51.119   3.795  18.084  0.00  0.00    +0.000 A 
ATOM     27  N   UNL     1      52.268   3.125  18.373  0.00  0.00    +0.000 NA
ATOM     28  C   UNL     1      52.323   1.928  17.894  0.00  0.00    +0.000 A 
ATOM     29  N   UNL     1      51.345   1.349  17.129  0.00  0.00    +0.000 N 
ATOM     30  C   UNL     1      50.205   2.015  16.750  0.00  0.00    +0.000 A 
ATOM     31  O   UNL     1      49.414   1.511  15.958  0.00  0.00    +0.000 OA
ATOM     32  C   UNL     1      50.049   3.334  17.338  0.00  0.00    +0.000 A 
ATOM     33  H   UNL     1      51.471   0.426  16.741  0.00  0.00    +0.000 HD
ENDBRANCH  20  23
ENDBRANCH  18  19
ENDBRANCH   4  18
TORSDOF 7
ENDMDL
MODEL 2
REMARK VINA RESULT:    -8.266      2.100      2.904
REMARK INTER + INTRA:         -12.372
REMARK INTER:                 -11.057
REMARK INTRA:                  -1.315
REMARK UNBOUND:                -0.724
REMARK  Name = 
REMARK  8 active torsions:
REMARK  status: ('A' for Active; 'I' for Inactive)
REMARK    1  A    between atoms: C_1  and  C_2
REMARK    2  A    between atoms: C_2  and  N_3
REMARK    3  A    between atoms: C_2  and  C_25
REMARK    4  A    between atoms: N_3  and  C_4
REMARK    5  A    between atoms: C_4  and  C_5
REMARK    6  A    between atoms: C_8  and  C_9
REMARK    7  A    between atoms: C_9  and  N_10
REMARK    8  A    between atoms: C_11  and  C_13
REMARK                            x       y       z     vdW  Elec       q    Type
REMARK                         _______ _______ _______ _____ _____    ______ ____
ROOT
ATOM      1  C   UNL     1      45.374   5.112  10.710  0.00  0.00    +0.000 C 
ATOM      2  C   UNL     1      45.660   6.593  10.383  0.00  0.00    +0.000 C 
ATOM      3  C   UNL     1      45.004   7.570  11.355  0.00  0.00    +0.000 C 
ATOM      4  C   UNL     1      45.372   7.274  12.817  0.00  0.00    +0.000 C 
ATOM      5  C   UNL     1      44.954   5.836  13.150  0.00  0.00    +0.000 C 
ATOM      6  C   UNL     1      45.575   4.801  12.206  0.00  0.00    +0.000 C 
ENDROOT
BRANCH   1   7
ATOM      7  C   UNL     1      43.969   4.662  10.253  0.00  0.00    +0.000 C 
BRANCH   7   8
ATOM      8  N   UNL     1      44.070   3.834   9.054  0.00  0.00    +0.000 NA
ATOM      9  H   UNL     1      44.459   4.391   8.290  0.00  0.00    +0.000 HD
BRANCH   8  11
ATOM     10  C   UNL     1      44.130   1.337   9.308  0.00  0.00    +0.000 C 
ATOM     11  C   UNL     1      44.927   2.643   9.211  0.00  0.00    +0.000 C 
BRANCH  11  12
ATOM     12  C   UNL     1      45.911   2.548   8.045  0.00  0.00    +0.000 A 
ATOM     13  C   UNL     1      46.084   3.624   7.172  0.00  0.00    +0.000 A 
ATOM     14  C   UNL     1      46.976   3.502   6.113  0.00  0.00    +0.000 A 
ATOM     15  C   UNL     1      47.677   2.315   5.951  0.00  0.00    +0.000 A 
ATOM     16  C   UNL     1      47.458   1.296   6.865  0.00  0.00    +0.000 A 
ATOM     17  N   UNL     1      46.597   1.384   7.902  0.00  0.00    +0.000 NA
ENDBRANCH  11  12
ENDBRANCH   8  11
ENDBRANCH   7   8
ENDBRANCH   1   7
BRANCH   4  18
ATOM     18  C   UNL     1      46.864   7.497  13.122  0.00  0.00    +0.000 C 
BRANCH  18  19
ATOM     19  N   UNL     1      47.301   6.833  14.330  0.00  0.00    +0.000 N 
ATOM     20  C   UNL     1      48.616   6.663  14.672  0.00  0.00    +0.000 C 
ATOM     21  O   UNL     1      49.528   6.973  13.912  0.00  0.00    +0.000 OA
ATOM     22  H   UNL     1      46.568   6.460  14.928  0.00  0.00    +0.000 HD
BRANCH  20  23
ATOM     23  C   UNL     1      48.887   6.134  16.021  0.00  0.00    +0.000 A 
ATOM     24  C   UNL     1      49.659   6.882  16.901  0.00  0.00    +0.000 A 
ATOM     25  S   UNL     1      49.781   6.202  18.459  0.00  0.00    +0.000 S 
ATOM     26  C   UNL     1      48.806   4.881  18.016  0.00  0.00    +0.000 A 
ATOM     27  N   UNL     1      48.461   3.933  18.931  0.00  0.00    +0.000 NA
ATOM     28  C   UNL     1      47.695   3.001  18.472  0.00  0.00    +0.000 A 
ATOM     29  N   UNL     1      47.265   2.915  17.174  0.00  0.00    +0.000 N 
ATOM     30  C   UNL     1      47.651   3.806  16.202  0.00  0.00    +0.000 A 
ATOM     31  O   UNL     1      47.352   3.622  15.025  0.00  0.00    +0.000 OA
ATOM     32  C   UNL     1      48.438   4.926  16.683  0.00  0.00    +0.000 A 
ATOM     33  H   UNL     1      46.707   2.132  16.865  0.00  0.00    +0.000 HD
ENDBRANCH  20  23
ENDBRANCH  18  19
ENDBRANCH   4  18
TORSDOF 7
ENDMDL
MODEL 3
REMARK VINA RESULT:    -7.646      1.829      2.635
REMARK INTER + INTRA:         -11.499
REMARK INTER:                 -10.864
REMARK INTRA:                  -0.635
REMARK UNBOUND:                -0.724
REMARK  Name = 
REMARK  8 active torsions:
REMARK  status: ('A' for Active; 'I' for Inactive)
REMARK    1  A    between atoms: C_1  and  C_2
REMARK    2  A    between atoms: C_2  and  N_3
REMARK    3  A    between atoms: C_2  and  C_25
REMARK    4  A    between atoms: N_3  and  C_4
REMARK    5  A    between atoms: C_4  and  C_5
REMARK    6  A    between atoms: C_8  and  C_9
REMARK    7  A    between atoms: C_9  and  N_10
REMARK    8  A    between atoms: C_11  and  C_13
REMARK                            x       y       z     vdW  Elec       q    Type
REMARK                         _______ _______ _______ _____ _____    ______ ____
ROOT
ATOM      1  C   UNL     1      46.016   6.731  12.844  0.00  0.00    +0.000 C 
ATOM      2  C   UNL     1      46.849   5.529  13.338  0.00  0.00    +0.000 C 
ATOM      3  C   UNL     1      48.356   5.768  13.278  0.00  0.00    +0.000 C 
ATOM      4  C   UNL     1      48.775   7.042  14.027  0.00  0.00    +0.000 C 
ATOM      5  C   UNL     1      48.026   8.238  13.424  0.00  0.00    +0.000 C 
ATOM      6  C   UNL     1      46.504   8.062  13.448  0.00  0.00    +0.000 C 
ENDROOT
BRANCH   1   7
ATOM      7  C   UNL     1      45.964   6.827  11.304  0.00  0.00    +0.000 C 
BRANCH   7   8
ATOM      8  N   UNL     1      44.694   6.304  10.808  0.00  0.00    +0.000 NA
ATOM      9  H   UNL     1      44.631   6.467   9.801  0.00  0.00    +0.000 HD
BRANCH   8  11
ATOM     10  C   UNL     1      43.041   4.473  11.277  0.00  0.00    +0.000 C 
ATOM     11  C   UNL     1      44.505   4.859  11.032  0.00  0.00    +0.000 C 
BRANCH  11  12
ATOM     12  C   UNL     1      45.040   4.068   9.838  0.00  0.00    +0.000 A 
ATOM     13  C   UNL     1      44.966   2.674   9.819  0.00  0.00    +0.000 A 
ATOM     14  C   UNL     1      45.475   1.983   8.724  0.00  0.00    +0.000 A 
ATOM     15  C   UNL     1      46.039   2.696   7.675  0.00  0.00    +0.000 A 
ATOM     16  C   UNL     1      46.066   4.078   7.764  0.00  0.00    +0.000 A 
ATOM     17  N   UNL     1      45.583   4.778   8.814  0.00  0.00    +0.000 NA
ENDBRANCH  11  12
ENDBRANCH   8  11
ENDBRANCH   7   8
ENDBRANCH   1   7
BRANCH   4  18
ATOM     18  C   UNL     1      48.541   6.956  15.546  0.00  0.00    +0.000 C 
BRANCH  18  19
ATOM     19  N   UNL     1      49.633   6.326  16.254  0.00  0.00    +0.000 N 
ATOM     20  C   UNL     1      49.504   5.171  16.977  0.00  0.00    +0.000 C 
ATOM     21  O   UNL     1      48.413   4.642  17.165  0.00  0.00    +0.000 OA
ATOM     22  H   UNL     1      50.529   6.804  16.214  0.00  0.00    +0.000 HD
BRANCH  20  23
ATOM     23  C   UNL     1      50.749   4.562  17.481  0.00  0.00    +0.000 A 
ATOM     24  C   UNL     1      51.678   5.360  18.137  0.00  0.00    +0.000 A 
ATOM     25  S   UNL     1      53.004   4.494  18.770  0.00  0.00    +0.000 S 
ATOM     26  C   UNL     1      52.386   3.020  18.190  0.00  0.00    +0.000 A 
ATOM     27  N   UNL     1      53.024   1.847  18.453  0.00  0.00    +0.000 NA
ATOM     28  C   UNL     1      52.434   0.800  17.981  0.00  0.00    +0.000 A 
ATOM     29  N   UNL     1      51.279   0.822  17.245  0.00  0.00    +0.000 N 
ATOM     30  C   UNL     1      50.644   1.988  16.893  0.00  0.00    +0.000 A 
ATOM     31  O   UNL     1      49.686   1.976  16.124  0.00  0.00    +0.000 OA
ATOM     32  C   UNL     1      51.213   3.190  17.475  0.00  0.00    +0.000 A 
ATOM     33  H   UNL     1      50.894  -0.028  16.861  0.00  0.00    +0.000 HD
ENDBRANCH  20  23
ENDBRANCH  18  19
ENDBRANCH   4  18
TORSDOF 7
ENDMDL
MODEL 4
REMARK VINA RESULT:    -7.530      2.198      2.774
REMARK INTER + INTRA:         -11.335
REMARK INTER:                 -10.193
REMARK INTRA:                  -1.142
REMARK UNBOUND:                -0.724
REMARK  Name = 
REMARK  8 active torsions:
REMARK  status: ('A' for Active; 'I' for Inactive)
REMARK    1  A    between atoms: C_1  and  C_2
REMARK    2  A    between atoms: C_2  and  N_3
REMARK    3  A    between atoms: C_2  and  C_25
REMARK    4  A    between atoms: N_3  and  C_4
REMARK    5  A    between atoms: C_4  and  C_5
REMARK    6  A    between atoms: C_8  and  C_9
REMARK    7  A    between atoms: C_9  and  N_10
REMARK    8  A    between atoms: C_11  and  C_13
REMARK                            x       y       z     vdW  Elec       q    Type
REMARK                         _______ _______ _______ _____ _____    ______ ____
ROOT
ATOM      1  C   UNL     1      45.588   4.752  10.812  0.00  0.00    +0.000 C 
ATOM      2  C   UNL     1      46.287   6.125  10.712  0.00  0.00    +0.000 C 
ATOM      3  C   UNL     1      45.862   7.105  11.803  0.00  0.00    +0.000 C 
ATOM      4  C   UNL     1      46.042   6.524  13.213  0.00  0.00    +0.000 C 
ATOM      5  C   UNL     1      45.228   5.227  13.321  0.00  0.00    +0.000 C 
ATOM      6  C   UNL     1      45.603   4.197  12.250  0.00  0.00    +0.000 C 
ENDROOT
BRANCH   1   7
ATOM      7  C   UNL     1      44.146   4.777  10.260  0.00  0.00    +0.000 C 
BRANCH   7   8
ATOM      8  N   UNL     1      44.023   3.864   9.127  0.00  0.00    +0.000 NA
ATOM      9  H   UNL     1      44.327   4.340   8.275  0.00  0.00    +0.000 HD
BRANCH   8  11
ATOM     10  C   UNL     1      43.970   1.359   9.293  0.00  0.00    +0.000 C 
ATOM     11  C   UNL     1      44.824   2.632   9.253  0.00  0.00    +0.000 C 
BRANCH  11  12
ATOM     12  C   UNL     1      45.820   2.533   8.096  0.00  0.00    +0.000 A 
ATOM     13  C   UNL     1      45.971   3.592   7.198  0.00  0.00    +0.000 A 
ATOM     14  C   UNL     1      46.874   3.467   6.148  0.00  0.00    +0.000 A 
ATOM     15  C   UNL     1      47.608   2.295   6.022  0.00  0.00    +0.000 A 
ATOM     16  C   UNL     1      47.409   1.295   6.959  0.00  0.00    +0.000 A 
ATOM     17  N   UNL     1      46.539   1.385   7.988  0.00  0.00    +0.000 NA
ENDBRANCH  11  12
ENDBRANCH   8  11
ENDBRANCH   7   8
ENDBRANCH   1   7
BRANCH   4  18
ATOM     18  C   UNL     1      47.517   6.279  13.582  0.00  0.00    +0.000 C 
BRANCH  18  19
ATOM     19  N   UNL     1      47.754   6.296  15.008  0.00  0.00    +0.000 N 
ATOM     20  C   UNL     1      47.873   5.167  15.773  0.00  0.00    +0.000 C 
ATOM     21  O   UNL     1      47.677   4.047  15.310  0.00  0.00    +0.000 OA
ATOM     22  H   UNL     1      47.807   7.213  15.445  0.00  0.00    +0.000 HD
BRANCH  20  23
ATOM     23  C   UNL     1      48.298   5.355  17.172  0.00  0.00    +0.000 A 
ATOM     24  C   UNL     1      47.408   5.061  18.198  0.00  0.00    +0.000 A 
ATOM     25  S   UNL     1      48.082   5.207  19.757  0.00  0.00    +0.000 S 
ATOM     26  C   UNL     1      49.589   5.670  19.120  0.00  0.00    +0.000 A 
ATOM     27  N   UNL     1      50.653   5.890  19.940  0.00  0.00    +0.000 NA
ATOM     28  C   UNL     1      51.744   6.205  19.327  0.00  0.00    +0.000 A 
ATOM     29  N   UNL     1      51.861   6.349  17.970  0.00  0.00    +0.000 N 
ATOM     30  C   UNL     1      50.797   6.212  17.112  0.00  0.00    +0.000 A 
ATOM     31  O   UNL     1      50.911   6.476  15.919  0.00  0.00    +0.000 OA
ATOM     32  C   UNL     1      49.566   5.766  17.740  0.00  0.00    +0.000 A 
ATOM     33  H   UNL     1      52.732   6.648  17.555  0.00  0.00    +0.000 HD
ENDBRANCH  20  23
ENDBRANCH  18  19
ENDBRANCH   4  18
TORSDOF 7
ENDMDL
MODEL 5
REMARK VINA RESULT:    -7.215      3.909      8.864
REMARK INTER + INTRA:         -10.891
REMARK INTER:                  -9.403
REMARK INTRA:                  -1.488
REMARK UNBOUND:                -0.724
REMARK  Name = 
REMARK  8 active torsions:
REMARK  status: ('A' for Active; 'I' for Inactive)
REMARK    1  A    between atoms: C_1  and  C_2
REMARK    2  A    between atoms: C_2  and  N_3
REMARK    3  A    between atoms: C_2  and  C_25
REMARK    4  A    between atoms: N_3  and  C_4
REMARK    5  A    between atoms: C_4  and  C_5
REMARK    6  A    between atoms: C_8  and  C_9
REMARK    7  A    between atoms: C_9  and  N_10
REMARK    8  A    between atoms: C_11  and  C_13
REMARK                            x       y       z     vdW  Elec       q    Type
REMARK                         _______ _______ _______ _____ _____    ______ ____
ROOT
ATOM      1  C   UNL     1      49.586   7.845  12.629  0.00  0.00    +0.000 C 
ATOM      2  C   UNL     1      48.460   6.861  13.011  0.00  0.00    +0.000 C 
ATOM      3  C   UNL     1      47.326   7.509  13.801  0.00  0.00    +0.000 C 
ATOM      4  C   UNL     1      46.735   8.729  13.079  0.00  0.00    +0.000 C 
ATOM      5  C   UNL     1      47.857   9.747  12.830  0.00  0.00    +0.000 C 
ATOM      6  C   UNL     1      49.033   9.159  12.044  0.00  0.00    +0.000 C 
ENDROOT
BRANCH   1   7
ATOM      7  C   UNL     1      50.542   8.142  13.805  0.00  0.00    +0.000 C 
BRANCH   7   8
ATOM      8  N   UNL     1      50.505   7.051  14.775  0.00  0.00    +0.000 NA
ATOM      9  H   UNL     1      51.399   6.556  14.761  0.00  0.00    +0.000 HD
BRANCH   8  11
ATOM     10  C   UNL     1      49.765   8.930  16.265  0.00  0.00    +0.000 C 
ATOM     11  C   UNL     1      50.262   7.484  16.164  0.00  0.00    +0.000 C 
BRANCH  11  12
ATOM     12  C   UNL     1      49.248   6.555  16.833  0.00  0.00    +0.000 A 
ATOM     13  C   UNL     1      48.607   6.936  18.013  0.00  0.00    +0.000 A 
ATOM     14  C   UNL     1      47.701   6.064  18.605  0.00  0.00    +0.000 A 
ATOM     15  C   UNL     1      47.451   4.837  18.006  0.00  0.00    +0.000 A 
ATOM     16  C   UNL     1      48.120   4.536  16.830  0.00  0.00    +0.000 A 
ATOM     17  N   UNL     1      49.006   5.360  16.232  0.00  0.00    +0.000 NA
ENDBRANCH  11  12
ENDBRANCH   8  11
ENDBRANCH   7   8
ENDBRANCH   1   7
BRANCH   4  18
ATOM     18  C   UNL     1      46.022   8.366  11.763  0.00  0.00    +0.000 C 
BRANCH  18  19
ATOM     19  N   UNL     1      45.677   6.965  11.674  0.00  0.00    +0.000 N 
ATOM     20  C   UNL     1      44.412   6.508  11.414  0.00  0.00    +0.000 C 
ATOM     21  O   UNL     1      43.451   7.267  11.344  0.00  0.00    +0.000 OA
ATOM     22  H   UNL     1      46.431   6.304  11.843  0.00  0.00    +0.000 HD
BRANCH  20  23
ATOM     23  C   UNL     1      44.267   5.061  11.172  0.00  0.00    +0.000 A 
ATOM     24  C   UNL     1      43.526   4.295  12.064  0.00  0.00    +0.000 A 
ATOM     25  S   UNL     1      43.343   2.668  11.586  0.00  0.00    +0.000 S 
ATOM     26  C   UNL     1      44.247   2.927  10.169  0.00  0.00    +0.000 A 
ATOM     27  N   UNL     1      44.419   1.927   9.261  0.00  0.00    +0.000 NA
ATOM     28  C   UNL     1      45.100   2.265   8.218  0.00  0.00    +0.000 A 
ATOM     29  N   UNL     1      45.648   3.503   8.012  0.00  0.00    +0.000 N 
ATOM     30  C   UNL     1      45.563   4.517   8.935  0.00  0.00    +0.000 A 
ATOM     31  O   UNL     1      46.177   5.568   8.774  0.00  0.00    +0.000 OA
ATOM     32  C   UNL     1      44.731   4.221  10.087  0.00  0.00    +0.000 A 
ATOM     33  H   UNL     1      46.213   3.689   7.197  0.00  0.00    +0.000 HD
ENDBRANCH  20  23
ENDBRANCH  18  19
ENDBRANCH   4  18
TORSDOF 7
ENDMDL
MODEL 6
REMARK VINA RESULT:    -7.066      3.501      8.683
REMARK INTER + INTRA:         -10.682
REMARK INTER:                  -8.641
REMARK INTRA:                  -2.041
REMARK UNBOUND:                -0.724
REMARK  Name = 
REMARK  8 active torsions:
REMARK  status: ('A' for Active; 'I' for Inactive)
REMARK    1  A    between atoms: C_1  and  C_2
REMARK    2  A    between atoms: C_2  and  N_3
REMARK    3  A    between atoms: C_2  and  C_25
REMARK    4  A    between atoms: N_3  and  C_4
REMARK    5  A    between atoms: C_4  and  C_5
REMARK    6  A    between atoms: C_8  and  C_9
REMARK    7  A    between atoms: C_9  and  N_10
REMARK    8  A    between atoms: C_11  and  C_13
REMARK                            x       y       z     vdW  Elec       q    Type
REMARK                         _______ _______ _______ _____ _____    ______ ____
ROOT
ATOM      1  C   UNL     1      51.368   7.296  16.446  0.00  0.00    +0.000 C 
ATOM      2  C   UNL     1      50.091   6.652  15.865  0.00  0.00    +0.000 C 
ATOM      3  C   UNL     1      48.820   7.029  16.622  0.00  0.00    +0.000 C 
ATOM      4  C   UNL     1      48.638   8.550  16.735  0.00  0.00    +0.000 C 
ATOM      5  C   UNL     1      49.868   9.144  17.436  0.00  0.00    +0.000 C 
ATOM      6  C   UNL     1      51.182   8.799  16.728  0.00  0.00    +0.000 C 
ENDROOT
BRANCH   1   7
ATOM      7  C   UNL     1      51.878   6.571  17.710  0.00  0.00    +0.000 C 
BRANCH   7   8
ATOM      8  N   UNL     1      52.226   5.188  17.394  0.00  0.00    +0.000 NA
ATOM      9  H   UNL     1      53.243   5.100  17.340  0.00  0.00    +0.000 HD
BRANCH   8  11
ATOM     10  C   UNL     1      51.748   4.744  19.818  0.00  0.00    +0.000 C 
ATOM     11  C   UNL     1      51.751   4.203  18.384  0.00  0.00    +0.000 C 
BRANCH  11  12
ATOM     12  C   UNL     1      50.342   3.732  18.021  0.00  0.00    +0.000 A 
ATOM     13  C   UNL     1      49.234   4.197  18.730  0.00  0.00    +0.000 A 
ATOM     14  C   UNL     1      47.967   3.739  18.385  0.00  0.00    +0.000 A 
ATOM     15  C   UNL     1      47.834   2.836  17.340  0.00  0.00    +0.000 A 
ATOM     16  C   UNL     1      48.982   2.430  16.678  0.00  0.00    +0.000 A 
ATOM     17  N   UNL     1      50.225   2.854  16.990  0.00  0.00    +0.000 NA
ENDBRANCH  11  12
ENDBRANCH   8  11
ENDBRANCH   7   8
ENDBRANCH   1   7
BRANCH   4  18
ATOM     18  C   UNL     1      48.397   9.233  15.376  0.00  0.00    +0.000 C 
BRANCH  18  19
ATOM     19  N   UNL     1      47.341   8.612  14.609  0.00  0.00    +0.000 N 
ATOM     20  C   UNL     1      47.552   7.910  13.453  0.00  0.00    +0.000 C 
ATOM     21  O   UNL     1      48.658   7.850  12.924  0.00  0.00    +0.000 OA
ATOM     22  H   UNL     1      46.395   8.742  14.959  0.00  0.00    +0.000 HD
BRANCH  20  23
ATOM     23  C   UNL     1      46.396   7.185  12.896  0.00  0.00    +0.000 A 
ATOM     24  C   UNL     1      45.436   7.886  12.177  0.00  0.00    +0.000 A 
ATOM     25  S   UNL     1      44.229   6.897  11.492  0.00  0.00    +0.000 S 
ATOM     26  C   UNL     1      44.943   5.492  12.132  0.00  0.00    +0.000 A 
ATOM     27  N   UNL     1      44.427   4.263  11.858  0.00  0.00    +0.000 NA
ATOM     28  C   UNL     1      45.081   3.280  12.381  0.00  0.00    +0.000 A 
ATOM     29  N   UNL     1      46.188   3.417  13.175  0.00  0.00    +0.000 N 
ATOM     30  C   UNL     1      46.697   4.640  13.538  0.00  0.00    +0.000 A 
ATOM     31  O   UNL     1      47.609   4.725  14.356  0.00  0.00    +0.000 OA
ATOM     32  C   UNL     1      46.055   5.777  12.904  0.00  0.00    +0.000 A 
ATOM     33  H   UNL     1      46.626   2.610  13.596  0.00  0.00    +0.000 HD
ENDBRANCH  20  23
ENDBRANCH  18  19
ENDBRANCH   4  18
TORSDOF 7
ENDMDL
MODEL 7
REMARK VINA RESULT:    -6.948      3.782      8.772
REMARK INTER + INTRA:         -10.515
REMARK INTER:                  -8.989
REMARK INTRA:                  -1.526
REMARK UNBOUND:                -0.724
REMARK  Name = 
REMARK  8 active torsions:
REMARK  status: ('A' for Active; 'I' for Inactive)
REMARK    1  A    between atoms: C_1  and  C_2
REMARK    2  A    between atoms: C_2  and  N_3
REMARK    3  A    between atoms: C_2  and  C_25
REMARK    4  A    between atoms: N_3  and  C_4
REMARK    5  A    between atoms: C_4  and  C_5
REMARK    6  A    between atoms: C_8  and  C_9
REMARK    7  A    between atoms: C_9  and  N_10
REMARK    8  A    between atoms: C_11  and  C_13
REMARK                            x       y       z     vdW  Elec       q    Type
REMARK                         _______ _______ _______ _____ _____    ______ ____
ROOT
ATOM      1  C   UNL     1      48.648   8.654  15.456  0.00  0.00    +0.000 C 
ATOM      2  C   UNL     1      49.236   9.614  14.400  0.00  0.00    +0.000 C 
ATOM      3  C   UNL     1      50.190   8.932  13.422  0.00  0.00    +0.000 C 
ATOM      4  C   UNL     1      49.550   7.719  12.731  0.00  0.00    +0.000 C 
ATOM      5  C   UNL     1      49.093   6.723  13.806  0.00  0.00    +0.000 C 
ATOM      6  C   UNL     1      48.134   7.345  14.826  0.00  0.00    +0.000 C 
ENDROOT
BRANCH   1   7
ATOM      7  C   UNL     1      49.639   8.348  16.599  0.00  0.00    +0.000 C 
BRANCH   7   8
ATOM      8  N   UNL     1      48.983   7.559  17.639  0.00  0.00    +0.000 NA
ATOM      9  H   UNL     1      48.098   7.196  17.279  0.00  0.00    +0.000 HD
BRANCH   8  11
ATOM     10  C   UNL     1      49.988   6.410  19.631  0.00  0.00    +0.000 C 
ATOM     11  C   UNL     1      49.772   6.407  18.114  0.00  0.00    +0.000 C 
BRANCH  11  12
ATOM     12  C   UNL     1      49.091   5.101  17.704  0.00  0.00    +0.000 A 
ATOM     13  C   UNL     1      47.699   4.999  17.696  0.00  0.00    +0.000 A 
ATOM     14  C   UNL     1      47.109   3.793  17.332  0.00  0.00    +0.000 A 
ATOM     15  C   UNL     1      47.919   2.722  16.981  0.00  0.00    +0.000 A 
ATOM     16  C   UNL     1      49.292   2.905  17.005  0.00  0.00    +0.000 A 
ATOM     17  N   UNL     1      49.894   4.062  17.355  0.00  0.00    +0.000 NA
ENDBRANCH  11  12
ENDBRANCH   8  11
ENDBRANCH   7   8
ENDBRANCH   1   7
BRANCH   4  18
ATOM     18  C   UNL     1      48.382   8.099  11.803  0.00  0.00    +0.000 C 
BRANCH  18  19
ATOM     19  N   UNL     1      47.599   6.958  11.382  0.00  0.00    +0.000 N 
ATOM     20  C   UNL     1      46.230   6.919  11.419  0.00  0.00    +0.000 C 
ATOM     21  O   UNL     1      45.570   7.824  11.919  0.00  0.00    +0.000 OA
ATOM     22  H   UNL     1      48.122   6.145  11.069  0.00  0.00    +0.000 HD
BRANCH  20  23
ATOM     23  C   UNL     1      45.583   5.758  10.782  0.00  0.00    +0.000 A 
ATOM     24  C   UNL     1      45.818   5.503   9.436  0.00  0.00    +0.000 A 
ATOM     25  S   UNL     1      45.104   4.061   8.873  0.00  0.00    +0.000 S 
ATOM     26  C   UNL     1      44.453   3.723  10.407  0.00  0.00    +0.000 A 
ATOM     27  N   UNL     1      43.762   2.571  10.631  0.00  0.00    +0.000 NA
ATOM     28  C   UNL     1      43.348   2.425  11.845  0.00  0.00    +0.000 A 
ATOM     29  N   UNL     1      43.537   3.337  12.848  0.00  0.00    +0.000 N 
ATOM     30  C   UNL     1      44.160   4.545  12.648  0.00  0.00    +0.000 A 
ATOM     31  O   UNL     1      44.195   5.391  13.537  0.00  0.00    +0.000 OA
ATOM     32  C   UNL     1      44.727   4.723  11.324  0.00  0.00    +0.000 A 
ATOM     33  H   UNL     1      43.143   3.186  13.766  0.00  0.00    +0.000 HD
ENDBRANCH  20  23
ENDBRANCH  18  19
ENDBRANCH   4  18
TORSDOF 7
ENDMDL
MODEL 8
REMARK VINA RESULT:    -6.839      3.389      9.808
REMARK INTER + INTRA:         -10.361
REMARK INTER:                  -8.597
REMARK INTRA:                  -1.764
REMARK UNBOUND:                -0.724
REMARK  Name = 
REMARK  8 active torsions:
REMARK  status: ('A' for Active; 'I' for Inactive)
REMARK    1  A    between atoms: C_1  and  C_2
REMARK    2  A    between atoms: C_2  and  N_3
REMARK    3  A    between atoms: C_2  and  C_25
REMARK    4  A    between atoms: N_3  and  C_4
REMARK    5  A    between atoms: C_4  and  C_5
REMARK    6  A    between atoms: C_8  and  C_9
REMARK    7  A    between atoms: C_9  and  N_10
REMARK    8  A    between atoms: C_11  and  C_13
REMARK                            x       y       z     vdW  Elec       q    Type
REMARK                         _______ _______ _______ _____ _____    ______ ____
ROOT
ATOM      1  C   UNL     1      50.674   4.933  18.103  0.00  0.00    +0.000 C 
ATOM      2  C   UNL     1      49.849   3.651  18.343  0.00  0.00    +0.000 C 
ATOM      3  C   UNL     1      48.362   3.916  18.563  0.00  0.00    +0.000 C 
ATOM      4  C   UNL     1      47.741   4.735  17.421  0.00  0.00    +0.000 C 
ATOM      5  C   UNL     1      48.502   6.062  17.294  0.00  0.00    +0.000 C 
ATOM      6  C   UNL     1      50.006   5.868  17.076  0.00  0.00    +0.000 C 
ENDROOT
BRANCH   1   7
ATOM      7  C   UNL     1      50.979   5.699  19.408  0.00  0.00    +0.000 C 
BRANCH   7   8
ATOM      8  N   UNL     1      51.578   6.995  19.105  0.00  0.00    +0.000 NA
ATOM      9  H   UNL     1      51.294   7.288  18.169  0.00  0.00    +0.000 HD
BRANCH   8  11
ATOM     10  C   UNL     1      52.155   9.265  20.009  0.00  0.00    +0.000 C 
ATOM     11  C   UNL     1      51.194   8.072  20.038  0.00  0.00    +0.000 C 
BRANCH  11  12
ATOM     12  C   UNL     1      49.778   8.558  19.724  0.00  0.00    +0.000 A 
ATOM     13  C   UNL     1      48.709   8.209  20.550  0.00  0.00    +0.000 A 
ATOM     14  C   UNL     1      47.431   8.655  20.230  0.00  0.00    +0.000 A 
ATOM     15  C   UNL     1      47.251   9.440  19.100  0.00  0.00    +0.000 A 
ATOM     16  C   UNL     1      48.364   9.752  18.337  0.00  0.00    +0.000 A 
ATOM     17  N   UNL     1      49.616   9.333  18.620  0.00  0.00    +0.000 NA
ENDBRANCH  11  12
ENDBRANCH   8  11
ENDBRANCH   7   8
ENDBRANCH   1   7
BRANCH   4  18
ATOM     18  C   UNL     1      47.721   3.982  16.078  0.00  0.00    +0.000 C 
BRANCH  18  19
ATOM     19  N   UNL     1      46.797   4.552  15.123  0.00  0.00    +0.000 N 
ATOM     20  C   UNL     1      47.180   5.336  14.068  0.00  0.00    +0.000 C 
ATOM     21  O   UNL     1      48.342   5.701  13.921  0.00  0.00    +0.000 OA
ATOM     22  H   UNL     1      45.811   4.363  15.284  0.00  0.00    +0.000 HD
BRANCH  20  23
ATOM     23  C   UNL     1      46.137   5.681  13.085  0.00  0.00    +0.000 A 
ATOM     24  C   UNL     1      45.852   7.018  12.839  0.00  0.00    +0.000 A 
ATOM     25  S   UNL     1      44.716   7.262  11.591  0.00  0.00    +0.000 S 
ATOM     26  C   UNL     1      44.563   5.588  11.332  0.00  0.00    +0.000 A 
ATOM     27  N   UNL     1      43.771   5.108  10.334  0.00  0.00    +0.000 NA
ATOM     28  C   UNL     1      43.767   3.822  10.228  0.00  0.00    +0.000 A 
ATOM     29  N   UNL     1      44.460   2.970  11.046  0.00  0.00    +0.000 N 
ATOM     30  C   UNL     1      45.209   3.407  12.111  0.00  0.00    +0.000 A 
ATOM     31  O   UNL     1      45.709   2.609  12.899  0.00  0.00    +0.000 OA
ATOM     32  C   UNL     1      45.324   4.850  12.222  0.00  0.00    +0.000 A 
ATOM     33  H   UNL     1      44.375   1.969  10.942  0.00  0.00    +0.000 HD
ENDBRANCH  20  23
ENDBRANCH  18  19
ENDBRANCH   4  18
TORSDOF 7
ENDMDL
MODEL 9
REMARK VINA RESULT:    -6.731      4.047      9.679
REMARK INTER + INTRA:         -10.210
REMARK INTER:                  -8.284
REMARK INTRA:                  -1.925
REMARK UNBOUND:                -0.724
REMARK  Name = 
REMARK  8 active torsions:
REMARK  status: ('A' for Active; 'I' for Inactive)
REMARK    1  A    between atoms: C_1  and  C_2
REMARK    2  A    between atoms: C_2  and  N_3
REMARK    3  A    between atoms: C_2  and  C_25
REMARK    4  A    between atoms: N_3  and  C_4
REMARK    5  A    between atoms: C_4  and  C_5
REMARK    6  A    between atoms: C_8  and  C_9
REMARK    7  A    between atoms: C_9  and  N_10
REMARK    8  A    between atoms: C_11  and  C_13
REMARK                            x       y       z     vdW  Elec       q    Type
REMARK                         _______ _______ _______ _____ _____    ______ ____
ROOT
ATOM      1  C   UNL     1      50.668   4.937  17.567  0.00  0.00    +0.000 C 
ATOM      2  C   UNL     1      50.055   3.585  17.990  0.00  0.00    +0.000 C 
ATOM      3  C   UNL     1      48.671   3.715  18.623  0.00  0.00    +0.000 C 
ATOM      4  C   UNL     1      47.689   4.480  17.724  0.00  0.00    +0.000 C 
ATOM      5  C   UNL     1      48.268   5.870  17.429  0.00  0.00    +0.000 C 
ATOM      6  C   UNL     1      49.661   5.813  16.795  0.00  0.00    +0.000 C 
ENDROOT
BRANCH   1   7
ATOM      7  C   UNL     1      51.260   5.722  18.758  0.00  0.00    +0.000 C 
BRANCH   7   8
ATOM      8  N   UNL     1      51.591   7.084  18.351  0.00  0.00    +0.000 NA
ATOM      9  H   UNL     1      51.040   7.334  17.527  0.00  0.00    +0.000 HD
BRANCH   8  11
ATOM     10  C   UNL     1      52.145   9.386  19.187  0.00  0.00    +0.000 C 
ATOM     11  C   UNL     1      51.326   8.105  19.383  0.00  0.00    +0.000 C 
BRANCH  11  12
ATOM     12  C   UNL     1      49.838   8.457  19.404  0.00  0.00    +0.000 A 
ATOM     13  C   UNL     1      49.012   7.985  20.425  0.00  0.00    +0.000 A 
ATOM     14  C   UNL     1      47.660   8.310  20.409  0.00  0.00    +0.000 A 
ATOM     15  C   UNL     1      47.166   9.100  19.380  0.00  0.00    +0.000 A 
ATOM     16  C   UNL     1      48.052   9.538  18.409  0.00  0.00    +0.000 A 
ATOM     17  N   UNL     1      49.369   9.238  18.396  0.00  0.00    +0.000 NA
ENDBRANCH  11  12
ENDBRANCH   8  11
ENDBRANCH   7   8
ENDBRANCH   1   7
BRANCH   4  18
ATOM     18  C   UNL     1      47.358   3.735  16.418  0.00  0.00    +0.000 C 
BRANCH  18  19
ATOM     19  N   UNL     1      46.787   4.594  15.404  0.00  0.00    +0.000 N 
ATOM     20  C   UNL     1      46.815   4.313  14.064  0.00  0.00    +0.000 C 
ATOM     21  O   UNL     1      47.430   3.350  13.618  0.00  0.00    +0.000 OA
ATOM     22  H   UNL     1      46.370   5.461  15.733  0.00  0.00    +0.000 HD
BRANCH  20  23
ATOM     23  C   UNL     1      46.028   5.196  13.185  0.00  0.00    +0.000 A 
ATOM     24  C   UNL     1      45.025   4.648  12.395  0.00  0.00    +0.000 A 
ATOM     25  S   UNL     1      44.121   5.805  11.529  0.00  0.00    +0.000 S 
ATOM     26  C   UNL     1      45.036   7.083  12.177  0.00  0.00    +0.000 A 
ATOM     27  N   UNL     1      44.731   8.377  11.882  0.00  0.00    +0.000 NA
ATOM     28  C   UNL     1      45.486   9.249  12.463  0.00  0.00    +0.000 A 
ATOM     29  N   UNL     1      46.535   8.945  13.289  0.00  0.00    +0.000 N 
ATOM     30  C   UNL     1      46.924   7.654  13.553  0.00  0.00    +0.000 A 
ATOM     31  O   UNL     1      47.947   7.422  14.191  0.00  0.00    +0.000 OA
ATOM     32  C   UNL     1      46.054   6.632  12.999  0.00  0.00    +0.000 A 
ATOM     33  H   UNL     1      47.119   9.673  13.673  0.00  0.00    +0.000 HD
ENDBRANCH  20  23
ENDBRANCH  18  19
ENDBRANCH   4  18
TORSDOF 7
ENDMDL
