MODEL 1
REMARK VINA RESULT:    -7.407      0.000      0.000
REMARK INTER + INTRA:          -9.733
REMARK INTER:                  -9.139
REMARK INTRA:                  -0.594
REMARK UNBOUND:                -0.594
REMARK  Name = 
REMARK  5 active torsions:
REMARK  status: ('A' for Active; 'I' for Inactive)
REMARK    1  A    between atoms: C_1  and  C_2
REMARK    2  A    between atoms: C_2  and  C_3
REMARK    3  A    between atoms: C_3  and  N_4
REMARK    4  A    between atoms: C_3  and  C_14
REMARK    5  A    between atoms: C_8  and  C_9
REMARK                            x       y       z     vdW  Elec       q    Type
REMARK                         _______ _______ _______ _____ _____    ______ ____
ROOT
ATOM      1  N   UNL     1      44.402   4.463  10.257  0.00  0.00    +0.000 N 
ATOM      2  C   UNL     1      45.189   3.973   9.213  0.00  0.00    +0.000 A 
ATOM      3  C   UNL     1      45.244   2.587   8.992  0.00  0.00    +0.000 A 
ATOM      4  N   UNL     1      46.019   1.978   8.054  0.00  0.00    +0.000 NA
ATOM      5  C   UNL     1      46.752   2.833   7.292  0.00  0.00    +0.000 A 
ATOM      6  C   UNL     1      46.701   4.205   7.476  0.00  0.00    +0.000 A 
ATOM      7  N   UNL     1      45.935   4.791   8.442  0.00  0.00    +0.000 NA
ATOM      8  H   UNL     1      43.427   4.212  10.155  0.00  0.00    +0.000 HD
ENDROOT
BRANCH   5   9
ATOM      9  C   UNL     1      47.677   2.238   6.287  0.00  0.00    +0.000 C 
ATOM     10  N   UNL     1      47.854   2.949   5.132  0.00  0.00    +0.000 N 
ATOM     11  O   UNL     1      48.243   1.167   6.478  0.00  0.00    +0.000 OA
ATOM     12  H   UNL     1      47.341   3.811   4.983  0.00  0.00    +0.000 HD
ATOM     13  H   UNL     1      48.436   2.569   4.400  0.00  0.00    +0.000 HD
ENDBRANCH   5   9
BRANCH   1  14
ATOM     14  C   UNL     1      44.634   5.815  10.762  0.00  0.00    +0.000 C 
BRANCH  14  15
ATOM     15  C   UNL     1      45.804   5.779  11.754  0.00  0.00    +0.000 A 
ATOM     16  C   UNL     1      46.778   6.788  11.716  0.00  0.00    +0.000 A 
ATOM     17  C   UNL     1      47.700   6.925  12.756  0.00  0.00    +0.000 A 
ATOM     18  C   UNL     1      47.670   6.048  13.839  0.00  0.00    +0.000 A 
ATOM     19  C   UNL     1      46.759   4.995  13.856  0.00  0.00    +0.000 A 
ATOM     20  C   UNL     1      45.846   4.848  12.810  0.00  0.00    +0.000 A 
ENDBRANCH  14  15
BRANCH  14  22
ATOM     21  C   UNL     1      42.341   5.436  11.915  0.00  0.00    +0.000 C 
ATOM     22  C   UNL     1      43.432   6.412  11.526  0.00  0.00    +0.000 C 
ENDBRANCH  14  22
ENDBRANCH   1  14
TORSDOF 4
ENDMDL
MODEL 2
REMARK VINA RESULT:    -6.811      3.571      6.535
REMARK INTER + INTRA:          -8.998
REMARK INTER:                  -8.482
REMARK INTRA:                  -0.516
REMARK UNBOUND:                -0.594
REMARK  Name = 
REMARK  5 active torsions:
REMARK  status: ('A' for Active; 'I' for Inactive)
REMARK    1  A    between atoms: C_1  and  C_2
REMARK    2  A    between atoms: C_2  and  C_3
REMARK    3  A    between atoms: C_3  and  N_4
REMARK    4  A    between atoms: C_3  and  C_14
REMARK    5  A    between atoms: C_8  and  C_9
REMARK                            x       y       z     vdW  Elec       q    Type
REMARK                         _______ _______ _______ _____ _____    ______ ____
ROOT
ATOM      1  N   UNL     1      45.581   5.277  11.407  0.00  0.00    +0.000 N 
ATOM      2  C   UNL     1      46.188   5.233  12.663  0.00  0.00    +0.000 A 
ATOM      3  C   UNL     1      47.332   6.014  12.898  0.00  0.00    +0.000 A 
ATOM      4  N   UNL     1      48.053   6.013  14.052  0.00  0.00    +0.000 NA
ATOM      5  C   UNL     1      47.563   5.191  15.018  0.00  0.00    +0.000 A 
ATOM      6  C   UNL     1      46.426   4.425  14.819  0.00  0.00    +0.000 A 
ATOM      7  N   UNL     1      45.734   4.423  13.643  0.00  0.00    +0.000 NA
ATOM      8  H   UNL     1      45.272   6.209  11.161  0.00  0.00    +0.000 HD
ENDROOT
BRANCH   5   9
ATOM      9  C   UNL     1      48.336   5.084  16.286  0.00  0.00    +0.000 C 
ATOM     10  N   UNL     1      48.150   6.091  17.194  0.00  0.00    +0.000 N 
ATOM     11  O   UNL     1      49.103   4.153  16.505  0.00  0.00    +0.000 OA
ATOM     12  H   UNL     1      47.541   6.870  16.970  0.00  0.00    +0.000 HD
ATOM     13  H   UNL     1      48.683   6.090  18.052  0.00  0.00    +0.000 HD
ENDBRANCH   5   9
BRANCH   1  14
ATOM     14  C   UNL     1      44.669   4.208  11.008  0.00  0.00    +0.000 C 
BRANCH  14  15
ATOM     15  C   UNL     1      45.132   3.639   9.660  0.00  0.00    +0.000 A 
ATOM     16  C   UNL     1      45.660   4.501   8.687  0.00  0.00    +0.000 A 
ATOM     17  C   UNL     1      46.320   3.989   7.568  0.00  0.00    +0.000 A 
ATOM     18  C   UNL     1      46.446   2.611   7.397  0.00  0.00    +0.000 A 
ATOM     19  C   UNL     1      45.861   1.742   8.314  0.00  0.00    +0.000 A 
ATOM     20  C   UNL     1      45.189   2.251   9.426  0.00  0.00    +0.000 A 
ENDBRANCH  14  15
BRANCH  14  22
ATOM     21  C   UNL     1      42.602   5.464  11.946  0.00  0.00    +0.000 C 
ATOM     22  C   UNL     1      43.209   4.672  10.807  0.00  0.00    +0.000 C 
ENDBRANCH  14  22
ENDBRANCH   1  14
TORSDOF 4
ENDMDL
MODEL 3
REMARK VINA RESULT:    -6.590      3.595      6.298
REMARK INTER + INTRA:          -8.725
REMARK INTER:                  -8.167
REMARK INTRA:                  -0.557
REMARK UNBOUND:                -0.594
REMARK  Name = 
REMARK  5 active torsions:
REMARK  status: ('A' for Active; 'I' for Inactive)
REMARK    1  A    between atoms: C_1  and  C_2
REMARK    2  A    between atoms: C_2  and  C_3
REMARK    3  A    between atoms: C_3  and  N_4
REMARK    4  A    between atoms: C_3  and  C_14
REMARK    5  A    between atoms: C_8  and  C_9
REMARK                            x       y       z     vdW  Elec       q    Type
REMARK                         _______ _______ _______ _____ _____    ______ ____
ROOT
ATOM      1  N   UNL     1      45.543   5.802  10.761  0.00  0.00    +0.000 N 
ATOM      2  C   UNL     1      46.384   6.086  11.838  0.00  0.00    +0.000 A 
ATOM      3  C   UNL     1      47.356   7.091  11.699  0.00  0.00    +0.000 A 
ATOM      4  N   UNL     1      48.277   7.420  12.646  0.00  0.00    +0.000 NA
ATOM      5  C   UNL     1      48.179   6.701  13.796  0.00  0.00    +0.000 A 
ATOM      6  C   UNL     1      47.218   5.719  13.966  0.00  0.00    +0.000 A 
ATOM      7  N   UNL     1      46.321   5.388  12.992  0.00  0.00    +0.000 NA
ATOM      8  H   UNL     1      44.997   6.606  10.476  0.00  0.00    +0.000 HD
ENDROOT
BRANCH   5   9
ATOM      9  C   UNL     1      49.196   6.958  14.854  0.00  0.00    +0.000 C 
ATOM     10  N   UNL     1      50.428   7.368  14.423  0.00  0.00    +0.000 N 
ATOM     11  O   UNL     1      48.948   6.803  16.045  0.00  0.00    +0.000 OA
ATOM     12  H   UNL     1      50.617   7.448  13.430  0.00  0.00    +0.000 HD
ATOM     13  H   UNL     1      51.166   7.513  15.096  0.00  0.00    +0.000 HD
ENDBRANCH   5   9
BRANCH   1  14
ATOM     14  C   UNL     1      44.821   4.532  10.725  0.00  0.00    +0.000 C 
BRANCH  14  15
ATOM     15  C   UNL     1      45.245   3.758   9.469  0.00  0.00    +0.000 A 
ATOM     16  C   UNL     1      45.826   4.444   8.393  0.00  0.00    +0.000 A 
ATOM     17  C   UNL     1      46.449   3.744   7.357  0.00  0.00    +0.000 A 
ATOM     18  C   UNL     1      46.486   2.351   7.376  0.00  0.00    +0.000 A 
ATOM     19  C   UNL     1      45.848   1.653   8.397  0.00  0.00    +0.000 A 
ATOM     20  C   UNL     1      45.212   2.351   9.426  0.00  0.00    +0.000 A 
ENDBRANCH  14  15
BRANCH  14  22
ATOM     21  C   UNL     1      42.645   5.524  11.732  0.00  0.00    +0.000 C 
ATOM     22  C   UNL     1      43.286   4.686  10.644  0.00  0.00    +0.000 C 
ENDBRANCH  14  22
ENDBRANCH   1  14
TORSDOF 4
ENDMDL
MODEL 4
REMARK VINA RESULT:    -5.805      3.293      6.564
REMARK INTER + INTRA:          -7.757
REMARK INTER:                  -7.160
REMARK INTRA:                  -0.597
REMARK UNBOUND:                -0.594
REMARK  Name = 
REMARK  5 active torsions:
REMARK  status: ('A' for Active; 'I' for Inactive)
REMARK    1  A    between atoms: C_1  and  C_2
REMARK    2  A    between atoms: C_2  and  C_3
REMARK    3  A    between atoms: C_3  and  N_4
REMARK    4  A    between atoms: C_3  and  C_14
REMARK    5  A    between atoms: C_8  and  C_9
REMARK                            x       y       z     vdW  Elec       q    Type
REMARK                         _______ _______ _______ _____ _____    ______ ____
ROOT
ATOM      1  N   UNL     1      45.102   4.762  10.155  0.00  0.00    +0.000 N 
ATOM      2  C   UNL     1      45.659   5.485  11.211  0.00  0.00    +0.000 A 
ATOM      3  C   UNL     1      45.796   6.877  11.089  0.00  0.00    +0.000 A 
ATOM      4  N   UNL     1      46.379   7.687  12.015  0.00  0.00    +0.000 NA
ATOM      5  C   UNL     1      46.819   7.039  13.127  0.00  0.00    +0.000 A 
ATOM      6  C   UNL     1      46.677   5.670  13.281  0.00  0.00    +0.000 A 
ATOM      7  N   UNL     1      46.112   4.875  12.326  0.00  0.00    +0.000 NA
ATOM      8  H   UNL     1      44.160   5.063   9.936  0.00  0.00    +0.000 HD
ENDROOT
BRANCH   5   9
ATOM      9  C   UNL     1      47.529   7.848  14.157  0.00  0.00    +0.000 C 
ATOM     10  N   UNL     1      46.987   9.070  14.446  0.00  0.00    +0.000 N 
ATOM     11  O   UNL     1      48.547   7.448  14.710  0.00  0.00    +0.000 OA
ATOM     12  H   UNL     1      46.167   9.394  13.943  0.00  0.00    +0.000 HD
ATOM     13  H   UNL     1      47.453   9.677  15.105  0.00  0.00    +0.000 HD
ENDBRANCH   5   9
BRANCH   1  14
ATOM     14  C   UNL     1      45.312   3.318  10.077  0.00  0.00    +0.000 C 
BRANCH  14  15
ATOM     15  C   UNL     1      45.984   2.987   8.737  0.00  0.00    +0.000 A 
ATOM     16  C   UNL     1      46.200   1.647   8.382  0.00  0.00    +0.000 A 
ATOM     17  C   UNL     1      46.567   1.309   7.078  0.00  0.00    +0.000 A 
ATOM     18  C   UNL     1      46.737   2.304   6.117  0.00  0.00    +0.000 A 
ATOM     19  C   UNL     1      46.601   3.643   6.473  0.00  0.00    +0.000 A 
ATOM     20  C   UNL     1      46.248   3.984   7.779  0.00  0.00    +0.000 A 
ENDBRANCH  14  15
BRANCH  14  22
ATOM     21  C   UNL     1      43.268   2.500  11.449  0.00  0.00    +0.000 C 
ATOM     22  C   UNL     1      44.009   2.491  10.128  0.00  0.00    +0.000 C 
ENDBRANCH  14  22
ENDBRANCH   1  14
TORSDOF 4
ENDMDL
MODEL 5
REMARK VINA RESULT:    -5.762      3.474      4.896
REMARK INTER + INTRA:          -7.704
REMARK INTER:                  -7.173
REMARK INTRA:                  -0.531
REMARK UNBOUND:                -0.594
REMARK  Name = 
REMARK  5 active torsions:
REMARK  status: ('A' for Active; 'I' for Inactive)
REMARK    1  A    between atoms: C_1  and  C_2
REMARK    2  A    between atoms: C_2  and  C_3
REMARK    3  A    between atoms: C_3  and  N_4
REMARK    4  A    between atoms: C_3  and  C_14
REMARK    5  A    between atoms: C_8  and  C_9
REMARK                            x       y       z     vdW  Elec       q    Type
REMARK                         _______ _______ _______ _____ _____    ______ ____
ROOT
ATOM      1  N   UNL     1      46.025   7.409  12.999  0.00  0.00    +0.000 N 
ATOM      2  C   UNL     1      45.401   6.263  12.505  0.00  0.00    +0.000 A 
ATOM      3  C   UNL     1      45.449   5.079  13.259  0.00  0.00    +0.000 A 
ATOM      4  N   UNL     1      44.939   3.881  12.863  0.00  0.00    +0.000 NA
ATOM      5  C   UNL     1      44.329   3.907  11.648  0.00  0.00    +0.000 A 
ATOM      6  C   UNL     1      44.250   5.065  10.893  0.00  0.00    +0.000 A 
ATOM      7  N   UNL     1      44.793   6.250  11.300  0.00  0.00    +0.000 NA
ATOM      8  H   UNL     1      45.650   7.697  13.895  0.00  0.00    +0.000 HD
ENDROOT
BRANCH   5   9
ATOM      9  C   UNL     1      43.805   2.618  11.115  0.00  0.00    +0.000 C 
ATOM     10  N   UNL     1      44.405   2.144   9.981  0.00  0.00    +0.000 N 
ATOM     11  O   UNL     1      42.882   2.018  11.656  0.00  0.00    +0.000 OA
ATOM     12  H   UNL     1      45.138   2.682   9.532  0.00  0.00    +0.000 HD
ATOM     13  H   UNL     1      44.059   1.297   9.554  0.00  0.00    +0.000 HD
ENDBRANCH   5   9
BRANCH   1  14
ATOM     14  C   UNL     1      46.340   8.508  12.090  0.00  0.00    +0.000 C 
BRANCH  14  15
ATOM     15  C   UNL     1      47.865   8.684  12.036  0.00  0.00    +0.000 A 
ATOM     16  C   UNL     1      48.691   7.555  11.940  0.00  0.00    +0.000 A 
ATOM     17  C   UNL     1      50.046   7.691  11.632  0.00  0.00    +0.000 A 
ATOM     18  C   UNL     1      50.596   8.957  11.433  0.00  0.00    +0.000 A 
ATOM     19  C   UNL     1      49.807  10.091  11.601  0.00  0.00    +0.000 A 
ATOM     20  C   UNL     1      48.455   9.958  11.922  0.00  0.00    +0.000 A 
ENDBRANCH  14  15
BRANCH  14  22
ATOM     21  C   UNL     1      44.596  10.391  11.712  0.00  0.00    +0.000 C 
ATOM     22  C   UNL     1      45.760   9.871  12.530  0.00  0.00    +0.000 C 
ENDBRANCH  14  22
ENDBRANCH   1  14
TORSDOF 4
ENDMDL
MODEL 6
REMARK VINA RESULT:    -5.758      5.562      8.339
REMARK INTER + INTRA:          -7.699
REMARK INTER:                  -7.310
REMARK INTRA:                  -0.389
REMARK UNBOUND:                -0.594
REMARK  Name = 
REMARK  5 active torsions:
REMARK  status: ('A' for Active; 'I' for Inactive)
REMARK    1  A    between atoms: C_1  and  C_2
REMARK    2  A    between atoms: C_2  and  C_3
REMARK    3  A    between atoms: C_3  and  N_4
REMARK    4  A    between atoms: C_3  and  C_14
REMARK    5  A    between atoms: C_8  and  C_9
REMARK                            x       y       z     vdW  Elec       q    Type
REMARK                         _______ _______ _______ _____ _____    ______ ____
ROOT
ATOM      1  N   UNL     1      46.786   3.998  14.681  0.00  0.00    +0.000 N 
ATOM      2  C   UNL     1      47.470   4.212  15.879  0.00  0.00    +0.000 A 
ATOM      3  C   UNL     1      47.524   3.179  16.830  0.00  0.00    +0.000 A 
ATOM      4  N   UNL     1      48.100   3.281  18.059  0.00  0.00    +0.000 NA
ATOM      5  C   UNL     1      48.669   4.489  18.312  0.00  0.00    +0.000 A 
ATOM      6  C   UNL     1      48.648   5.517  17.384  0.00  0.00    +0.000 A 
ATOM      7  N   UNL     1      48.041   5.401  16.168  0.00  0.00    +0.000 NA
ATOM      8  H   UNL     1      47.169   3.223  14.152  0.00  0.00    +0.000 HD
ENDROOT
BRANCH   5   9
ATOM      9  C   UNL     1      49.262   4.699  19.663  0.00  0.00    +0.000 C 
ATOM     10  N   UNL     1      48.662   4.033  20.696  0.00  0.00    +0.000 N 
ATOM     11  O   UNL     1      50.227   5.434  19.842  0.00  0.00    +0.000 OA
ATOM     12  H   UNL     1      47.840   3.465  20.525  0.00  0.00    +0.000 HD
ATOM     13  H   UNL     1      48.997   4.175  21.639  0.00  0.00    +0.000 HD
ENDBRANCH   5   9
BRANCH   1  14
ATOM     14  C   UNL     1      46.372   5.141  13.872  0.00  0.00    +0.000 C 
BRANCH  14  15
ATOM     15  C   UNL     1      45.181   4.723  12.997  0.00  0.00    +0.000 A 
ATOM     16  C   UNL     1      44.052   5.552  12.919  0.00  0.00    +0.000 A 
ATOM     17  C   UNL     1      43.076   5.331  11.946  0.00  0.00    +0.000 A 
ATOM     18  C   UNL     1      43.206   4.272  11.049  0.00  0.00    +0.000 A 
ATOM     19  C   UNL     1      44.282   3.395  11.163  0.00  0.00    +0.000 A 
ATOM     20  C   UNL     1      45.252   3.606  12.144  0.00  0.00    +0.000 A 
ENDBRANCH  14  15
BRANCH  14  22
ATOM     21  C   UNL     1      47.150   6.945  12.178  0.00  0.00    +0.000 C 
ATOM     22  C   UNL     1      47.463   5.655  12.907  0.00  0.00    +0.000 C 
ENDBRANCH  14  22
ENDBRANCH   1  14
TORSDOF 4
ENDMDL
MODEL 7
REMARK VINA RESULT:    -5.496      2.940      4.954
REMARK INTER + INTRA:          -7.376
REMARK INTER:                  -6.841
REMARK INTRA:                  -0.534
REMARK UNBOUND:                -0.594
REMARK  Name = 
REMARK  5 active torsions:
REMARK  status: ('A' for Active; 'I' for Inactive)
REMARK    1  A    between atoms: C_1  and  C_2
REMARK    2  A    between atoms: C_2  and  C_3
REMARK    3  A    between atoms: C_3  and  N_4
REMARK    4  A    between atoms: C_3  and  C_14
REMARK    5  A    between atoms: C_8  and  C_9
REMARK                            x       y       z     vdW  Elec       q    Type
REMARK                         _______ _______ _______ _____ _____    ______ ____
ROOT
ATOM      1  N   UNL     1      46.867   6.421  14.027  0.00  0.00    +0.000 N 
ATOM      2  C   UNL     1      46.191   5.815  12.966  0.00  0.00    +0.000 A 
ATOM      3  C   UNL     1      45.432   4.659  13.211  0.00  0.00    +0.000 A 
ATOM      4  N   UNL     1      44.781   3.938  12.258  0.00  0.00    +0.000 NA
ATOM      5  C   UNL     1      44.893   4.443  11.000  0.00  0.00    +0.000 A 
ATOM      6  C   UNL     1      45.618   5.593  10.735  0.00  0.00    +0.000 A 
ATOM      7  N   UNL     1      46.285   6.284  11.704  0.00  0.00    +0.000 NA
ATOM      8  H   UNL     1      46.240   6.714  14.766  0.00  0.00    +0.000 HD
ENDROOT
BRANCH   5   9
ATOM      9  C   UNL     1      44.263   3.672   9.892  0.00  0.00    +0.000 C 
ATOM     10  N   UNL     1      44.134   4.326   8.697  0.00  0.00    +0.000 N 
ATOM     11  O   UNL     1      43.874   2.519  10.041  0.00  0.00    +0.000 OA
ATOM     12  H   UNL     1      44.428   5.293   8.614  0.00  0.00    +0.000 HD
ATOM     13  H   UNL     1      43.674   3.864   7.926  0.00  0.00    +0.000 HD
ENDBRANCH   5   9
BRANCH   1  14
ATOM     14  C   UNL     1      47.958   7.352  13.749  0.00  0.00    +0.000 C 
BRANCH  14  15
ATOM     15  C   UNL     1      49.041   7.180  14.824  0.00  0.00    +0.000 A 
ATOM     16  C   UNL     1      48.810   6.324  15.912  0.00  0.00    +0.000 A 
ATOM     17  C   UNL     1      49.858   5.952  16.757  0.00  0.00    +0.000 A 
ATOM     18  C   UNL     1      51.144   6.441  16.536  0.00  0.00    +0.000 A 
ATOM     19  C   UNL     1      51.374   7.351  15.508  0.00  0.00    +0.000 A 
ATOM     20  C   UNL     1      50.326   7.735  14.671  0.00  0.00    +0.000 A 
ENDBRANCH  14  15
BRANCH  14  22
ATOM     21  C   UNL     1      47.715   9.609  12.495  0.00  0.00    +0.000 C 
ATOM     22  C   UNL     1      47.540   8.838  13.787  0.00  0.00    +0.000 C 
ENDBRANCH  14  22
ENDBRANCH   1  14
TORSDOF 4
ENDMDL
MODEL 8
REMARK VINA RESULT:    -5.465      5.408      7.410
REMARK INTER + INTRA:          -7.338
REMARK INTER:                  -6.811
REMARK INTRA:                  -0.527
REMARK UNBOUND:                -0.594
REMARK  Name = 
REMARK  5 active torsions:
REMARK  status: ('A' for Active; 'I' for Inactive)
REMARK    1  A    between atoms: C_1  and  C_2
REMARK    2  A    between atoms: C_2  and  C_3
REMARK    3  A    between atoms: C_3  and  N_4
REMARK    4  A    between atoms: C_3  and  C_14
REMARK    5  A    between atoms: C_8  and  C_9
REMARK                            x       y       z     vdW  Elec       q    Type
REMARK                         _______ _______ _______ _____ _____    ______ ____
ROOT
ATOM      1  N   UNL     1      47.735   6.557  12.609  0.00  0.00    +0.000 N 
ATOM      2  C   UNL     1      47.683   5.865  13.820  0.00  0.00    +0.000 A 
ATOM      3  C   UNL     1      46.742   4.834  13.979  0.00  0.00    +0.000 A 
ATOM      4  N   UNL     1      46.545   4.129  15.126  0.00  0.00    +0.000 NA
ATOM      5  C   UNL     1      47.370   4.481  16.148  0.00  0.00    +0.000 A 
ATOM      6  C   UNL     1      48.320   5.479  16.012  0.00  0.00    +0.000 A 
ATOM      7  N   UNL     1      48.481   6.191  14.859  0.00  0.00    +0.000 NA
ATOM      8  H   UNL     1      47.933   5.947  11.825  0.00  0.00    +0.000 HD
ENDROOT
BRANCH   5   9
ATOM      9  C   UNL     1      47.170   3.799  17.458  0.00  0.00    +0.000 C 
ATOM     10  N   UNL     1      47.570   4.492  18.567  0.00  0.00    +0.000 N 
ATOM     11  O   UNL     1      46.680   2.678  17.540  0.00  0.00    +0.000 OA
ATOM     12  H   UNL     1      48.010   5.401  18.467  0.00  0.00    +0.000 HD
ATOM     13  H   UNL     1      47.498   4.058  19.477  0.00  0.00    +0.000 HD
ENDBRANCH   5   9
BRANCH   1  14
ATOM     14  C   UNL     1      48.395   7.859  12.549  0.00  0.00    +0.000 C 
BRANCH  14  15
ATOM     15  C   UNL     1      47.326   8.948  12.385  0.00  0.00    +0.000 A 
ATOM     16  C   UNL     1      47.681  10.194  11.847  0.00  0.00    +0.000 A 
ATOM     17  C   UNL     1      46.698  11.103  11.450  0.00  0.00    +0.000 A 
ATOM     18  C   UNL     1      45.349  10.785  11.600  0.00  0.00    +0.000 A 
ATOM     19  C   UNL     1      44.980   9.586  12.203  0.00  0.00    +0.000 A 
ATOM     20  C   UNL     1      45.962   8.682  12.613  0.00  0.00    +0.000 A 
ENDBRANCH  14  15
BRANCH  14  22
ATOM     21  C   UNL     1      50.839   8.049  11.700  0.00  0.00    +0.000 C 
ATOM     22  C   UNL     1      49.364   8.016  11.356  0.00  0.00    +0.000 C 
ENDBRANCH  14  22
ENDBRANCH   1  14
TORSDOF 4
ENDMDL
MODEL 9
REMARK VINA RESULT:    -5.269      3.314      4.637
REMARK INTER + INTRA:          -7.095
REMARK INTER:                  -6.575
REMARK INTRA:                  -0.521
REMARK UNBOUND:                -0.594
REMARK  Name = 
REMARK  5 active torsions:
REMARK  status: ('A' for Active; 'I' for Inactive)
REMARK    1  A    between atoms: C_1  and  C_2
REMARK    2  A    between atoms: C_2  and  C_3
REMARK    3  A    between atoms: C_3  and  N_4
REMARK    4  A    between atoms: C_3  and  C_14
REMARK    5  A    between atoms: C_8  and  C_9
REMARK                            x       y       z     vdW  Elec       q    Type
REMARK                         _______ _______ _______ _____ _____    ______ ____
ROOT
ATOM      1  N   UNL     1      45.331   7.859  12.777  0.00  0.00    +0.000 N 
ATOM      2  C   UNL     1      44.945   6.627  12.247  0.00  0.00    +0.000 A 
ATOM      3  C   UNL     1      43.990   5.858  12.932  0.00  0.00    +0.000 A 
ATOM      4  N   UNL     1      43.577   4.616  12.559  0.00  0.00    +0.000 NA
ATOM      5  C   UNL     1      44.153   4.153  11.418  0.00  0.00    +0.000 A 
ATOM      6  C   UNL     1      45.082   4.899  10.713  0.00  0.00    +0.000 A 
ATOM      7  N   UNL     1      45.501   6.133  11.121  0.00  0.00    +0.000 NA
ATOM      8  H   UNL     1      44.552   8.499  12.870  0.00  0.00    +0.000 HD
ENDROOT
BRANCH   5   9
ATOM      9  C   UNL     1      43.802   2.772  10.981  0.00  0.00    +0.000 C 
ATOM     10  N   UNL     1      44.507   2.276   9.919  0.00  0.00    +0.000 N 
ATOM     11  O   UNL     1      42.926   2.118  11.536  0.00  0.00    +0.000 OA
ATOM     12  H   UNL     1      45.198   2.855   9.454  0.00  0.00    +0.000 HD
ATOM     13  H   UNL     1      44.279   1.362   9.556  0.00  0.00    +0.000 HD
ENDBRANCH   5   9
BRANCH   1  14
ATOM     14  C   UNL     1      46.576   8.478  12.330  0.00  0.00    +0.000 C 
BRANCH  14  15
ATOM     15  C   UNL     1      47.647   8.273  13.411  0.00  0.00    +0.000 A 
ATOM     16  C   UNL     1      48.235   9.388  14.026  0.00  0.00    +0.000 A 
ATOM     17  C   UNL     1      49.012   9.237  15.177  0.00  0.00    +0.000 A 
ATOM     18  C   UNL     1      49.224   7.969  15.718  0.00  0.00    +0.000 A 
ATOM     19  C   UNL     1      48.711   6.846  15.076  0.00  0.00    +0.000 A 
ATOM     20  C   UNL     1      47.946   6.994  13.918  0.00  0.00    +0.000 A 
ENDBRANCH  14  15
BRANCH  14  22
ATOM     21  C   UNL     1      45.103  10.525  11.721  0.00  0.00    +0.000 C 
ATOM     22  C   UNL     1      46.473  10.003  12.104  0.00  0.00    +0.000 C 
ENDBRANCH  14  22
ENDBRANCH   1  14
TORSDOF 4
ENDMDL
