MODEL 1
REMARK VINA RESULT:    -8.701      0.000      0.000
REMARK INTER + INTRA:         -10.705
REMARK INTER:                 -10.735
REMARK INTRA:                   0.030
REMARK UNBOUND:                 0.030
REMARK  Name = 
REMARK  4 active torsions:
REMARK  status: ('A' for Active; 'I' for Inactive)
REMARK    1  A    between atoms: C_2  and  C_5
REMARK    2  A    between atoms: C_9  and  C_10
REMARK    3  A    between atoms: C_10  and  N_11
REMARK    4  A    between atoms: C_16  and  C_17
REMARK                            x       y       z     vdW  Elec       q    Type
REMARK                         _______ _______ _______ _____ _____    ______ ____
ROOT
ATOM      1  N   UNL     1      44.289   2.645  12.138  0.00  0.00    +0.000 N 
ATOM      2  C   UNL     1      45.163   3.652  12.521  0.00  0.00    +0.000 A 
ATOM      3  N   UNL     1      46.263   3.231  13.156  0.00  0.00    +0.000 NA
ATOM      4  C   UNL     1      47.132   4.169  13.559  0.00  0.00    +0.000 A 
ATOM      5  C   UNL     1      46.955   5.510  13.333  0.00  0.00    +0.000 A 
ATOM      6  C   UNL     1      45.804   5.869  12.659  0.00  0.00    +0.000 A 
ATOM      7  N   UNL     1      44.900   4.940  12.260  0.00  0.00    +0.000 NA
ATOM      8  H   UNL     1      44.862   1.807  12.096  0.00  0.00    +0.000 HD
ENDROOT
BRANCH   6   9
ATOM      9  C   UNL     1      45.473   7.272  12.350  0.00  0.00    +0.000 A 
ATOM     10  C   UNL     1      46.112   8.367  12.955  0.00  0.00    +0.000 A 
ATOM     11  C   UNL     1      45.730   9.675  12.652  0.00  0.00    +0.000 A 
ATOM     12  C   UNL     1      44.713   9.866  11.735  0.00  0.00    +0.000 A 
ATOM     13  N   UNL     1      44.077   8.856  11.110  0.00  0.00    +0.000 NA
ATOM     14  C   UNL     1      44.474   7.595  11.428  0.00  0.00    +0.000 A 
ENDBRANCH   6   9
BRANCH   1  15
ATOM     15  C   UNL     1      43.555   2.911  10.914  0.00  0.00    +0.000 C 
BRANCH  15  20
ATOM     16  C   UNL     1      46.099   2.266   8.138  0.00  0.00    +0.000 A 
ATOM     17  C   UNL     1      46.359   3.588   7.762  0.00  0.00    +0.000 A 
ATOM     18  C   UNL     1      45.696   4.605   8.423  0.00  0.00    +0.000 A 
ATOM     19  N   UNL     1      44.803   4.396   9.412  0.00  0.00    +0.000 NA
ATOM     20  C   UNL     1      44.533   3.112   9.767  0.00  0.00    +0.000 A 
ATOM     21  C   UNL     1      45.171   2.030   9.164  0.00  0.00    +0.000 A 
BRANCH  16  23
ATOM     22  F   UNL     1      48.158   1.158   7.597  0.00  0.00    +0.000 F 
ATOM     23  C   UNL     1      46.801   1.117   7.464  0.00  0.00    +0.000 C 
ATOM     24  F   UNL     1      46.561   1.073   6.125  0.00  0.00    +0.000 F 
ATOM     25  F   UNL     1      46.416  -0.092   7.956  0.00  0.00    +0.000 F 
ENDBRANCH  16  23
ENDBRANCH  15  20
ENDBRANCH   1  15
TORSDOF 4
ENDMDL
MODEL 2
REMARK VINA RESULT:    -8.629      2.066      2.674
REMARK INTER + INTRA:         -10.617
REMARK INTER:                  -9.829
REMARK INTRA:                  -0.787
REMARK UNBOUND:                 0.030
REMARK  Name = 
REMARK  4 active torsions:
REMARK  status: ('A' for Active; 'I' for Inactive)
REMARK    1  A    between atoms: C_2  and  C_5
REMARK    2  A    between atoms: C_9  and  C_10
REMARK    3  A    between atoms: C_10  and  N_11
REMARK    4  A    between atoms: C_16  and  C_17
REMARK                            x       y       z     vdW  Elec       q    Type
REMARK                         _______ _______ _______ _____ _____    ______ ____
ROOT
ATOM      1  N   UNL     1      43.899   4.844  12.284  0.00  0.00    +0.000 N 
ATOM      2  C   UNL     1      45.136   5.183  12.811  0.00  0.00    +0.000 A 
ATOM      3  N   UNL     1      45.568   4.381  13.791  0.00  0.00    +0.000 NA
ATOM      4  C   UNL     1      46.754   4.677  14.343  0.00  0.00    +0.000 A 
ATOM      5  C   UNL     1      47.533   5.732  13.939  0.00  0.00    +0.000 A 
ATOM      6  C   UNL     1      47.029   6.506  12.914  0.00  0.00    +0.000 A 
ATOM      7  N   UNL     1      45.823   6.239  12.353  0.00  0.00    +0.000 NA
ATOM      8  H   UNL     1      43.784   3.858  12.504  0.00  0.00    +0.000 HD
ENDROOT
BRANCH   6   9
ATOM      9  C   UNL     1      47.749   7.676  12.377  0.00  0.00    +0.000 A 
ATOM     10  C   UNL     1      49.084   7.627  11.943  0.00  0.00    +0.000 A 
ATOM     11  C   UNL     1      49.728   8.776  11.480  0.00  0.00    +0.000 A 
ATOM     12  C   UNL     1      49.015   9.960  11.451  0.00  0.00    +0.000 A 
ATOM     13  N   UNL     1      47.729  10.064  11.837  0.00  0.00    +0.000 NA
ATOM     14  C   UNL     1      47.132   8.926  12.282  0.00  0.00    +0.000 A 
ENDBRANCH   6   9
BRANCH   1  15
ATOM     15  C   UNL     1      43.735   5.148  10.873  0.00  0.00    +0.000 C 
BRANCH  15  20
ATOM     16  C   UNL     1      45.781   3.227   8.281  0.00  0.00    +0.000 A 
ATOM     17  C   UNL     1      45.283   1.941   8.512  0.00  0.00    +0.000 A 
ATOM     18  C   UNL     1      44.321   1.771   9.491  0.00  0.00    +0.000 A 
ATOM     19  N   UNL     1      43.837   2.778  10.245  0.00  0.00    +0.000 NA
ATOM     20  C   UNL     1      44.333   4.027  10.037  0.00  0.00    +0.000 A 
ATOM     21  C   UNL     1      45.290   4.287   9.059  0.00  0.00    +0.000 A 
BRANCH  16  23
ATOM     22  F   UNL     1      46.326   3.393   5.950  0.00  0.00    +0.000 F 
ATOM     23  C   UNL     1      46.819   3.475   7.219  0.00  0.00    +0.000 C 
ATOM     24  F   UNL     1      47.847   2.585   7.276  0.00  0.00    +0.000 F 
ATOM     25  F   UNL     1      47.384   4.710   7.319  0.00  0.00    +0.000 F 
ENDBRANCH  16  23
ENDBRANCH  15  20
ENDBRANCH   1  15
TORSDOF 4
ENDMDL
MODEL 3
REMARK VINA RESULT:    -8.417      5.148      7.914
REMARK INTER + INTRA:         -10.355
REMARK INTER:                  -9.907
REMARK INTRA:                  -0.448
REMARK UNBOUND:                 0.030
REMARK  Name = 
REMARK  4 active torsions:
REMARK  status: ('A' for Active; 'I' for Inactive)
REMARK    1  A    between atoms: C_2  and  C_5
REMARK    2  A    between atoms: C_9  and  C_10
REMARK    3  A    between atoms: C_10  and  N_11
REMARK    4  A    between atoms: C_16  and  C_17
REMARK                            x       y       z     vdW  Elec       q    Type
REMARK                         _______ _______ _______ _____ _____    ______ ____
ROOT
ATOM      1  N   UNL     1      45.370   4.354  14.117  0.00  0.00    +0.000 N 
ATOM      2  C   UNL     1      44.728   4.491  12.895  0.00  0.00    +0.000 A 
ATOM      3  N   UNL     1      43.546   5.115  12.948  0.00  0.00    +0.000 NA
ATOM      4  C   UNL     1      42.881   5.260  11.793  0.00  0.00    +0.000 A 
ATOM      5  C   UNL     1      43.360   4.822  10.584  0.00  0.00    +0.000 A 
ATOM      6  C   UNL     1      44.593   4.200  10.606  0.00  0.00    +0.000 A 
ATOM      7  N   UNL     1      45.276   4.024  11.764  0.00  0.00    +0.000 NA
ATOM      8  H   UNL     1      44.972   5.083  14.703  0.00  0.00    +0.000 HD
ENDROOT
BRANCH   6   9
ATOM      9  C   UNL     1      45.235   3.672   9.388  0.00  0.00    +0.000 A 
ATOM     10  C   UNL     1      45.431   2.300   9.153  0.00  0.00    +0.000 A 
ATOM     11  C   UNL     1      46.080   1.859   7.998  0.00  0.00    +0.000 A 
ATOM     12  C   UNL     1      46.516   2.804   7.088  0.00  0.00    +0.000 A 
ATOM     13  N   UNL     1      46.339   4.129   7.251  0.00  0.00    +0.000 NA
ATOM     14  C   UNL     1      45.703   4.525   8.386  0.00  0.00    +0.000 A 
ENDBRANCH   6   9
BRANCH   1  15
ATOM     15  C   UNL     1      46.820   4.387  14.049  0.00  0.00    +0.000 C 
BRANCH  15  20
ATOM     16  C   UNL     1      47.915   4.393  17.710  0.00  0.00    +0.000 A 
ATOM     17  C   UNL     1      48.573   3.160  17.747  0.00  0.00    +0.000 A 
ATOM     18  C   UNL     1      48.620   2.401  16.593  0.00  0.00    +0.000 A 
ATOM     19  N   UNL     1      48.061   2.779  15.426  0.00  0.00    +0.000 NA
ATOM     20  C   UNL     1      47.403   3.968  15.390  0.00  0.00    +0.000 A 
ATOM     21  C   UNL     1      47.324   4.802  16.503  0.00  0.00    +0.000 A 
BRANCH  16  23
ATOM     22  F   UNL     1      48.575   6.415  18.821  0.00  0.00    +0.000 F 
ATOM     23  C   UNL     1      47.843   5.271  18.931  0.00  0.00    +0.000 C 
ATOM     24  F   UNL     1      48.299   4.644  20.050  0.00  0.00    +0.000 F 
ATOM     25  F   UNL     1      46.572   5.668  19.215  0.00  0.00    +0.000 F 
ENDBRANCH  16  23
ENDBRANCH  15  20
ENDBRANCH   1  15
TORSDOF 4
ENDMDL
MODEL 4
REMARK VINA RESULT:    -8.135      4.380      7.391
REMARK INTER + INTRA:         -10.007
REMARK INTER:                  -9.489
REMARK INTRA:                  -0.519
REMARK UNBOUND:                 0.030
REMARK  Name = 
REMARK  4 active torsions:
REMARK  status: ('A' for Active; 'I' for Inactive)
REMARK    1  A    between atoms: C_2  and  C_5
REMARK    2  A    between atoms: C_9  and  C_10
REMARK    3  A    between atoms: C_10  and  N_11
REMARK    4  A    between atoms: C_16  and  C_17
REMARK                            x       y       z     vdW  Elec       q    Type
REMARK                         _______ _______ _______ _____ _____    ______ ____
ROOT
ATOM      1  N   UNL     1      45.624   5.707  13.728  0.00  0.00    +0.000 N 
ATOM      2  C   UNL     1      44.891   5.361  12.603  0.00  0.00    +0.000 A 
ATOM      3  N   UNL     1      43.602   5.717  12.639  0.00  0.00    +0.000 NA
ATOM      4  C   UNL     1      42.849   5.391  11.579  0.00  0.00    +0.000 A 
ATOM      5  C   UNL     1      43.339   4.740  10.475  0.00  0.00    +0.000 A 
ATOM      6  C   UNL     1      44.681   4.417  10.503  0.00  0.00    +0.000 A 
ATOM      7  N   UNL     1      45.459   4.718  11.572  0.00  0.00    +0.000 NA
ATOM      8  H   UNL     1      45.106   6.473  14.150  0.00  0.00    +0.000 HD
ENDROOT
BRANCH   6   9
ATOM      9  C   UNL     1      45.349   3.712   9.393  0.00  0.00    +0.000 A 
ATOM     10  C   UNL     1      45.942   4.374   8.304  0.00  0.00    +0.000 A 
ATOM     11  C   UNL     1      46.527   3.653   7.262  0.00  0.00    +0.000 A 
ATOM     12  C   UNL     1      46.516   2.273   7.331  0.00  0.00    +0.000 A 
ATOM     13  N   UNL     1      45.979   1.585   8.358  0.00  0.00    +0.000 NA
ATOM     14  C   UNL     1      45.419   2.317   9.357  0.00  0.00    +0.000 A 
ENDBRANCH   6   9
BRANCH   1  15
ATOM     15  C   UNL     1      47.019   6.019  13.473  0.00  0.00    +0.000 C 
BRANCH  15  20
ATOM     16  C   UNL     1      48.292   4.474  16.727  0.00  0.00    +0.000 A 
ATOM     17  C   UNL     1      49.328   5.370  17.009  0.00  0.00    +0.000 A 
ATOM     18  C   UNL     1      49.556   6.414  16.131  0.00  0.00    +0.000 A 
ATOM     19  N   UNL     1      48.836   6.617  15.009  0.00  0.00    +0.000 NA
ATOM     20  C   UNL     1      47.841   5.738  14.721  0.00  0.00    +0.000 A 
ATOM     21  C   UNL     1      47.534   4.670  15.562  0.00  0.00    +0.000 A 
BRANCH  16  23
ATOM     22  F   UNL     1      46.697   2.893  17.572  0.00  0.00    +0.000 F 
ATOM     23  C   UNL     1      47.988   3.327  17.653  0.00  0.00    +0.000 C 
ATOM     24  F   UNL     1      48.191   3.645  18.961  0.00  0.00    +0.000 F 
ATOM     25  F   UNL     1      48.763   2.236  17.406  0.00  0.00    +0.000 F 
ENDBRANCH  16  23
ENDBRANCH  15  20
ENDBRANCH   1  15
TORSDOF 4
ENDMDL
MODEL 5
REMARK VINA RESULT:    -7.981      3.251      6.464
REMARK INTER + INTRA:          -9.818
REMARK INTER:                  -9.083
REMARK INTRA:                  -0.735
REMARK UNBOUND:                 0.030
REMARK  Name = 
REMARK  4 active torsions:
REMARK  status: ('A' for Active; 'I' for Inactive)
REMARK    1  A    between atoms: C_2  and  C_5
REMARK    2  A    between atoms: C_9  and  C_10
REMARK    3  A    between atoms: C_10  and  N_11
REMARK    4  A    between atoms: C_16  and  C_17
REMARK                            x       y       z     vdW  Elec       q    Type
REMARK                         _______ _______ _______ _____ _____    ______ ____
ROOT
ATOM      1  N   UNL     1      44.272   6.345  12.580  0.00  0.00    +0.000 N 
ATOM      2  C   UNL     1      44.192   5.077  12.024  0.00  0.00    +0.000 A 
ATOM      3  N   UNL     1      43.467   4.199  12.726  0.00  0.00    +0.000 NA
ATOM      4  C   UNL     1      43.373   2.955  12.235  0.00  0.00    +0.000 A 
ATOM      5  C   UNL     1      43.958   2.560  11.059  0.00  0.00    +0.000 A 
ATOM      6  C   UNL     1      44.678   3.524  10.382  0.00  0.00    +0.000 A 
ATOM      7  N   UNL     1      44.805   4.783  10.868  0.00  0.00    +0.000 NA
ATOM      8  H   UNL     1      43.461   6.413  13.189  0.00  0.00    +0.000 HD
ENDROOT
BRANCH   6   9
ATOM      9  C   UNL     1      45.367   3.247   9.108  0.00  0.00    +0.000 A 
ATOM     10  C   UNL     1      45.735   1.956   8.695  0.00  0.00    +0.000 A 
ATOM     11  C   UNL     1      46.422   1.758   7.495  0.00  0.00    +0.000 A 
ATOM     12  C   UNL     1      46.722   2.862   6.721  0.00  0.00    +0.000 A 
ATOM     13  N   UNL     1      46.379   4.121   7.057  0.00  0.00    +0.000 NA
ATOM     14  C   UNL     1      45.711   4.279   8.230  0.00  0.00    +0.000 A 
ENDBRANCH   6   9
BRANCH   1  15
ATOM     15  C   UNL     1      44.368   7.427  11.616  0.00  0.00    +0.000 C 
BRANCH  15  20
ATOM     16  C   UNL     1      48.062   8.238  12.158  0.00  0.00    +0.000 A 
ATOM     17  C   UNL     1      47.968   9.626  12.295  0.00  0.00    +0.000 A 
ATOM     18  C   UNL     1      46.721  10.216  12.200  0.00  0.00    +0.000 A 
ATOM     19  N   UNL     1      45.583   9.528  11.976  0.00  0.00    +0.000 NA
ATOM     20  C   UNL     1      45.673   8.180  11.823  0.00  0.00    +0.000 A 
ATOM     21  C   UNL     1      46.888   7.505  11.923  0.00  0.00    +0.000 A 
BRANCH  16  23
ATOM     22  F   UNL     1      50.111   7.560  11.109  0.00  0.00    +0.000 F 
ATOM     23  C   UNL     1      49.390   7.537  12.266  0.00  0.00    +0.000 C 
ATOM     24  F   UNL     1      49.261   6.223  12.597  0.00  0.00    +0.000 F 
ATOM     25  F   UNL     1      50.195   8.087  13.217  0.00  0.00    +0.000 F 
ENDBRANCH  16  23
ENDBRANCH  15  20
ENDBRANCH   1  15
TORSDOF 4
ENDMDL
MODEL 6
REMARK VINA RESULT:    -7.811      3.817      6.708
REMARK INTER + INTRA:          -9.607
REMARK INTER:                  -8.936
REMARK INTRA:                  -0.671
REMARK UNBOUND:                 0.030
REMARK  Name = 
REMARK  4 active torsions:
REMARK  status: ('A' for Active; 'I' for Inactive)
REMARK    1  A    between atoms: C_2  and  C_5
REMARK    2  A    between atoms: C_9  and  C_10
REMARK    3  A    between atoms: C_10  and  N_11
REMARK    4  A    between atoms: C_16  and  C_17
REMARK                            x       y       z     vdW  Elec       q    Type
REMARK                         _______ _______ _______ _____ _____    ______ ____
ROOT
ATOM      1  N   UNL     1      45.455   6.993  13.233  0.00  0.00    +0.000 N 
ATOM      2  C   UNL     1      44.780   5.962  12.596  0.00  0.00    +0.000 A 
ATOM      3  N   UNL     1      43.642   5.585  13.188  0.00  0.00    +0.000 NA
ATOM      4  C   UNL     1      42.960   4.581  12.617  0.00  0.00    +0.000 A 
ATOM      5  C   UNL     1      43.363   3.953  11.465  0.00  0.00    +0.000 A 
ATOM      6  C   UNL     1      44.540   4.406  10.903  0.00  0.00    +0.000 A 
ATOM      7  N   UNL     1      45.257   5.406  11.473  0.00  0.00    +0.000 NA
ATOM      8  H   UNL     1      44.744   7.467  13.783  0.00  0.00    +0.000 HD
ENDROOT
BRANCH   6   9
ATOM      9  C   UNL     1      45.103   3.826   9.669  0.00  0.00    +0.000 A 
ATOM     10  C   UNL     1      45.202   2.443   9.443  0.00  0.00    +0.000 A 
ATOM     11  C   UNL     1      45.780   1.949   8.272  0.00  0.00    +0.000 A 
ATOM     12  C   UNL     1      46.243   2.856   7.336  0.00  0.00    +0.000 A 
ATOM     13  N   UNL     1      46.158   4.191   7.490  0.00  0.00    +0.000 NA
ATOM     14  C   UNL     1      45.589   4.638   8.642  0.00  0.00    +0.000 A 
ENDBRANCH   6   9
BRANCH   1  15
ATOM     15  C   UNL     1      46.191   7.877  12.346  0.00  0.00    +0.000 C 
BRANCH  15  20
ATOM     16  C   UNL     1      50.008   7.999  12.242  0.00  0.00    +0.000 A 
ATOM     17  C   UNL     1      50.272   7.876  13.610  0.00  0.00    +0.000 A 
ATOM     18  C   UNL     1      49.205   7.766  14.482  0.00  0.00    +0.000 A 
ATOM     19  N   UNL     1      47.915   7.775  14.089  0.00  0.00    +0.000 NA
ATOM     20  C   UNL     1      47.653   7.914  12.762  0.00  0.00    +0.000 A 
ATOM     21  C   UNL     1      48.671   8.013  11.816  0.00  0.00    +0.000 A 
BRANCH  16  23
ATOM     22  F   UNL     1      51.135   9.289  10.562  0.00  0.00    +0.000 F 
ATOM     23  C   UNL     1      51.130   8.108  11.244  0.00  0.00    +0.000 C 
ATOM     24  F   UNL     1      51.080   7.132  10.296  0.00  0.00    +0.000 F 
ATOM     25  F   UNL     1      52.357   8.008  11.824  0.00  0.00    +0.000 F 
ENDBRANCH  16  23
ENDBRANCH  15  20
ENDBRANCH   1  15
TORSDOF 4
ENDMDL
MODEL 7
REMARK VINA RESULT:    -7.745      2.942      5.044
REMARK INTER + INTRA:          -9.526
REMARK INTER:                  -8.873
REMARK INTRA:                  -0.653
REMARK UNBOUND:                 0.030
REMARK  Name = 
REMARK  4 active torsions:
REMARK  status: ('A' for Active; 'I' for Inactive)
REMARK    1  A    between atoms: C_2  and  C_5
REMARK    2  A    between atoms: C_9  and  C_10
REMARK    3  A    between atoms: C_10  and  N_11
REMARK    4  A    between atoms: C_16  and  C_17
REMARK                            x       y       z     vdW  Elec       q    Type
REMARK                         _______ _______ _______ _____ _____    ______ ____
ROOT
ATOM      1  N   UNL     1      46.404   6.898  12.160  0.00  0.00    +0.000 N 
ATOM      2  C   UNL     1      47.341   6.905  13.183  0.00  0.00    +0.000 A 
ATOM      3  N   UNL     1      48.259   7.874  13.098  0.00  0.00    +0.000 NA
ATOM      4  C   UNL     1      49.196   7.913  14.057  0.00  0.00    +0.000 A 
ATOM      5  C   UNL     1      49.238   7.033  15.108  0.00  0.00    +0.000 A 
ATOM      6  C   UNL     1      48.249   6.070  15.138  0.00  0.00    +0.000 A 
ATOM      7  N   UNL     1      47.304   5.997  14.169  0.00  0.00    +0.000 NA
ATOM      8  H   UNL     1      46.410   7.847  11.796  0.00  0.00    +0.000 HD
ENDROOT
BRANCH   6   9
ATOM      9  C   UNL     1      48.168   5.051  16.201  0.00  0.00    +0.000 A 
ATOM     10  C   UNL     1      49.164   4.873  17.176  0.00  0.00    +0.000 A 
ATOM     11  C   UNL     1      49.052   3.866  18.137  0.00  0.00    +0.000 A 
ATOM     12  C   UNL     1      47.932   3.056  18.111  0.00  0.00    +0.000 A 
ATOM     13  N   UNL     1      46.938   3.192  17.213  0.00  0.00    +0.000 NA
ATOM     14  C   UNL     1      47.078   4.182  16.292  0.00  0.00    +0.000 A 
ENDBRANCH   6   9
BRANCH   1  15
ATOM     15  C   UNL     1      45.084   6.431  12.548  0.00  0.00    +0.000 C 
BRANCH  15  20
ATOM     16  C   UNL     1      44.896   3.783   9.802  0.00  0.00    +0.000 A 
ATOM     17  C   UNL     1      43.977   2.911  10.395  0.00  0.00    +0.000 A 
ATOM     18  C   UNL     1      43.479   3.228  11.645  0.00  0.00    +0.000 A 
ATOM     19  N   UNL     1      43.832   4.333  12.333  0.00  0.00    +0.000 NA
ATOM     20  C   UNL     1      44.739   5.173  11.768  0.00  0.00    +0.000 A 
ATOM     21  C   UNL     1      45.277   4.937  10.505  0.00  0.00    +0.000 A 
BRANCH  16  23
ATOM     22  F   UNL     1      44.512   3.411   7.462  0.00  0.00    +0.000 F 
ATOM     23  C   UNL     1      45.462   3.498   8.436  0.00  0.00    +0.000 C 
ATOM     24  F   UNL     1      46.148   2.323   8.392  0.00  0.00    +0.000 F 
ATOM     25  F   UNL     1      46.333   4.458   8.021  0.00  0.00    +0.000 F 
ENDBRANCH  16  23
ENDBRANCH  15  20
ENDBRANCH   1  15
TORSDOF 4
ENDMDL
MODEL 8
REMARK VINA RESULT:    -7.667      4.941      7.381
REMARK INTER + INTRA:          -9.430
REMARK INTER:                  -8.939
REMARK INTRA:                  -0.490
REMARK UNBOUND:                 0.030
REMARK  Name = 
REMARK  4 active torsions:
REMARK  status: ('A' for Active; 'I' for Inactive)
REMARK    1  A    between atoms: C_2  and  C_5
REMARK    2  A    between atoms: C_9  and  C_10
REMARK    3  A    between atoms: C_10  and  N_11
REMARK    4  A    between atoms: C_16  and  C_17
REMARK                            x       y       z     vdW  Elec       q    Type
REMARK                         _______ _______ _______ _____ _____    ______ ____
ROOT
ATOM      1  N   UNL     1      47.724   5.969  15.448  0.00  0.00    +0.000 N 
ATOM      2  C   UNL     1      48.613   5.792  16.498  0.00  0.00    +0.000 A 
ATOM      3  N   UNL     1      48.625   6.782  17.398  0.00  0.00    +0.000 NA
ATOM      4  C   UNL     1      49.479   6.663  18.424  0.00  0.00    +0.000 A 
ATOM      5  C   UNL     1      50.308   5.583  18.597  0.00  0.00    +0.000 A 
ATOM      6  C   UNL     1      50.230   4.595  17.636  0.00  0.00    +0.000 A 
ATOM      7  N   UNL     1      49.389   4.701  16.578  0.00  0.00    +0.000 NA
ATOM      8  H   UNL     1      47.030   6.620  15.803  0.00  0.00    +0.000 HD
ENDROOT
BRANCH   6   9
ATOM      9  C   UNL     1      51.063   3.378  17.683  0.00  0.00    +0.000 A 
ATOM     10  C   UNL     1      52.405   3.377  18.099  0.00  0.00    +0.000 A 
ATOM     11  C   UNL     1      53.157   2.201  18.086  0.00  0.00    +0.000 A 
ATOM     12  C   UNL     1      52.545   1.036  17.663  0.00  0.00    +0.000 A 
ATOM     13  N   UNL     1      51.258   0.973  17.270  0.00  0.00    +0.000 NA
ATOM     14  C   UNL     1      50.555   2.136  17.295  0.00  0.00    +0.000 A 
ENDBRANCH   6   9
BRANCH   1  15
ATOM     15  C   UNL     1      47.155   4.741  14.920  0.00  0.00    +0.000 C 
BRANCH  15  20
ATOM     16  C   UNL     1      44.789   4.563  11.926  0.00  0.00    +0.000 A 
ATOM     17  C   UNL     1      45.368   5.553  11.125  0.00  0.00    +0.000 A 
ATOM     18  C   UNL     1      46.482   6.219  11.601  0.00  0.00    +0.000 A 
ATOM     19  N   UNL     1      47.044   5.973  12.801  0.00  0.00    +0.000 NA
ATOM     20  C   UNL     1      46.473   5.026  13.592  0.00  0.00    +0.000 A 
ATOM     21  C   UNL     1      45.360   4.296  13.180  0.00  0.00    +0.000 A 
BRANCH  16  23
ATOM     22  F   UNL     1      42.444   4.541  11.418  0.00  0.00    +0.000 F 
ATOM     23  C   UNL     1      43.583   3.794  11.456  0.00  0.00    +0.000 C 
ATOM     24  F   UNL     1      43.302   2.728  12.255  0.00  0.00    +0.000 F 
ATOM     25  F   UNL     1      43.740   3.292  10.201  0.00  0.00    +0.000 F 
ENDBRANCH  16  23
ENDBRANCH  15  20
ENDBRANCH   1  15
TORSDOF 4
ENDMDL
MODEL 9
REMARK VINA RESULT:    -7.606      4.302      5.646
REMARK INTER + INTRA:          -9.354
REMARK INTER:                  -8.886
REMARK INTRA:                  -0.468
REMARK UNBOUND:                 0.030
REMARK  Name = 
REMARK  4 active torsions:
REMARK  status: ('A' for Active; 'I' for Inactive)
REMARK    1  A    between atoms: C_2  and  C_5
REMARK    2  A    between atoms: C_9  and  C_10
REMARK    3  A    between atoms: C_10  and  N_11
REMARK    4  A    between atoms: C_16  and  C_17
REMARK                            x       y       z     vdW  Elec       q    Type
REMARK                         _______ _______ _______ _____ _____    ______ ____
ROOT
ATOM      1  N   UNL     1      46.723   3.701  14.504  0.00  0.00    +0.000 N 
ATOM      2  C   UNL     1      47.504   3.685  15.650  0.00  0.00    +0.000 A 
ATOM      3  N   UNL     1      48.343   2.648  15.743  0.00  0.00    +0.000 NA
ATOM      4  C   UNL     1      49.111   2.580  16.841  0.00  0.00    +0.000 A 
ATOM      5  C   UNL     1      49.086   3.521  17.839  0.00  0.00    +0.000 A 
ATOM      6  C   UNL     1      48.206   4.571  17.666  0.00  0.00    +0.000 A 
ATOM      7  N   UNL     1      47.405   4.650  16.575  0.00  0.00    +0.000 NA
ATOM      8  H   UNL     1      47.232   3.131  13.834  0.00  0.00    +0.000 HD
ENDROOT
BRANCH   6   9
ATOM      9  C   UNL     1      48.062   5.655  18.656  0.00  0.00    +0.000 A 
ATOM     10  C   UNL     1      47.824   5.426  20.022  0.00  0.00    +0.000 A 
ATOM     11  C   UNL     1      47.657   6.492  20.907  0.00  0.00    +0.000 A 
ATOM     12  C   UNL     1      47.743   7.779  20.409  0.00  0.00    +0.000 A 
ATOM     13  N   UNL     1      47.987   8.059  19.114  0.00  0.00    +0.000 NA
ATOM     14  C   UNL     1      48.145   6.998  18.279  0.00  0.00    +0.000 A 
ENDBRANCH   6   9
BRANCH   1  15
ATOM     15  C   UNL     1      46.396   5.028  14.010  0.00  0.00    +0.000 C 
BRANCH  15  20
ATOM     16  C   UNL     1      44.631   4.539  10.657  0.00  0.00    +0.000 A 
ATOM     17  C   UNL     1      43.324   4.849  11.046  0.00  0.00    +0.000 A 
ATOM     18  C   UNL     1      43.091   5.192  12.365  0.00  0.00    +0.000 A 
ATOM     19  N   UNL     1      44.055   5.241  13.306  0.00  0.00    +0.000 NA
ATOM     20  C   UNL     1      45.324   4.921  12.937  0.00  0.00    +0.000 A 
ATOM     21  C   UNL     1      45.647   4.582  11.625  0.00  0.00    +0.000 A 
BRANCH  16  23
ATOM     22  F   UNL     1      45.384   2.888   9.087  0.00  0.00    +0.000 F 
ATOM     23  C   UNL     1      44.949   4.172   9.232  0.00  0.00    +0.000 C 
ATOM     24  F   UNL     1      45.923   4.958   8.697  0.00  0.00    +0.000 F 
ATOM     25  F   UNL     1      43.872   4.295   8.408  0.00  0.00    +0.000 F 
ENDBRANCH  16  23
ENDBRANCH  15  20
ENDBRANCH   1  15
TORSDOF 4
ENDMDL
