MODEL 1
REMARK VINA RESULT:    -7.000      0.000      0.000
REMARK INTER + INTRA:          -8.894
REMARK INTER:                  -8.637
REMARK INTRA:                  -0.257
REMARK UNBOUND:                -0.257
REMARK  Name = 
REMARK  5 active torsions:
REMARK  status: ('A' for Active; 'I' for Inactive)
REMARK    1  A    between atoms: C_1  and  S_2
REMARK    2  A    between atoms: S_2  and  C_3
REMARK    3  A    between atoms: C_7  and  C_8
REMARK    4  A    between atoms: N_14  and  C_15
REMARK    5  A    between atoms: C_15  and  C_16
REMARK                            x       y       z     vdW  Elec       q    Type
REMARK                         _______ _______ _______ _____ _____    ______ ____
ROOT
ATOM      1  C   UNL     1      44.260   3.987  11.128  0.00  0.00    +0.000 A 
ATOM      2  N   UNL     1      44.321   2.868  10.437  0.00  0.00    +0.000 NA
ATOM      3  C   UNL     1      45.139   3.152   9.373  0.00  0.00    +0.000 A 
ATOM      4  C   UNL     1      45.569   2.353   8.306  0.00  0.00    +0.000 A 
ATOM      5  C   UNL     1      46.424   2.946   7.367  0.00  0.00    +0.000 A 
ATOM      6  C   UNL     1      46.807   4.278   7.556  0.00  0.00    +0.000 A 
ATOM      7  N   UNL     1      46.417   5.090   8.577  0.00  0.00    +0.000 NA
ATOM      8  C   UNL     1      45.584   4.467   9.433  0.00  0.00    +0.000 A 
ATOM      9  N   UNL     1      44.988   4.997  10.549  0.00  0.00    +0.000 N 
ENDROOT
BRANCH   5  10
ATOM     10  C   UNL     1      46.950   2.241   6.172  0.00  0.00    +0.000 C 
ATOM     11  N   UNL     1      47.213   2.963   5.042  0.00  0.00    +0.000 N 
ATOM     12  O   UNL     1      47.152   1.034   6.190  0.00  0.00    +0.000 OA
ATOM     13  H   UNL     1      47.103   3.961   4.942  0.00  0.00    +0.000 HD
ATOM     14  H   UNL     1      47.588   2.451   4.255  0.00  0.00    +0.000 HD
ENDBRANCH   5  10
BRANCH   1  16
ATOM     15  C   UNL     1      42.260   5.527  12.175  0.00  0.00    +0.000 C 
ATOM     16  S   UNL     1      43.393   4.190  12.617  0.00  0.00    +0.000 S 
ENDBRANCH   1  16
BRANCH   9  17
ATOM     17  C   UNL     1      45.215   6.345  11.036  0.00  0.00    +0.000 C 
BRANCH  17  18
ATOM     18  C   UNL     1      46.527   6.504  11.754  0.00  0.00    +0.000 A 
ATOM     19  C   UNL     1      47.446   7.494  11.388  0.00  0.00    +0.000 A 
ATOM     20  C   UNL     1      48.601   7.682  12.143  0.00  0.00    +0.000 A 
ATOM     21  C   UNL     1      48.809   6.865  13.240  0.00  0.00    +0.000 A 
ATOM     22  N   UNL     1      47.962   5.883  13.611  0.00  0.00    +0.000 NA
ATOM     23  C   UNL     1      46.845   5.724  12.864  0.00  0.00    +0.000 A 
ENDBRANCH  17  18
ENDBRANCH   9  17
TORSDOF 4
ENDMDL
MODEL 2
REMARK VINA RESULT:    -6.331      3.892      6.043
REMARK INTER + INTRA:          -8.069
REMARK INTER:                  -7.604
REMARK INTRA:                  -0.465
REMARK UNBOUND:                -0.257
REMARK  Name = 
REMARK  5 active torsions:
REMARK  status: ('A' for Active; 'I' for Inactive)
REMARK    1  A    between atoms: C_1  and  S_2
REMARK    2  A    between atoms: S_2  and  C_3
REMARK    3  A    between atoms: C_7  and  C_8
REMARK    4  A    between atoms: N_14  and  C_15
REMARK    5  A    between atoms: C_15  and  C_16
REMARK                            x       y       z     vdW  Elec       q    Type
REMARK                         _______ _______ _______ _____ _____    ______ ____
ROOT
ATOM      1  C   UNL     1      48.257   6.576  14.760  0.00  0.00    +0.000 A 
ATOM      2  N   UNL     1      48.010   6.955  13.524  0.00  0.00    +0.000 NA
ATOM      3  C   UNL     1      47.074   6.066  13.061  0.00  0.00    +0.000 A 
ATOM      4  C   UNL     1      46.434   5.969  11.818  0.00  0.00    +0.000 A 
ATOM      5  C   UNL     1      45.503   4.933  11.657  0.00  0.00    +0.000 A 
ATOM      6  C   UNL     1      45.258   4.078  12.736  0.00  0.00    +0.000 A 
ATOM      7  N   UNL     1      45.853   4.136  13.959  0.00  0.00    +0.000 NA
ATOM      8  C   UNL     1      46.747   5.139  14.043  0.00  0.00    +0.000 A 
ATOM      9  N   UNL     1      47.537   5.463  15.118  0.00  0.00    +0.000 N 
ENDROOT
BRANCH   5  10
ATOM     10  C   UNL     1      44.758   4.685  10.398  0.00  0.00    +0.000 C 
ATOM     11  N   UNL     1      45.304   5.099   9.216  0.00  0.00    +0.000 N 
ATOM     12  O   UNL     1      43.675   4.115  10.407  0.00  0.00    +0.000 OA
ATOM     13  H   UNL     1      46.199   5.550   9.106  0.00  0.00    +0.000 HD
ATOM     14  H   UNL     1      44.776   4.895   8.378  0.00  0.00    +0.000 HD
ENDBRANCH   5  10
BRANCH   1  16
ATOM     15  C   UNL     1      50.683   7.835  14.725  0.00  0.00    +0.000 C 
ATOM     16  S   UNL     1      49.341   7.382  15.849  0.00  0.00    +0.000 S 
ENDBRANCH   1  16
BRANCH   9  17
ATOM     17  C   UNL     1      47.489   4.788  16.402  0.00  0.00    +0.000 C 
BRANCH  17  18
ATOM     18  C   UNL     1      48.619   3.816  16.604  0.00  0.00    +0.000 A 
ATOM     19  C   UNL     1      49.705   4.120  17.433  0.00  0.00    +0.000 A 
ATOM     20  C   UNL     1      50.678   3.155  17.683  0.00  0.00    +0.000 A 
ATOM     21  C   UNL     1      50.542   1.915  17.085  0.00  0.00    +0.000 A 
ATOM     22  N   UNL     1      49.526   1.591  16.260  0.00  0.00    +0.000 NA
ATOM     23  C   UNL     1      48.591   2.543  16.037  0.00  0.00    +0.000 A 
ENDBRANCH  17  18
ENDBRANCH   9  17
TORSDOF 4
ENDMDL
MODEL 3
REMARK VINA RESULT:    -6.250      4.494      7.934
REMARK INTER + INTRA:          -7.969
REMARK INTER:                  -7.564
REMARK INTRA:                  -0.404
REMARK UNBOUND:                -0.257
REMARK  Name = 
REMARK  5 active torsions:
REMARK  status: ('A' for Active; 'I' for Inactive)
REMARK    1  A    between atoms: C_1  and  S_2
REMARK    2  A    between atoms: S_2  and  C_3
REMARK    3  A    between atoms: C_7  and  C_8
REMARK    4  A    between atoms: N_14  and  C_15
REMARK    5  A    between atoms: C_15  and  C_16
REMARK                            x       y       z     vdW  Elec       q    Type
REMARK                         _______ _______ _______ _____ _____    ______ ____
ROOT
ATOM      1  C   UNL     1      47.436   5.971  13.538  0.00  0.00    +0.000 A 
ATOM      2  N   UNL     1      48.030   6.536  14.568  0.00  0.00    +0.000 NA
ATOM      3  C   UNL     1      47.982   5.596  15.565  0.00  0.00    +0.000 A 
ATOM      4  C   UNL     1      48.455   5.629  16.884  0.00  0.00    +0.000 A 
ATOM      5  C   UNL     1      48.254   4.482  17.665  0.00  0.00    +0.000 A 
ATOM      6  C   UNL     1      47.617   3.380  17.086  0.00  0.00    +0.000 A 
ATOM      7  N   UNL     1      47.145   3.302  15.811  0.00  0.00    +0.000 NA
ATOM      8  C   UNL     1      47.352   4.439  15.121  0.00  0.00    +0.000 A 
ATOM      9  N   UNL     1      46.982   4.707  13.827  0.00  0.00    +0.000 N 
ENDROOT
BRANCH   5  10
ATOM     10  C   UNL     1      48.677   4.368  19.082  0.00  0.00    +0.000 C 
ATOM     11  N   UNL     1      48.334   3.248  19.785  0.00  0.00    +0.000 N 
ATOM     12  O   UNL     1      49.327   5.255  19.620  0.00  0.00    +0.000 OA
ATOM     13  H   UNL     1      47.825   2.457  19.421  0.00  0.00    +0.000 HD
ATOM     14  H   UNL     1      48.656   3.198  20.742  0.00  0.00    +0.000 HD
ENDBRANCH   5  10
BRANCH   1  16
ATOM     15  C   UNL     1      45.846   7.796  12.269  0.00  0.00    +0.000 C 
ATOM     16  S   UNL     1      47.252   6.699  11.974  0.00  0.00    +0.000 S 
ENDBRANCH   1  16
BRANCH   9  17
ATOM     17  C   UNL     1      46.336   3.752  12.946  0.00  0.00    +0.000 C 
BRANCH  17  18
ATOM     18  C   UNL     1      44.991   4.211  12.456  0.00  0.00    +0.000 A 
ATOM     19  C   UNL     1      44.022   4.707  13.336  0.00  0.00    +0.000 A 
ATOM     20  C   UNL     1      42.829   5.224  12.836  0.00  0.00    +0.000 A 
ATOM     21  C   UNL     1      42.635   5.219  11.466  0.00  0.00    +0.000 A 
ATOM     22  N   UNL     1      43.531   4.728  10.586  0.00  0.00    +0.000 NA
ATOM     23  C   UNL     1      44.684   4.236  11.097  0.00  0.00    +0.000 A 
ENDBRANCH  17  18
ENDBRANCH   9  17
TORSDOF 4
ENDMDL
MODEL 4
REMARK VINA RESULT:    -6.181      3.001      6.234
REMARK INTER + INTRA:          -7.884
REMARK INTER:                  -7.451
REMARK INTRA:                  -0.433
REMARK UNBOUND:                -0.257
REMARK  Name = 
REMARK  5 active torsions:
REMARK  status: ('A' for Active; 'I' for Inactive)
REMARK    1  A    between atoms: C_1  and  S_2
REMARK    2  A    between atoms: S_2  and  C_3
REMARK    3  A    between atoms: C_7  and  C_8
REMARK    4  A    between atoms: N_14  and  C_15
REMARK    5  A    between atoms: C_15  and  C_16
REMARK                            x       y       z     vdW  Elec       q    Type
REMARK                         _______ _______ _______ _____ _____    ______ ____
ROOT
ATOM      1  C   UNL     1      44.932   6.858  11.951  0.00  0.00    +0.000 A 
ATOM      2  N   UNL     1      45.745   7.085  12.961  0.00  0.00    +0.000 NA
ATOM      3  C   UNL     1      46.128   5.843  13.396  0.00  0.00    +0.000 A 
ATOM      4  C   UNL     1      46.982   5.456  14.437  0.00  0.00    +0.000 A 
ATOM      5  C   UNL     1      47.179   4.081  14.626  0.00  0.00    +0.000 A 
ATOM      6  C   UNL     1      46.534   3.187  13.765  0.00  0.00    +0.000 A 
ATOM      7  N   UNL     1      45.700   3.516  12.741  0.00  0.00    +0.000 NA
ATOM      8  C   UNL     1      45.539   4.849  12.624  0.00  0.00    +0.000 A 
ATOM      9  N   UNL     1      44.752   5.516  11.720  0.00  0.00    +0.000 N 
ENDROOT
BRANCH   5  10
ATOM     10  C   UNL     1      48.036   3.512  15.695  0.00  0.00    +0.000 C 
ATOM     11  N   UNL     1      48.289   4.264  16.807  0.00  0.00    +0.000 N 
ATOM     12  O   UNL     1      48.507   2.387  15.594  0.00  0.00    +0.000 OA
ATOM     13  H   UNL     1      47.925   5.186  16.991  0.00  0.00    +0.000 HD
ATOM     14  H   UNL     1      48.861   3.834  17.522  0.00  0.00    +0.000 HD
ENDBRANCH   5  10
BRANCH   1  16
ATOM     15  C   UNL     1      44.783   9.582  11.798  0.00  0.00    +0.000 C 
ATOM     16  S   UNL     1      44.179   8.086  10.984  0.00  0.00    +0.000 S 
ENDBRANCH   1  16
BRANCH   9  17
ATOM     17  C   UNL     1      43.986   4.871  10.669  0.00  0.00    +0.000 C 
BRANCH  17  18
ATOM     18  C   UNL     1      44.847   4.210   9.628  0.00  0.00    +0.000 A 
ATOM     19  C   UNL     1      44.783   2.831   9.395  0.00  0.00    +0.000 A 
ATOM     20  C   UNL     1      45.513   2.269   8.351  0.00  0.00    +0.000 A 
ATOM     21  C   UNL     1      46.298   3.104   7.574  0.00  0.00    +0.000 A 
ATOM     22  N   UNL     1      46.407   4.432   7.782  0.00  0.00    +0.000 NA
ATOM     23  C   UNL     1      45.684   4.954   8.799  0.00  0.00    +0.000 A 
ENDBRANCH  17  18
ENDBRANCH   9  17
TORSDOF 4
ENDMDL
MODEL 5
REMARK VINA RESULT:    -6.116      2.860      6.003
REMARK INTER + INTRA:          -7.802
REMARK INTER:                  -7.685
REMARK INTRA:                  -0.118
REMARK UNBOUND:                -0.257
REMARK  Name = 
REMARK  5 active torsions:
REMARK  status: ('A' for Active; 'I' for Inactive)
REMARK    1  A    between atoms: C_1  and  S_2
REMARK    2  A    between atoms: S_2  and  C_3
REMARK    3  A    between atoms: C_7  and  C_8
REMARK    4  A    between atoms: N_14  and  C_15
REMARK    5  A    between atoms: C_15  and  C_16
REMARK                            x       y       z     vdW  Elec       q    Type
REMARK                         _______ _______ _______ _____ _____    ______ ____
ROOT
ATOM      1  C   UNL     1      45.189   4.862  12.809  0.00  0.00    +0.000 A 
ATOM      2  N   UNL     1      46.009   5.029  13.826  0.00  0.00    +0.000 NA
ATOM      3  C   UNL     1      47.005   5.841  13.348  0.00  0.00    +0.000 A 
ATOM      4  C   UNL     1      48.149   6.357  13.972  0.00  0.00    +0.000 A 
ATOM      5  C   UNL     1      48.983   7.179  13.201  0.00  0.00    +0.000 A 
ATOM      6  C   UNL     1      48.622   7.446  11.876  0.00  0.00    +0.000 A 
ATOM      7  N   UNL     1      47.522   6.970  11.230  0.00  0.00    +0.000 NA
ATOM      8  C   UNL     1      46.774   6.174  12.019  0.00  0.00    +0.000 A 
ATOM      9  N   UNL     1      45.620   5.514  11.680  0.00  0.00    +0.000 N 
ENDROOT
BRANCH   5  10
ATOM     10  C   UNL     1      50.238   7.785  13.709  0.00  0.00    +0.000 C 
ATOM     11  N   UNL     1      50.786   7.298  14.861  0.00  0.00    +0.000 N 
ATOM     12  O   UNL     1      50.784   8.702  13.109  0.00  0.00    +0.000 OA
ATOM     13  H   UNL     1      50.425   6.531  15.408  0.00  0.00    +0.000 HD
ATOM     14  H   UNL     1      51.652   7.724  15.165  0.00  0.00    +0.000 HD
ENDBRANCH   5  10
BRANCH   1  16
ATOM     15  C   UNL     1      42.503   5.235  12.470  0.00  0.00    +0.000 C 
ATOM     16  S   UNL     1      43.713   3.951  12.862  0.00  0.00    +0.000 S 
ENDBRANCH   1  16
BRANCH   9  17
ATOM     17  C   UNL     1      44.966   5.619  10.388  0.00  0.00    +0.000 C 
BRANCH  17  18
ATOM     18  C   UNL     1      45.342   4.513   9.441  0.00  0.00    +0.000 A 
ATOM     19  C   UNL     1      46.133   4.754   8.312  0.00  0.00    +0.000 A 
ATOM     20  C   UNL     1      46.552   3.690   7.518  0.00  0.00    +0.000 A 
ATOM     21  C   UNL     1      46.156   2.411   7.871  0.00  0.00    +0.000 A 
ATOM     22  N   UNL     1      45.373   2.139   8.934  0.00  0.00    +0.000 NA
ATOM     23  C   UNL     1      44.984   3.190   9.693  0.00  0.00    +0.000 A 
ENDBRANCH  17  18
ENDBRANCH   9  17
TORSDOF 4
ENDMDL
MODEL 6
REMARK VINA RESULT:    -5.996      3.066      4.515
REMARK INTER + INTRA:          -7.655
REMARK INTER:                  -7.242
REMARK INTRA:                  -0.413
REMARK UNBOUND:                -0.257
REMARK  Name = 
REMARK  5 active torsions:
REMARK  status: ('A' for Active; 'I' for Inactive)
REMARK    1  A    between atoms: C_1  and  S_2
REMARK    2  A    between atoms: S_2  and  C_3
REMARK    3  A    between atoms: C_7  and  C_8
REMARK    4  A    between atoms: N_14  and  C_15
REMARK    5  A    between atoms: C_15  and  C_16
REMARK                            x       y       z     vdW  Elec       q    Type
REMARK                         _______ _______ _______ _____ _____    ______ ____
ROOT
ATOM      1  C   UNL     1      47.424   5.350  14.785  0.00  0.00    +0.000 A 
ATOM      2  N   UNL     1      46.824   4.247  14.389  0.00  0.00    +0.000 NA
ATOM      3  C   UNL     1      46.242   4.570  13.190  0.00  0.00    +0.000 A 
ATOM      4  C   UNL     1      45.474   3.803  12.305  0.00  0.00    +0.000 A 
ATOM      5  C   UNL     1      45.022   4.434  11.137  0.00  0.00    +0.000 A 
ATOM      6  C   UNL     1      45.373   5.770  10.918  0.00  0.00    +0.000 A 
ATOM      7  N   UNL     1      46.118   6.552  11.748  0.00  0.00    +0.000 NA
ATOM      8  C   UNL     1      46.504   5.893  12.857  0.00  0.00    +0.000 A 
ATOM      9  N   UNL     1      47.240   6.388  13.905  0.00  0.00    +0.000 N 
ENDROOT
BRANCH   5  10
ATOM     10  C   UNL     1      44.184   3.765  10.112  0.00  0.00    +0.000 C 
ATOM     11  N   UNL     1      44.011   4.374   8.901  0.00  0.00    +0.000 N 
ATOM     12  O   UNL     1      43.656   2.683  10.336  0.00  0.00    +0.000 OA
ATOM     13  H   UNL     1      44.425   5.248   8.617  0.00  0.00    +0.000 HD
ATOM     14  H   UNL     1      43.449   3.878   8.222  0.00  0.00    +0.000 HD
ENDBRANCH   5  10
BRANCH   1  16
ATOM     15  C   UNL     1      47.441   4.437  17.361  0.00  0.00    +0.000 C 
ATOM     16  S   UNL     1      48.368   5.503  16.233  0.00  0.00    +0.000 S 
ENDBRANCH   1  16
BRANCH   9  17
ATOM     17  C   UNL     1      47.787   7.731  13.959  0.00  0.00    +0.000 C 
BRANCH  17  18
ATOM     18  C   UNL     1      49.140   7.847  13.313  0.00  0.00    +0.000 A 
ATOM     19  C   UNL     1      49.295   7.786  11.923  0.00  0.00    +0.000 A 
ATOM     20  C   UNL     1      50.546   8.006  11.354  0.00  0.00    +0.000 A 
ATOM     21  C   UNL     1      51.613   8.270  12.195  0.00  0.00    +0.000 A 
ATOM     22  N   UNL     1      51.512   8.311  13.539  0.00  0.00    +0.000 NA
ATOM     23  C   UNL     1      50.285   8.099  14.067  0.00  0.00    +0.000 A 
ENDBRANCH  17  18
ENDBRANCH   9  17
TORSDOF 4
ENDMDL
MODEL 7
REMARK VINA RESULT:    -5.583      4.790      6.894
REMARK INTER + INTRA:          -7.145
REMARK INTER:                  -6.694
REMARK INTRA:                  -0.451
REMARK UNBOUND:                -0.257
REMARK  Name = 
REMARK  5 active torsions:
REMARK  status: ('A' for Active; 'I' for Inactive)
REMARK    1  A    between atoms: C_1  and  S_2
REMARK    2  A    between atoms: S_2  and  C_3
REMARK    3  A    between atoms: C_7  and  C_8
REMARK    4  A    between atoms: N_14  and  C_15
REMARK    5  A    between atoms: C_15  and  C_16
REMARK                            x       y       z     vdW  Elec       q    Type
REMARK                         _______ _______ _______ _____ _____    ______ ____
ROOT
ATOM      1  C   UNL     1      46.039   4.723  12.878  0.00  0.00    +0.000 A 
ATOM      2  N   UNL     1      45.881   4.076  14.014  0.00  0.00    +0.000 NA
ATOM      3  C   UNL     1      46.825   4.603  14.857  0.00  0.00    +0.000 A 
ATOM      4  C   UNL     1      47.130   4.309  16.193  0.00  0.00    +0.000 A 
ATOM      5  C   UNL     1      48.166   5.043  16.788  0.00  0.00    +0.000 A 
ATOM      6  C   UNL     1      48.814   6.024  16.031  0.00  0.00    +0.000 A 
ATOM      7  N   UNL     1      48.550   6.345  14.735  0.00  0.00    +0.000 NA
ATOM      8  C   UNL     1      47.559   5.593  14.216  0.00  0.00    +0.000 A 
ATOM      9  N   UNL     1      47.062   5.638  12.938  0.00  0.00    +0.000 N 
ENDROOT
BRANCH   5  10
ATOM     10  C   UNL     1      48.622   4.837  18.185  0.00  0.00    +0.000 C 
ATOM     11  N   UNL     1      48.131   3.775  18.890  0.00  0.00    +0.000 N 
ATOM     12  O   UNL     1      49.427   5.599  18.705  0.00  0.00    +0.000 OA
ATOM     13  H   UNL     1      47.487   3.082  18.539  0.00  0.00    +0.000 HD
ATOM     14  H   UNL     1      48.480   3.657  19.832  0.00  0.00    +0.000 HD
ENDBRANCH   5  10
BRANCH   1  16
ATOM     15  C   UNL     1      43.413   4.423  12.182  0.00  0.00    +0.000 C 
ATOM     16  S   UNL     1      45.068   4.493  11.459  0.00  0.00    +0.000 S 
ENDBRANCH   1  16
BRANCH   9  17
ATOM     17  C   UNL     1      47.499   6.577  11.922  0.00  0.00    +0.000 C 
BRANCH  17  18
ATOM     18  C   UNL     1      46.863   7.933  12.053  0.00  0.00    +0.000 A 
ATOM     19  C   UNL     1      47.634   9.097  12.148  0.00  0.00    +0.000 A 
ATOM     20  C   UNL     1      47.012  10.343  12.158  0.00  0.00    +0.000 A 
ATOM     21  C   UNL     1      45.631  10.388  12.085  0.00  0.00    +0.000 A 
ATOM     22  N   UNL     1      44.850   9.291  12.019  0.00  0.00    +0.000 NA
ATOM     23  C   UNL     1      45.479   8.093  12.005  0.00  0.00    +0.000 A 
ENDBRANCH  17  18
ENDBRANCH   9  17
TORSDOF 4
ENDMDL
MODEL 8
REMARK VINA RESULT:    -5.550      3.949      5.738
REMARK INTER + INTRA:          -7.104
REMARK INTER:                  -6.604
REMARK INTRA:                  -0.500
REMARK UNBOUND:                -0.257
REMARK  Name = 
REMARK  5 active torsions:
REMARK  status: ('A' for Active; 'I' for Inactive)
REMARK    1  A    between atoms: C_1  and  S_2
REMARK    2  A    between atoms: S_2  and  C_3
REMARK    3  A    between atoms: C_7  and  C_8
REMARK    4  A    between atoms: N_14  and  C_15
REMARK    5  A    between atoms: C_15  and  C_16
REMARK                            x       y       z     vdW  Elec       q    Type
REMARK                         _______ _______ _______ _____ _____    ______ ____
ROOT
ATOM      1  C   UNL     1      47.529   8.296  12.789  0.00  0.00    +0.000 A 
ATOM      2  N   UNL     1      46.425   7.932  12.170  0.00  0.00    +0.000 NA
ATOM      3  C   UNL     1      46.293   6.594  12.438  0.00  0.00    +0.000 A 
ATOM      4  C   UNL     1      45.313   5.672  12.048  0.00  0.00    +0.000 A 
ATOM      5  C   UNL     1      45.460   4.353  12.501  0.00  0.00    +0.000 A 
ATOM      6  C   UNL     1      46.552   4.042  13.318  0.00  0.00    +0.000 A 
ATOM      7  N   UNL     1      47.525   4.904  13.723  0.00  0.00    +0.000 NA
ATOM      8  C   UNL     1      47.336   6.148  13.241  0.00  0.00    +0.000 A 
ATOM      9  N   UNL     1      48.136   7.246  13.433  0.00  0.00    +0.000 N 
ENDROOT
BRANCH   5  10
ATOM     10  C   UNL     1      44.521   3.256  12.160  0.00  0.00    +0.000 C 
ATOM     11  N   UNL     1      44.639   2.640  10.946  0.00  0.00    +0.000 N 
ATOM     12  O   UNL     1      43.654   2.900  12.948  0.00  0.00    +0.000 OA
ATOM     13  H   UNL     1      45.335   2.846  10.246  0.00  0.00    +0.000 HD
ATOM     14  H   UNL     1      43.993   1.885  10.758  0.00  0.00    +0.000 HD
ENDBRANCH   5  10
BRANCH   1  16
ATOM     15  C   UNL     1      49.365   9.844  11.483  0.00  0.00    +0.000 C 
ATOM     16  S   UNL     1      48.160   9.912  12.829  0.00  0.00    +0.000 S 
ENDBRANCH   1  16
BRANCH   9  17
ATOM     17  C   UNL     1      49.325   7.257  14.265  0.00  0.00    +0.000 C 
BRANCH  17  18
ATOM     18  C   UNL     1      49.020   7.375  15.733  0.00  0.00    +0.000 A 
ATOM     19  C   UNL     1      48.647   8.596  16.307  0.00  0.00    +0.000 A 
ATOM     20  C   UNL     1      48.268   8.647  17.645  0.00  0.00    +0.000 A 
ATOM     21  C   UNL     1      48.284   7.473  18.378  0.00  0.00    +0.000 A 
ATOM     22  N   UNL     1      48.662   6.282  17.871  0.00  0.00    +0.000 NA
ATOM     23  C   UNL     1      49.021   6.258  16.567  0.00  0.00    +0.000 A 
ENDBRANCH  17  18
ENDBRANCH   9  17
TORSDOF 4
ENDMDL
MODEL 9
REMARK VINA RESULT:    -5.319      4.955      7.680
REMARK INTER + INTRA:          -6.819
REMARK INTER:                  -6.271
REMARK INTRA:                  -0.548
REMARK UNBOUND:                -0.257
REMARK  Name = 
REMARK  5 active torsions:
REMARK  status: ('A' for Active; 'I' for Inactive)
REMARK    1  A    between atoms: C_1  and  S_2
REMARK    2  A    between atoms: S_2  and  C_3
REMARK    3  A    between atoms: C_7  and  C_8
REMARK    4  A    between atoms: N_14  and  C_15
REMARK    5  A    between atoms: C_15  and  C_16
REMARK                            x       y       z     vdW  Elec       q    Type
REMARK                         _______ _______ _______ _____ _____    ______ ____
ROOT
ATOM      1  C   UNL     1      49.806   6.792  16.329  0.00  0.00    +0.000 A 
ATOM      2  N   UNL     1      49.396   7.312  15.191  0.00  0.00    +0.000 NA
ATOM      3  C   UNL     1      48.430   6.452  14.736  0.00  0.00    +0.000 A 
ATOM      4  C   UNL     1      47.640   6.486  13.578  0.00  0.00    +0.000 A 
ATOM      5  C   UNL     1      46.720   5.443  13.401  0.00  0.00    +0.000 A 
ATOM      6  C   UNL     1      46.632   4.452  14.384  0.00  0.00    +0.000 A 
ATOM      7  N   UNL     1      47.375   4.380  15.523  0.00  0.00    +0.000 NA
ATOM      8  C   UNL     1      48.250   5.399  15.624  0.00  0.00    +0.000 A 
ATOM      9  N   UNL     1      49.161   5.616  16.627  0.00  0.00    +0.000 N 
ENDROOT
BRANCH   5  10
ATOM     10  C   UNL     1      45.828   5.325  12.221  0.00  0.00    +0.000 C 
ATOM     11  N   UNL     1      45.321   4.099  11.898  0.00  0.00    +0.000 N 
ATOM     12  O   UNL     1      45.542   6.305  11.546  0.00  0.00    +0.000 OA
ATOM     13  H   UNL     1      45.478   3.243  12.408  0.00  0.00    +0.000 HD
ATOM     14  H   UNL     1      44.702   4.062  11.099  0.00  0.00    +0.000 HD
ENDBRANCH   5  10
BRANCH   1  16
ATOM     15  C   UNL     1      50.417   9.206  17.456  0.00  0.00    +0.000 C 
ATOM     16  S   UNL     1      51.000   7.497  17.371  0.00  0.00    +0.000 S 
ENDBRANCH   1  16
BRANCH   9  17
ATOM     17  C   UNL     1      49.291   4.786  17.810  0.00  0.00    +0.000 C 
BRANCH  17  18
ATOM     18  C   UNL     1      50.296   3.679  17.651  0.00  0.00    +0.000 A 
ATOM     19  C   UNL     1      51.621   3.827  18.077  0.00  0.00    +0.000 A 
ATOM     20  C   UNL     1      52.496   2.746  18.014  0.00  0.00    +0.000 A 
ATOM     21  C   UNL     1      52.021   1.545  17.514  0.00  0.00    +0.000 A 
ATOM     22  N   UNL     1      50.761   1.368  17.069  0.00  0.00    +0.000 NA
ATOM     23  C   UNL     1      49.929   2.433  17.146  0.00  0.00    +0.000 A 
ENDBRANCH  17  18
ENDBRANCH   9  17
TORSDOF 4
ENDMDL
