MODEL 1
REMARK VINA RESULT:    -8.297      0.000      0.000
REMARK INTER + INTRA:         -12.497
REMARK INTER:                 -11.207
REMARK INTRA:                  -1.290
REMARK UNBOUND:                -1.290
REMARK  Name = 
REMARK  6 active torsions:
REMARK  status: ('A' for Active; 'I' for Inactive)
REMARK    1  A    between atoms: C_2  and  C_19
REMARK    2  A    between atoms: N_3  and  C_4
REMARK    3  A    between atoms: C_4  and  C_5
REMARK    4  A    between atoms: C_8  and  C_9
REMARK    5  A    between atoms: C_9  and  N_10
REMARK    6  A    between atoms: N_10  and  C_11
REMARK                            x       y       z     vdW  Elec       q    Type
REMARK                         _______ _______ _______ _____ _____    ______ ____
ROOT
ATOM      4  C   UNL     1      46.661   7.894  13.225  0.00  0.00    +0.000 C 
ENDROOT
BRANCH   4   5
ATOM      5  C   UNL     1      46.001   6.881  12.328  0.00  0.00    +0.000 A 
ATOM      6  C   UNL     1      44.830   6.229  12.739  0.00  0.00    +0.000 A 
ATOM      7  C   UNL     1      44.196   5.311  11.899  0.00  0.00    +0.000 A 
ATOM      8  C   UNL     1      44.724   5.019  10.635  0.00  0.00    +0.000 A 
ATOM     17  C   UNL     1      45.912   5.651  10.238  0.00  0.00    +0.000 A 
ATOM     18  C   UNL     1      46.549   6.567  11.079  0.00  0.00    +0.000 A 
BRANCH   8   9
ATOM      9  C   UNL     1      44.048   4.021   9.724  0.00  0.00    +0.000 C 
BRANCH   9  10
ATOM     10  N   UNL     1      44.364   4.266   8.316  0.00  0.00    +0.000 NA
ATOM     30  H   UNL     1      44.928   5.113   8.247  0.00  0.00    +0.000 HD
BRANCH  10  11
ATOM     11  C   UNL     1      45.051   3.141   7.665  0.00  0.00    +0.000 C 
ATOM     12  C   UNL     1      45.528   2.070   8.664  0.00  0.00    +0.000 C 
ATOM     13  C   UNL     1      46.355   0.979   7.991  0.00  0.00    +0.000 C 
ATOM     14  C   UNL     1      47.538   1.564   7.233  0.00  0.00    +0.000 C 
ATOM     15  C   UNL     1      47.077   2.599   6.214  0.00  0.00    +0.000 C 
ATOM     16  C   UNL     1      46.245   3.703   6.870  0.00  0.00    +0.000 C 
ENDBRANCH  10  11
ENDBRANCH   9  10
ENDBRANCH   8   9
ENDBRANCH   4   5
BRANCH   4   3
ATOM      1  O   UNL     1      49.252   6.821  13.377  0.00  0.00    +0.000 OA
ATOM      2  C   UNL     1      48.543   6.804  14.381  0.00  0.00    +0.000 C 
ATOM      3  N   UNL     1      47.256   7.273  14.380  0.00  0.00    +0.000 N 
ATOM     29  H   UNL     1      46.772   7.402  15.261  0.00  0.00    +0.000 HD
BRANCH   2  19
ATOM     19  C   UNL     1      49.020   6.213  15.639  0.00  0.00    +0.000 A 
ATOM     20  C   UNL     1      50.124   6.765  16.276  0.00  0.00    +0.000 A 
ATOM     21  S   UNL     1      50.553   5.963  17.717  0.00  0.00    +0.000 S 
ATOM     22  C   UNL     1      49.252   4.876  17.567  0.00  0.00    +0.000 A 
ATOM     23  N   UNL     1      49.014   3.930  18.515  0.00  0.00    +0.000 NA
ATOM     24  C   UNL     1      47.971   3.204  18.291  0.00  0.00    +0.000 A 
ATOM     25  N   UNL     1      47.150   3.326  17.200  0.00  0.00    +0.000 N 
ATOM     26  C   UNL     1      47.398   4.210  16.180  0.00  0.00    +0.000 A 
ATOM     27  O   UNL     1      46.728   4.196  15.153  0.00  0.00    +0.000 OA
ATOM     28  C   UNL     1      48.527   5.091  16.409  0.00  0.00    +0.000 A 
ATOM     31  H   UNL     1      46.370   2.701  17.071  0.00  0.00    +0.000 HD
ENDBRANCH   2  19
ENDBRANCH   4   3
TORSDOF 6
ENDMDL
MODEL 2
REMARK VINA RESULT:    -7.830      2.060      2.381
REMARK INTER + INTRA:         -11.867
REMARK INTER:                 -10.946
REMARK INTRA:                  -0.921
REMARK UNBOUND:                -1.290
REMARK  Name = 
REMARK  6 active torsions:
REMARK  status: ('A' for Active; 'I' for Inactive)
REMARK    1  A    between atoms: C_2  and  C_19
REMARK    2  A    between atoms: N_3  and  C_4
REMARK    3  A    between atoms: C_4  and  C_5
REMARK    4  A    between atoms: C_8  and  C_9
REMARK    5  A    between atoms: C_9  and  N_10
REMARK    6  A    between atoms: N_10  and  C_11
REMARK                            x       y       z     vdW  Elec       q    Type
REMARK                         _______ _______ _______ _____ _____    ______ ____
ROOT
ATOM      4  C   UNL     1      47.730   6.760  13.687  0.00  0.00    +0.000 C 
ENDROOT
BRANCH   4   5
ATOM      5  C   UNL     1      46.801   6.017  12.765  0.00  0.00    +0.000 A 
ATOM      6  C   UNL     1      46.157   4.851  13.200  0.00  0.00    +0.000 A 
ATOM      7  C   UNL     1      45.270   4.173  12.361  0.00  0.00    +0.000 A 
ATOM      8  C   UNL     1      45.017   4.641  11.065  0.00  0.00    +0.000 A 
ATOM     17  C   UNL     1      45.687   5.792  10.621  0.00  0.00    +0.000 A 
ATOM     18  C   UNL     1      46.576   6.468  11.460  0.00  0.00    +0.000 A 
BRANCH   8   9
ATOM      9  C   UNL     1      44.066   3.909  10.148  0.00  0.00    +0.000 C 
BRANCH   9  10
ATOM     10  N   UNL     1      44.273   4.271   8.745  0.00  0.00    +0.000 NA
ATOM     30  H   UNL     1      44.814   5.135   8.704  0.00  0.00    +0.000 HD
BRANCH  10  11
ATOM     11  C   UNL     1      44.933   3.218   7.958  0.00  0.00    +0.000 C 
ATOM     12  C   UNL     1      45.438   2.050   8.826  0.00  0.00    +0.000 C 
ATOM     13  C   UNL     1      46.237   1.032   8.017  0.00  0.00    +0.000 C 
ATOM     14  C   UNL     1      47.397   1.691   7.283  0.00  0.00    +0.000 C 
ATOM     15  C   UNL     1      46.906   2.826   6.392  0.00  0.00    +0.000 C 
ATOM     16  C   UNL     1      46.102   3.858   7.185  0.00  0.00    +0.000 C 
ENDBRANCH  10  11
ENDBRANCH   9  10
ENDBRANCH   8   9
ENDBRANCH   4   5
BRANCH   4   3
ATOM      1  O   UNL     1      49.920   6.622  15.440  0.00  0.00    +0.000 OA
ATOM      2  C   UNL     1      48.828   6.204  15.820  0.00  0.00    +0.000 C 
ATOM      3  N   UNL     1      47.721   6.203  15.015  0.00  0.00    +0.000 N 
ATOM     29  H   UNL     1      46.810   6.017  15.419  0.00  0.00    +0.000 HD
BRANCH   2  19
ATOM     19  C   UNL     1      48.663   5.618  17.158  0.00  0.00    +0.000 A 
ATOM     20  C   UNL     1      48.862   4.255  17.334  0.00  0.00    +0.000 A 
ATOM     21  S   UNL     1      48.627   3.731  18.939  0.00  0.00    +0.000 S 
ATOM     22  C   UNL     1      48.296   5.314  19.467  0.00  0.00    +0.000 A 
ATOM     23  N   UNL     1      48.046   5.580  20.777  0.00  0.00    +0.000 NA
ATOM     24  C   UNL     1      47.853   6.829  21.039  0.00  0.00    +0.000 A 
ATOM     25  N   UNL     1      47.872   7.837  20.110  0.00  0.00    +0.000 N 
ATOM     26  C   UNL     1      48.039   7.606  18.767  0.00  0.00    +0.000 A 
ATOM     27  O   UNL     1      47.908   8.510  17.948  0.00  0.00    +0.000 OA
ATOM     28  C   UNL     1      48.318   6.225  18.425  0.00  0.00    +0.000 A 
ATOM     31  H   UNL     1      47.679   8.789  20.380  0.00  0.00    +0.000 HD
ENDBRANCH   2  19
ENDBRANCH   4   3
TORSDOF 6
ENDMDL
MODEL 3
REMARK VINA RESULT:    -7.585      1.882      2.270
REMARK INTER + INTRA:         -11.536
REMARK INTER:                 -10.565
REMARK INTRA:                  -0.971
REMARK UNBOUND:                -1.290
REMARK  Name = 
REMARK  6 active torsions:
REMARK  status: ('A' for Active; 'I' for Inactive)
REMARK    1  A    between atoms: C_2  and  C_19
REMARK    2  A    between atoms: N_3  and  C_4
REMARK    3  A    between atoms: C_4  and  C_5
REMARK    4  A    between atoms: C_8  and  C_9
REMARK    5  A    between atoms: C_9  and  N_10
REMARK    6  A    between atoms: N_10  and  C_11
REMARK                            x       y       z     vdW  Elec       q    Type
REMARK                         _______ _______ _______ _____ _____    ______ ____
ROOT
ATOM      4  C   UNL     1      48.425   6.687  13.697  0.00  0.00    +0.000 C 
ENDROOT
BRANCH   4   5
ATOM      5  C   UNL     1      47.235   6.097  12.986  0.00  0.00    +0.000 A 
ATOM      6  C   UNL     1      46.795   6.642  11.772  0.00  0.00    +0.000 A 
ATOM      7  C   UNL     1      45.712   6.080  11.093  0.00  0.00    +0.000 A 
ATOM      8  C   UNL     1      45.039   4.970  11.619  0.00  0.00    +0.000 A 
ATOM     17  C   UNL     1      45.463   4.445  12.849  0.00  0.00    +0.000 A 
ATOM     18  C   UNL     1      46.545   5.008  13.531  0.00  0.00    +0.000 A 
BRANCH   8   9
ATOM      9  C   UNL     1      43.861   4.362  10.894  0.00  0.00    +0.000 C 
BRANCH   9  10
ATOM     10  N   UNL     1      43.853   4.715   9.474  0.00  0.00    +0.000 NA
ATOM     30  H   UNL     1      44.373   5.583   9.346  0.00  0.00    +0.000 HD
BRANCH  10  11
ATOM     11  C   UNL     1      44.399   3.662   8.604  0.00  0.00    +0.000 C 
ATOM     12  C   UNL     1      44.683   2.349   9.359  0.00  0.00    +0.000 C 
ATOM     13  C   UNL     1      45.373   1.313   8.477  0.00  0.00    +0.000 C 
ATOM     14  C   UNL     1      46.654   1.865   7.866  0.00  0.00    +0.000 C 
ATOM     15  C   UNL     1      46.379   3.144   7.085  0.00  0.00    +0.000 C 
ATOM     16  C   UNL     1      45.688   4.197   7.953  0.00  0.00    +0.000 C 
ENDBRANCH  10  11
ENDBRANCH   9  10
ENDBRANCH   8   9
ENDBRANCH   4   5
BRANCH   4   3
ATOM      1  O   UNL     1      50.421   6.626  15.670  0.00  0.00    +0.000 OA
ATOM      2  C   UNL     1      49.249   6.752  16.017  0.00  0.00    +0.000 C 
ATOM      3  N   UNL     1      48.214   6.755  15.120  0.00  0.00    +0.000 N 
ATOM     29  H   UNL     1      47.289   7.036  15.426  0.00  0.00    +0.000 HD
BRANCH   2  19
ATOM     19  C   UNL     1      48.882   6.847  17.437  0.00  0.00    +0.000 A 
ATOM     20  C   UNL     1      48.440   8.060  17.948  0.00  0.00    +0.000 A 
ATOM     21  S   UNL     1      48.060   8.005  19.608  0.00  0.00    +0.000 S 
ATOM     22  C   UNL     1      48.426   6.345  19.695  0.00  0.00    +0.000 A 
ATOM     23  N   UNL     1      48.270   5.651  20.854  0.00  0.00    +0.000 NA
ATOM     24  C   UNL     1      48.546   4.394  20.762  0.00  0.00    +0.000 A 
ATOM     25  N   UNL     1      48.978   3.767  19.622  0.00  0.00    +0.000 N 
ATOM     26  C   UNL     1      49.228   4.442  18.453  0.00  0.00    +0.000 A 
ATOM     27  O   UNL     1      49.749   3.879  17.495  0.00  0.00    +0.000 OA
ATOM     28  C   UNL     1      48.878   5.849  18.485  0.00  0.00    +0.000 A 
ATOM     31  H   UNL     1      49.208   2.786  19.630  0.00  0.00    +0.000 HD
ENDBRANCH   2  19
ENDBRANCH   4   3
TORSDOF 6
ENDMDL
MODEL 4
REMARK VINA RESULT:    -7.423      1.810      2.609
REMARK INTER + INTRA:         -11.317
REMARK INTER:                 -10.374
REMARK INTRA:                  -0.943
REMARK UNBOUND:                -1.290
REMARK  Name = 
REMARK  6 active torsions:
REMARK  status: ('A' for Active; 'I' for Inactive)
REMARK    1  A    between atoms: C_2  and  C_19
REMARK    2  A    between atoms: N_3  and  C_4
REMARK    3  A    between atoms: C_4  and  C_5
REMARK    4  A    between atoms: C_8  and  C_9
REMARK    5  A    between atoms: C_9  and  N_10
REMARK    6  A    between atoms: N_10  and  C_11
REMARK                            x       y       z     vdW  Elec       q    Type
REMARK                         _______ _______ _______ _____ _____    ______ ____
ROOT
ATOM      4  C   UNL     1      47.697   7.073  13.622  0.00  0.00    +0.000 C 
ENDROOT
BRANCH   4   5
ATOM      5  C   UNL     1      46.763   6.265  12.761  0.00  0.00    +0.000 A 
ATOM      6  C   UNL     1      46.504   6.655  11.440  0.00  0.00    +0.000 A 
ATOM      7  C   UNL     1      45.663   5.893  10.626  0.00  0.00    +0.000 A 
ATOM      8  C   UNL     1      45.055   4.732  11.119  0.00  0.00    +0.000 A 
ATOM     17  C   UNL     1      45.292   4.360  12.451  0.00  0.00    +0.000 A 
ATOM     18  C   UNL     1      46.131   5.123  13.266  0.00  0.00    +0.000 A 
BRANCH   8   9
ATOM      9  C   UNL     1      44.137   3.907  10.247  0.00  0.00    +0.000 C 
BRANCH   9  10
ATOM     10  N   UNL     1      44.253   4.271   8.834  0.00  0.00    +0.000 NA
ATOM     30  H   UNL     1      44.752   5.158   8.762  0.00  0.00    +0.000 HD
BRANCH  10  11
ATOM     11  C   UNL     1      44.919   3.245   8.017  0.00  0.00    +0.000 C 
ATOM     12  C   UNL     1      45.412   2.045   8.847  0.00  0.00    +0.000 C 
ATOM     13  C   UNL     1      46.218   1.055   8.009  0.00  0.00    +0.000 C 
ATOM     14  C   UNL     1      47.386   1.737   7.312  0.00  0.00    +0.000 C 
ATOM     15  C   UNL     1      46.907   2.904   6.457  0.00  0.00    +0.000 C 
ATOM     16  C   UNL     1      46.097   3.909   7.279  0.00  0.00    +0.000 C 
ENDBRANCH  10  11
ENDBRANCH   9  10
ENDBRANCH   8   9
ENDBRANCH   4   5
BRANCH   4   3
ATOM      1  O   UNL     1      48.863   8.088  15.966  0.00  0.00    +0.000 OA
ATOM      2  C   UNL     1      48.741   6.871  15.844  0.00  0.00    +0.000 C 
ATOM      3  N   UNL     1      48.216   6.295  14.718  0.00  0.00    +0.000 N 
ATOM     29  H   UNL     1      47.971   5.311  14.728  0.00  0.00    +0.000 HD
BRANCH   2  19
ATOM     19  C   UNL     1      49.215   5.950  16.887  0.00  0.00    +0.000 A 
ATOM     20  C   UNL     1      48.289   5.287  17.683  0.00  0.00    +0.000 A 
ATOM     21  S   UNL     1      48.998   4.262  18.846  0.00  0.00    +0.000 S 
ATOM     22  C   UNL     1      50.566   4.631  18.298  0.00  0.00    +0.000 A 
ATOM     23  N   UNL     1      51.660   4.043  18.853  0.00  0.00    +0.000 NA
ATOM     24  C   UNL     1      52.780   4.386  18.310  0.00  0.00    +0.000 A 
ATOM     25  N   UNL     1      52.910   5.273  17.274  0.00  0.00    +0.000 N 
ATOM     26  C   UNL     1      51.844   5.951  16.738  0.00  0.00    +0.000 A 
ATOM     27  O   UNL     1      52.010   6.842  15.912  0.00  0.00    +0.000 OA
ATOM     28  C   UNL     1      50.554   5.560  17.273  0.00  0.00    +0.000 A 
ATOM     31  H   UNL     1      53.821   5.521  16.921  0.00  0.00    +0.000 HD
ENDBRANCH   2  19
ENDBRANCH   4   3
TORSDOF 6
ENDMDL
MODEL 5
REMARK VINA RESULT:    -7.177      2.426      4.120
REMARK INTER + INTRA:         -10.985
REMARK INTER:                 -10.000
REMARK INTRA:                  -0.985
REMARK UNBOUND:                -1.290
REMARK  Name = 
REMARK  6 active torsions:
REMARK  status: ('A' for Active; 'I' for Inactive)
REMARK    1  A    between atoms: C_2  and  C_19
REMARK    2  A    between atoms: N_3  and  C_4
REMARK    3  A    between atoms: C_4  and  C_5
REMARK    4  A    between atoms: C_8  and  C_9
REMARK    5  A    between atoms: C_9  and  N_10
REMARK    6  A    between atoms: N_10  and  C_11
REMARK                            x       y       z     vdW  Elec       q    Type
REMARK                         _______ _______ _______ _____ _____    ______ ____
ROOT
ATOM      4  C   UNL     1      47.363   5.055  14.517  0.00  0.00    +0.000 C 
ENDROOT
BRANCH   4   5
ATOM      5  C   UNL     1      46.521   4.863  13.284  0.00  0.00    +0.000 A 
ATOM      6  C   UNL     1      46.480   5.853  12.293  0.00  0.00    +0.000 A 
ATOM      7  C   UNL     1      45.725   5.668  11.133  0.00  0.00    +0.000 A 
ATOM      8  C   UNL     1      44.988   4.492  10.944  0.00  0.00    +0.000 A 
ATOM     17  C   UNL     1      45.007   3.515  11.950  0.00  0.00    +0.000 A 
ATOM     18  C   UNL     1      45.759   3.702  13.113  0.00  0.00    +0.000 A 
BRANCH   8   9
ATOM      9  C   UNL     1      44.162   4.287   9.695  0.00  0.00    +0.000 C 
BRANCH   9  10
ATOM     10  N   UNL     1      44.914   4.617   8.484  0.00  0.00    +0.000 NA
ATOM     30  H   UNL     1      45.708   5.205   8.738  0.00  0.00    +0.000 HD
BRANCH  10  11
ATOM     11  C   UNL     1      45.373   3.436   7.738  0.00  0.00    +0.000 C 
ATOM     12  C   UNL     1      45.645   2.222   8.647  0.00  0.00    +0.000 C 
ATOM     13  C   UNL     1      46.248   1.048   7.880  0.00  0.00    +0.000 C 
ATOM     14  C   UNL     1      47.516   1.457   7.144  0.00  0.00    +0.000 C 
ATOM     15  C   UNL     1      47.252   2.634   6.212  0.00  0.00    +0.000 C 
ATOM     16  C   UNL     1      46.647   3.822   6.963  0.00  0.00    +0.000 C 
ENDBRANCH  10  11
ENDBRANCH   9  10
ENDBRANCH   8   9
ENDBRANCH   4   5
BRANCH   4   3
ATOM      1  O   UNL     1      49.642   6.130  15.758  0.00  0.00    +0.000 OA
ATOM      2  C   UNL     1      48.765   6.895  15.363  0.00  0.00    +0.000 C 
ATOM      3  N   UNL     1      47.608   6.450  14.781  0.00  0.00    +0.000 N 
ATOM     29  H   UNL     1      46.998   7.111  14.314  0.00  0.00    +0.000 HD
BRANCH   2  19
ATOM     19  C   UNL     1      48.883   8.348  15.552  0.00  0.00    +0.000 A 
ATOM     20  C   UNL     1      48.923   8.867  16.839  0.00  0.00    +0.000 A 
ATOM     21  S   UNL     1      49.055  10.566  16.888  0.00  0.00    +0.000 S 
ATOM     22  C   UNL     1      49.110  10.666  15.190  0.00  0.00    +0.000 A 
ATOM     23  N   UNL     1      49.263  11.863  14.562  0.00  0.00    +0.000 NA
ATOM     24  C   UNL     1      49.330  11.784  13.276  0.00  0.00    +0.000 A 
ATOM     25  N   UNL     1      49.244  10.621  12.556  0.00  0.00    +0.000 N 
ATOM     26  C   UNL     1      49.008   9.402  13.142  0.00  0.00    +0.000 A 
ATOM     27  O   UNL     1      48.794   8.403  12.462  0.00  0.00    +0.000 OA
ATOM     28  C   UNL     1      48.982   9.426  14.591  0.00  0.00    +0.000 A 
ATOM     31  H   UNL     1      49.270  10.635  11.549  0.00  0.00    +0.000 HD
ENDBRANCH   2  19
ENDBRANCH   4   3
TORSDOF 6
ENDMDL
MODEL 6
REMARK VINA RESULT:    -7.151      2.817      3.768
REMARK INTER + INTRA:         -10.949
REMARK INTER:                 -10.205
REMARK INTRA:                  -0.744
REMARK UNBOUND:                -1.290
REMARK  Name = 
REMARK  6 active torsions:
REMARK  status: ('A' for Active; 'I' for Inactive)
REMARK    1  A    between atoms: C_2  and  C_19
REMARK    2  A    between atoms: N_3  and  C_4
REMARK    3  A    between atoms: C_4  and  C_5
REMARK    4  A    between atoms: C_8  and  C_9
REMARK    5  A    between atoms: C_9  and  N_10
REMARK    6  A    between atoms: N_10  and  C_11
REMARK                            x       y       z     vdW  Elec       q    Type
REMARK                         _______ _______ _______ _____ _____    ______ ____
ROOT
ATOM      4  C   UNL     1      47.278   5.249  14.513  0.00  0.00    +0.000 C 
ENDROOT
BRANCH   4   5
ATOM      5  C   UNL     1      46.490   4.977  13.259  0.00  0.00    +0.000 A 
ATOM      6  C   UNL     1      45.888   3.728  13.059  0.00  0.00    +0.000 A 
ATOM      7  C   UNL     1      45.130   3.480  11.912  0.00  0.00    +0.000 A 
ATOM      8  C   UNL     1      44.968   4.472  10.937  0.00  0.00    +0.000 A 
ATOM     17  C   UNL     1      45.597   5.712  11.125  0.00  0.00    +0.000 A 
ATOM     18  C   UNL     1      46.358   5.960  12.271  0.00  0.00    +0.000 A 
BRANCH   8   9
ATOM      9  C   UNL     1      44.157   4.208   9.690  0.00  0.00    +0.000 C 
BRANCH   9  10
ATOM     10  N   UNL     1      44.904   4.531   8.474  0.00  0.00    +0.000 NA
ATOM     30  H   UNL     1      45.700   5.120   8.722  0.00  0.00    +0.000 HD
BRANCH  10  11
ATOM     11  C   UNL     1      45.361   3.345   7.733  0.00  0.00    +0.000 C 
ATOM     12  C   UNL     1      45.730   2.168   8.656  0.00  0.00    +0.000 C 
ATOM     13  C   UNL     1      46.328   0.995   7.885  0.00  0.00    +0.000 C 
ATOM     14  C   UNL     1      47.533   1.426   7.061  0.00  0.00    +0.000 C 
ATOM     15  C   UNL     1      47.171   2.566   6.117  0.00  0.00    +0.000 C 
ATOM     16  C   UNL     1      46.570   3.753   6.871  0.00  0.00    +0.000 C 
ENDBRANCH  10  11
ENDBRANCH   9  10
ENDBRANCH   8   9
ENDBRANCH   4   5
BRANCH   4   3
ATOM      1  O   UNL     1      49.619   6.214  15.727  0.00  0.00    +0.000 OA
ATOM      2  C   UNL     1      48.863   7.013  15.180  0.00  0.00    +0.000 C 
ATOM      3  N   UNL     1      47.685   6.628  14.597  0.00  0.00    +0.000 N 
ATOM     29  H   UNL     1      47.182   7.283  14.009  0.00  0.00    +0.000 HD
BRANCH   2  19
ATOM     19  C   UNL     1      49.153   8.454  15.175  0.00  0.00    +0.000 A 
ATOM     20  C   UNL     1      49.861   9.003  14.114  0.00  0.00    +0.000 A 
ATOM     21  S   UNL     1      50.119  10.681  14.260  0.00  0.00    +0.000 S 
ATOM     22  C   UNL     1      49.254  10.744  15.724  0.00  0.00    +0.000 A 
ATOM     23  N   UNL     1      49.058  11.922  16.375  0.00  0.00    +0.000 NA
ATOM     24  C   UNL     1      48.350  11.825  17.449  0.00  0.00    +0.000 A 
ATOM     25  N   UNL     1      47.830  10.657  17.943  0.00  0.00    +0.000 N 
ATOM     26  C   UNL     1      48.070   9.435  17.365  0.00  0.00    +0.000 A 
ATOM     27  O   UNL     1      47.712   8.396  17.910  0.00  0.00    +0.000 OA
ATOM     28  C   UNL     1      48.813   9.494  16.122  0.00  0.00    +0.000 A 
ATOM     31  H   UNL     1      47.313  10.649  18.808  0.00  0.00    +0.000 HD
ENDBRANCH   2  19
ENDBRANCH   4   3
TORSDOF 6
ENDMDL
MODEL 7
REMARK VINA RESULT:    -6.804      3.958      9.979
REMARK INTER + INTRA:         -10.481
REMARK INTER:                  -9.429
REMARK INTRA:                  -1.052
REMARK UNBOUND:                -1.290
REMARK  Name = 
REMARK  6 active torsions:
REMARK  status: ('A' for Active; 'I' for Inactive)
REMARK    1  A    between atoms: C_2  and  C_19
REMARK    2  A    between atoms: N_3  and  C_4
REMARK    3  A    between atoms: C_4  and  C_5
REMARK    4  A    between atoms: C_8  and  C_9
REMARK    5  A    between atoms: C_9  and  N_10
REMARK    6  A    between atoms: N_10  and  C_11
REMARK                            x       y       z     vdW  Elec       q    Type
REMARK                         _______ _______ _______ _____ _____    ______ ____
ROOT
ATOM      4  C   UNL     1      47.562   3.709  16.506  0.00  0.00    +0.000 C 
ENDROOT
BRANCH   4   5
ATOM      5  C   UNL     1      47.808   4.384  17.829  0.00  0.00    +0.000 A 
ATOM      6  C   UNL     1      46.938   5.385  18.284  0.00  0.00    +0.000 A 
ATOM      7  C   UNL     1      47.143   5.994  19.524  0.00  0.00    +0.000 A 
ATOM      8  C   UNL     1      48.226   5.622  20.330  0.00  0.00    +0.000 A 
ATOM     17  C   UNL     1      49.112   4.641  19.859  0.00  0.00    +0.000 A 
ATOM     18  C   UNL     1      48.910   4.034  18.617  0.00  0.00    +0.000 A 
BRANCH   8   9
ATOM      9  C   UNL     1      48.459   6.282  21.669  0.00  0.00    +0.000 C 
BRANCH   9  10
ATOM     10  N   UNL     1      49.265   7.498  21.546  0.00  0.00    +0.000 NA
ATOM     30  H   UNL     1      49.764   7.474  20.656  0.00  0.00    +0.000 HD
BRANCH  10  11
ATOM     11  C   UNL     1      48.479   8.736  21.656  0.00  0.00    +0.000 C 
ATOM     12  C   UNL     1      47.091   8.511  22.284  0.00  0.00    +0.000 C 
ATOM     13  C   UNL     1      46.237   9.776  22.268  0.00  0.00    +0.000 C 
ATOM     14  C   UNL     1      46.100  10.338  20.860  0.00  0.00    +0.000 C 
ATOM     15  C   UNL     1      47.468  10.600  20.241  0.00  0.00    +0.000 C 
ATOM     16  C   UNL     1      48.340   9.343  20.247  0.00  0.00    +0.000 C 
ENDBRANCH  10  11
ENDBRANCH   9  10
ENDBRANCH   8   9
ENDBRANCH   4   5
BRANCH   4   3
ATOM      1  O   UNL     1      47.143   3.188  13.779  0.00  0.00    +0.000 OA
ATOM      2  C   UNL     1      46.771   4.264  14.240  0.00  0.00    +0.000 C 
ATOM      3  N   UNL     1      46.970   4.610  15.550  0.00  0.00    +0.000 N 
ATOM     29  H   UNL     1      46.497   5.422  15.930  0.00  0.00    +0.000 HD
BRANCH   2  19
ATOM     19  C   UNL     1      46.138   5.280  13.387  0.00  0.00    +0.000 A 
ATOM     20  C   UNL     1      46.851   6.422  13.043  0.00  0.00    +0.000 A 
ATOM     21  S   UNL     1      45.977   7.502  12.056  0.00  0.00    +0.000 S 
ATOM     22  C   UNL     1      44.631   6.462  12.013  0.00  0.00    +0.000 A 
ATOM     23  N   UNL     1      43.523   6.776  11.288  0.00  0.00    +0.000 NA
ATOM     24  C   UNL     1      42.599   5.876  11.314  0.00  0.00    +0.000 A 
ATOM     25  N   UNL     1      42.670   4.698  12.009  0.00  0.00    +0.000 N 
ATOM     26  C   UNL     1      43.732   4.376  12.818  0.00  0.00    +0.000 A 
ATOM     27  O   UNL     1      43.702   3.383  13.537  0.00  0.00    +0.000 OA
ATOM     28  C   UNL     1      44.826   5.327  12.780  0.00  0.00    +0.000 A 
ATOM     31  H   UNL     1      41.894   4.054  12.012  0.00  0.00    +0.000 HD
ENDBRANCH   2  19
ENDBRANCH   4   3
TORSDOF 6
ENDMDL
MODEL 8
REMARK VINA RESULT:    -6.666      3.702      5.658
REMARK INTER + INTRA:         -10.294
REMARK INTER:                  -9.584
REMARK INTRA:                  -0.711
REMARK UNBOUND:                -1.290
REMARK  Name = 
REMARK  6 active torsions:
REMARK  status: ('A' for Active; 'I' for Inactive)
REMARK    1  A    between atoms: C_2  and  C_19
REMARK    2  A    between atoms: N_3  and  C_4
REMARK    3  A    between atoms: C_4  and  C_5
REMARK    4  A    between atoms: C_8  and  C_9
REMARK    5  A    between atoms: C_9  and  N_10
REMARK    6  A    between atoms: N_10  and  C_11
REMARK                            x       y       z     vdW  Elec       q    Type
REMARK                         _______ _______ _______ _____ _____    ______ ____
ROOT
ATOM      4  C   UNL     1      46.369   4.056  14.233  0.00  0.00    +0.000 C 
ENDROOT
BRANCH   4   5
ATOM      5  C   UNL     1      45.933   5.253  13.430  0.00  0.00    +0.000 A 
ATOM      6  C   UNL     1      44.705   5.243  12.754  0.00  0.00    +0.000 A 
ATOM      7  C   UNL     1      44.282   6.361  12.034  0.00  0.00    +0.000 A 
ATOM      8  C   UNL     1      45.081   7.509  11.965  0.00  0.00    +0.000 A 
ATOM     17  C   UNL     1      46.323   7.506  12.618  0.00  0.00    +0.000 A 
ATOM     18  C   UNL     1      46.749   6.386  13.336  0.00  0.00    +0.000 A 
BRANCH   8   9
ATOM      9  C   UNL     1      44.633   8.720  11.180  0.00  0.00    +0.000 C 
BRANCH   9  10
ATOM     10  N   UNL     1      43.184   8.735  10.979  0.00  0.00    +0.000 NA
ATOM     30  H   UNL     1      42.737   8.257  11.762  0.00  0.00    +0.000 HD
BRANCH  10  11
ATOM     11  C   UNL     1      42.626  10.087  10.825  0.00  0.00    +0.000 C 
ATOM     12  C   UNL     1      41.086  10.108  10.858  0.00  0.00    +0.000 C 
ATOM     13  C   UNL     1      40.520  11.494  10.562  0.00  0.00    +0.000 C 
ATOM     14  C   UNL     1      41.032  12.033   9.234  0.00  0.00    +0.000 C 
ATOM     15  C   UNL     1      42.555  12.052   9.202  0.00  0.00    +0.000 C 
ATOM     16  C   UNL     1      43.143  10.671   9.496  0.00  0.00    +0.000 C 
ENDBRANCH  10  11
ENDBRANCH   9  10
ENDBRANCH   8   9
ENDBRANCH   4   5
BRANCH   4   3
ATOM      1  O   UNL     1      46.537   3.362  16.949  0.00  0.00    +0.000 OA
ATOM      2  C   UNL     1      47.471   3.974  16.434  0.00  0.00    +0.000 C 
ATOM      3  N   UNL     1      47.451   4.380  15.126  0.00  0.00    +0.000 N 
ATOM     29  H   UNL     1      48.304   4.721  14.696  0.00  0.00    +0.000 HD
BRANCH   2  19
ATOM     19  C   UNL     1      48.651   4.363  17.220  0.00  0.00    +0.000 A 
ATOM     20  C   UNL     1      48.661   5.588  17.873  0.00  0.00    +0.000 A 
ATOM     21  S   UNL     1      50.100   5.891  18.735  0.00  0.00    +0.000 S 
ATOM     22  C   UNL     1      50.744   4.376  18.304  0.00  0.00    +0.000 A 
ATOM     23  N   UNL     1      51.962   3.976  18.758  0.00  0.00    +0.000 NA
ATOM     24  C   UNL     1      52.304   2.789  18.385  0.00  0.00    +0.000 A 
ATOM     25  N   UNL     1      51.549   1.968  17.588  0.00  0.00    +0.000 N 
ATOM     26  C   UNL     1      50.353   2.361  17.041  0.00  0.00    +0.000 A 
ATOM     27  O   UNL     1      49.772   1.660  16.219  0.00  0.00    +0.000 OA
ATOM     28  C   UNL     1      49.894   3.666  17.475  0.00  0.00    +0.000 A 
ATOM     31  H   UNL     1      51.894   1.064  17.307  0.00  0.00    +0.000 HD
ENDBRANCH   2  19
ENDBRANCH   4   3
TORSDOF 6
ENDMDL
MODEL 9
REMARK VINA RESULT:    -6.573      4.630      7.355
REMARK INTER + INTRA:         -10.169
REMARK INTER:                  -9.184
REMARK INTRA:                  -0.985
REMARK UNBOUND:                -1.290
REMARK  Name = 
REMARK  6 active torsions:
REMARK  status: ('A' for Active; 'I' for Inactive)
REMARK    1  A    between atoms: C_2  and  C_19
REMARK    2  A    between atoms: N_3  and  C_4
REMARK    3  A    between atoms: C_4  and  C_5
REMARK    4  A    between atoms: C_8  and  C_9
REMARK    5  A    between atoms: C_9  and  N_10
REMARK    6  A    between atoms: N_10  and  C_11
REMARK                            x       y       z     vdW  Elec       q    Type
REMARK                         _______ _______ _______ _____ _____    ______ ____
ROOT
ATOM      4  C   UNL     1      46.555   8.335  12.794  0.00  0.00    +0.000 C 
ENDROOT
BRANCH   4   5
ATOM      5  C   UNL     1      47.987   8.452  12.343  0.00  0.00    +0.000 A 
ATOM      6  C   UNL     1      48.839   7.340  12.398  0.00  0.00    +0.000 A 
ATOM      7  C   UNL     1      50.159   7.433  11.954  0.00  0.00    +0.000 A 
ATOM      8  C   UNL     1      50.659   8.643  11.454  0.00  0.00    +0.000 A 
ATOM     17  C   UNL     1      49.813   9.762  11.428  0.00  0.00    +0.000 A 
ATOM     18  C   UNL     1      48.493   9.670  11.876  0.00  0.00    +0.000 A 
BRANCH   8   9
ATOM      9  C   UNL     1      52.089   8.754  10.979  0.00  0.00    +0.000 C 
BRANCH   9  10
ATOM     10  N   UNL     1      52.793   7.475  11.065  0.00  0.00    +0.000 NA
ATOM     30  H   UNL     1      52.141   6.760  11.388  0.00  0.00    +0.000 HD
BRANCH  10  11
ATOM     11  C   UNL     1      53.416   7.061   9.798  0.00  0.00    +0.000 C 
ATOM     12  C   UNL     1      52.443   7.123   8.605  0.00  0.00    +0.000 C 
ATOM     13  C   UNL     1      53.061   6.565   7.326  0.00  0.00    +0.000 C 
ATOM     14  C   UNL     1      53.569   5.145   7.526  0.00  0.00    +0.000 C 
ATOM     15  C   UNL     1      54.561   5.076   8.681  0.00  0.00    +0.000 C 
ATOM     16  C   UNL     1      53.960   5.631   9.974  0.00  0.00    +0.000 C 
ENDBRANCH  10  11
ENDBRANCH   9  10
ENDBRANCH   8   9
ENDBRANCH   4   5
BRANCH   4   3
ATOM      1  O   UNL     1      44.447   7.677  11.059  0.00  0.00    +0.000 OA
ATOM      2  C   UNL     1      45.018   6.775  11.668  0.00  0.00    +0.000 C 
ATOM      3  N   UNL     1      46.030   7.015  12.559  0.00  0.00    +0.000 N 
ATOM     29  H   UNL     1      46.586   6.241  12.903  0.00  0.00    +0.000 HD
BRANCH   2  19
ATOM     19  C   UNL     1      44.599   5.374  11.519  0.00  0.00    +0.000 A 
ATOM     20  C   UNL     1      43.889   4.762  12.545  0.00  0.00    +0.000 A 
ATOM     21  S   UNL     1      43.483   3.139  12.221  0.00  0.00    +0.000 S 
ATOM     22  C   UNL     1      44.200   3.208  10.679  0.00  0.00    +0.000 A 
ATOM     23  N   UNL     1      44.166   2.138   9.840  0.00  0.00    +0.000 NA
ATOM     24  C   UNL     1      44.712   2.347   8.689  0.00  0.00    +0.000 A 
ATOM     25  N   UNL     1      45.302   3.522   8.303  0.00  0.00    +0.000 N 
ATOM     26  C   UNL     1      45.431   4.599   9.144  0.00  0.00    +0.000 A 
ATOM     27  O   UNL     1      46.089   5.582   8.818  0.00  0.00    +0.000 OA
ATOM     28  C   UNL     1      44.783   4.438  10.431  0.00  0.00    +0.000 A 
ATOM     31  H   UNL     1      45.740   3.605   7.399  0.00  0.00    +0.000 HD
ENDBRANCH   2  19
ENDBRANCH   4   3
TORSDOF 6
ENDMDL
