MODEL 1
REMARK VINA RESULT:    -7.445      0.000      0.000
REMARK INTER + INTRA:         -10.922
REMARK INTER:                 -10.492
REMARK INTRA:                  -0.429
REMARK UNBOUND:                -0.429
REMARK  Name = 
REMARK  9 active torsions:
REMARK  status: ('A' for Active; 'I' for Inactive)
REMARK    1  A    between atoms: C_1  and  C_2
REMARK    2  A    between atoms: C_2  and  N_3
REMARK    3  A    between atoms: N_3  and  C_4
REMARK    4  A    between atoms: N_3  and  C_6
REMARK    5  A    between atoms: C_4  and  C_5
REMARK    6  A    between atoms: C_6  and  C_7
REMARK    7  A    between atoms: C_10  and  C_11
REMARK    8  A    between atoms: C_11  and  N_12
REMARK    9  A    between atoms: C_13  and  C_15
REMARK                            x       y       z     vdW  Elec       q    Type
REMARK                         _______ _______ _______ _____ _____    ______ ____
ROOT
ATOM     12  N   UNL     1      45.374   5.536  13.650  0.00  0.00    +0.000 N 
ATOM     13  C   UNL     1      46.391   4.712  14.042  0.00  0.00    +0.000 C 
ATOM     14  O   UNL     1      46.435   3.512  13.762  0.00  0.00    +0.000 OA
ATOM     27  H   UNL     1      45.197   6.350  14.235  0.00  0.00    +0.000 HD
ENDROOT
BRANCH  13  15
ATOM     15  C   UNL     1      47.477   5.371  14.772  0.00  0.00    +0.000 A 
ATOM     16  C   UNL     1      48.202   6.404  14.194  0.00  0.00    +0.000 A 
ATOM     17  S   UNL     1      49.377   7.070  15.241  0.00  0.00    +0.000 S 
ATOM     18  C   UNL     1      48.982   5.972  16.472  0.00  0.00    +0.000 A 
ATOM     19  N   UNL     1      49.643   5.977  17.667  0.00  0.00    +0.000 NA
ATOM     20  C   UNL     1      49.268   5.054  18.495  0.00  0.00    +0.000 A 
ATOM     21  N   UNL     1      48.281   4.127  18.244  0.00  0.00    +0.000 N 
ATOM     22  C   UNL     1      47.540   4.137  17.100  0.00  0.00    +0.000 A 
ATOM     23  O   UNL     1      46.585   3.377  16.949  0.00  0.00    +0.000 OA
ATOM     24  C   UNL     1      47.959   5.125  16.110  0.00  0.00    +0.000 A 
ATOM     28  H   UNL     1      48.014   3.460  18.944  0.00  0.00    +0.000 HD
ENDBRANCH  13  15
BRANCH  12  11
ATOM     11  C   UNL     1      44.258   5.073  12.880  0.00  0.00    +0.000 C 
BRANCH  11  10
ATOM      7  C   UNL     1      45.328   4.049   8.798  0.00  0.00    +0.000 A 
ATOM      8  C   UNL     1      45.824   5.217   9.372  0.00  0.00    +0.000 A 
ATOM      9  C   UNL     1      45.468   5.581  10.680  0.00  0.00    +0.000 A 
ATOM     10  C   UNL     1      44.602   4.774  11.438  0.00  0.00    +0.000 A 
ATOM     25  C   UNL     1      44.065   3.633  10.834  0.00  0.00    +0.000 A 
ATOM     26  C   UNL     1      44.420   3.266   9.534  0.00  0.00    +0.000 A 
BRANCH   7   6
ATOM      6  C   UNL     1      45.824   3.568   7.447  0.00  0.00    +0.000 C 
BRANCH   6   3
ATOM      3  N   UNL     1      46.865   2.515   7.537  0.00  0.00    +0.000 NA
BRANCH   3   4
ATOM      4  C   UNL     1      47.744   2.542   6.350  0.00  0.00    +0.000 C 
ATOM      5  C   UNL     1      47.042   2.427   5.002  0.00  0.00    +0.000 C 
ENDBRANCH   3   4
BRANCH   3   2
ATOM      1  C   UNL     1      47.088  -0.020   7.636  0.00  0.00    +0.000 C 
ATOM      2  C   UNL     1      46.207   1.214   7.764  0.00  0.00    +0.000 C 
ENDBRANCH   3   2
ENDBRANCH   6   3
ENDBRANCH   7   6
ENDBRANCH  11  10
ENDBRANCH  12  11
TORSDOF 7
ENDMDL
MODEL 2
REMARK VINA RESULT:    -7.155      3.981      8.912
REMARK INTER + INTRA:         -10.512
REMARK INTER:                  -9.538
REMARK INTRA:                  -0.975
REMARK UNBOUND:                -0.429
REMARK  Name = 
REMARK  9 active torsions:
REMARK  status: ('A' for Active; 'I' for Inactive)
REMARK    1  A    between atoms: C_1  and  C_2
REMARK    2  A    between atoms: C_2  and  N_3
REMARK    3  A    between atoms: N_3  and  C_4
REMARK    4  A    between atoms: N_3  and  C_6
REMARK    5  A    between atoms: C_4  and  C_5
REMARK    6  A    between atoms: C_6  and  C_7
REMARK    7  A    between atoms: C_10  and  C_11
REMARK    8  A    between atoms: C_11  and  N_12
REMARK    9  A    between atoms: C_13  and  C_15
REMARK                            x       y       z     vdW  Elec       q    Type
REMARK                         _______ _______ _______ _____ _____    ______ ____
ROOT
ATOM     12  N   UNL     1      46.945   4.470  15.947  0.00  0.00    +0.000 N 
ATOM     13  C   UNL     1      47.027   4.222  14.605  0.00  0.00    +0.000 C 
ATOM     14  O   UNL     1      47.312   3.117  14.138  0.00  0.00    +0.000 OA
ATOM     27  H   UNL     1      47.116   5.429  16.243  0.00  0.00    +0.000 HD
ENDROOT
BRANCH  13  15
ATOM     15  C   UNL     1      46.683   5.356  13.743  0.00  0.00    +0.000 A 
ATOM     16  C   UNL     1      47.564   6.413  13.568  0.00  0.00    +0.000 A 
ATOM     17  S   UNL     1      46.990   7.595  12.474  0.00  0.00    +0.000 S 
ATOM     18  C   UNL     1      45.537   6.752  12.241  0.00  0.00    +0.000 A 
ATOM     19  N   UNL     1      44.560   7.235  11.419  0.00  0.00    +0.000 NA
ATOM     20  C   UNL     1      43.487   6.511  11.373  0.00  0.00    +0.000 A 
ATOM     21  N   UNL     1      43.301   5.336  12.066  0.00  0.00    +0.000 N 
ATOM     22  C   UNL     1      44.279   4.775  12.832  0.00  0.00    +0.000 A 
ATOM     23  O   UNL     1      44.134   3.666  13.344  0.00  0.00    +0.000 OA
ATOM     24  C   UNL     1      45.490   5.579  12.961  0.00  0.00    +0.000 A 
ATOM     28  H   UNL     1      42.457   4.804  11.957  0.00  0.00    +0.000 HD
ENDBRANCH  13  15
BRANCH  12  11
ATOM     11  C   UNL     1      47.192   3.462  16.934  0.00  0.00    +0.000 C 
BRANCH  11  10
ATOM      7  C   UNL     1      51.442   3.086  17.743  0.00  0.00    +0.000 A 
ATOM      8  C   UNL     1      50.737   2.003  17.224  0.00  0.00    +0.000 A 
ATOM      9  C   UNL     1      49.357   2.093  16.982  0.00  0.00    +0.000 A 
ATOM     10  C   UNL     1      48.658   3.281  17.260  0.00  0.00    +0.000 A 
ATOM     25  C   UNL     1      49.362   4.344  17.831  0.00  0.00    +0.000 A 
ATOM     26  C   UNL     1      50.737   4.258  18.070  0.00  0.00    +0.000 A 
BRANCH   7   6
ATOM      6  C   UNL     1      52.954   3.051  17.864  0.00  0.00    +0.000 C 
BRANCH   6   3
ATOM      3  N   UNL     1      53.447   2.108  18.898  0.00  0.00    +0.000 NA
BRANCH   3   4
ATOM      4  C   UNL     1      54.199   2.825  19.947  0.00  0.00    +0.000 C 
ATOM      5  C   UNL     1      53.399   3.832  20.766  0.00  0.00    +0.000 C 
ENDBRANCH   3   4
BRANCH   3   2
ATOM      1  C   UNL     1      54.903   1.409  16.928  0.00  0.00    +0.000 C 
ATOM      2  C   UNL     1      54.217   1.038  18.235  0.00  0.00    +0.000 C 
ENDBRANCH   3   2
ENDBRANCH   6   3
ENDBRANCH   7   6
ENDBRANCH  11  10
ENDBRANCH  12  11
TORSDOF 7
ENDMDL
MODEL 3
REMARK VINA RESULT:    -7.088      3.998      8.945
REMARK INTER + INTRA:         -10.418
REMARK INTER:                  -9.411
REMARK INTRA:                  -1.007
REMARK UNBOUND:                -0.429
REMARK  Name = 
REMARK  9 active torsions:
REMARK  status: ('A' for Active; 'I' for Inactive)
REMARK    1  A    between atoms: C_1  and  C_2
REMARK    2  A    between atoms: C_2  and  N_3
REMARK    3  A    between atoms: N_3  and  C_4
REMARK    4  A    between atoms: N_3  and  C_6
REMARK    5  A    between atoms: C_4  and  C_5
REMARK    6  A    between atoms: C_6  and  C_7
REMARK    7  A    between atoms: C_10  and  C_11
REMARK    8  A    between atoms: C_11  and  N_12
REMARK    9  A    between atoms: C_13  and  C_15
REMARK                            x       y       z     vdW  Elec       q    Type
REMARK                         _______ _______ _______ _____ _____    ______ ____
ROOT
ATOM     12  N   UNL     1      46.872   4.439  15.882  0.00  0.00    +0.000 N 
ATOM     13  C   UNL     1      46.927   4.183  14.541  0.00  0.00    +0.000 C 
ATOM     14  O   UNL     1      47.263   3.093  14.074  0.00  0.00    +0.000 OA
ATOM     27  H   UNL     1      46.995   5.410  16.165  0.00  0.00    +0.000 HD
ENDROOT
BRANCH  13  15
ATOM     15  C   UNL     1      46.490   5.286  13.680  0.00  0.00    +0.000 A 
ATOM     16  C   UNL     1      47.301   6.393  13.470  0.00  0.00    +0.000 A 
ATOM     17  S   UNL     1      46.624   7.527  12.385  0.00  0.00    +0.000 S 
ATOM     18  C   UNL     1      45.218   6.596  12.203  0.00  0.00    +0.000 A 
ATOM     19  N   UNL     1      44.189   7.012  11.407  0.00  0.00    +0.000 NA
ATOM     20  C   UNL     1      43.161   6.225  11.399  0.00  0.00    +0.000 A 
ATOM     21  N   UNL     1      43.067   5.047  12.107  0.00  0.00    +0.000 N 
ATOM     22  C   UNL     1      44.099   4.553  12.848  0.00  0.00    +0.000 A 
ATOM     23  O   UNL     1      44.036   3.443  13.372  0.00  0.00    +0.000 OA
ATOM     24  C   UNL     1      45.263   5.429  12.933  0.00  0.00    +0.000 A 
ATOM     28  H   UNL     1      42.254   4.464  12.028  0.00  0.00    +0.000 HD
ENDBRANCH  13  15
BRANCH  12  11
ATOM     11  C   UNL     1      47.209   3.458  16.869  0.00  0.00    +0.000 C 
BRANCH  11  10
ATOM      7  C   UNL     1      51.438   2.997  17.741  0.00  0.00    +0.000 A 
ATOM      8  C   UNL     1      50.801   4.203  18.018  0.00  0.00    +0.000 A 
ATOM      9  C   UNL     1      49.441   4.384  17.718  0.00  0.00    +0.000 A 
ATOM     10  C   UNL     1      48.695   3.348  17.130  0.00  0.00    +0.000 A 
ATOM     25  C   UNL     1      49.355   2.160  16.805  0.00  0.00    +0.000 A 
ATOM     26  C   UNL     1      50.707   1.977  17.105  0.00  0.00    +0.000 A 
BRANCH   7   6
ATOM      6  C   UNL     1      52.861   2.738  18.199  0.00  0.00    +0.000 C 
BRANCH   6   3
ATOM      3  N   UNL     1      53.472   3.882  18.919  0.00  0.00    +0.000 NA
BRANCH   3   4
ATOM      4  C   UNL     1      54.665   4.377  18.205  0.00  0.00    +0.000 C 
ATOM      5  C   UNL     1      54.393   5.213  16.959  0.00  0.00    +0.000 C 
ENDBRANCH   3   4
BRANCH   3   2
ATOM      1  C   UNL     1      52.932   4.202  21.388  0.00  0.00    +0.000 C 
ATOM      2  C   UNL     1      53.734   3.479  20.315  0.00  0.00    +0.000 C 
ENDBRANCH   3   2
ENDBRANCH   6   3
ENDBRANCH   7   6
ENDBRANCH  11  10
ENDBRANCH  12  11
TORSDOF 7
ENDMDL
MODEL 4
REMARK VINA RESULT:    -7.010      2.175      3.443
REMARK INTER + INTRA:         -10.308
REMARK INTER:                  -8.919
REMARK INTRA:                  -1.389
REMARK UNBOUND:                -0.429
REMARK  Name = 
REMARK  9 active torsions:
REMARK  status: ('A' for Active; 'I' for Inactive)
REMARK    1  A    between atoms: C_1  and  C_2
REMARK    2  A    between atoms: C_2  and  N_3
REMARK    3  A    between atoms: N_3  and  C_4
REMARK    4  A    between atoms: N_3  and  C_6
REMARK    5  A    between atoms: C_4  and  C_5
REMARK    6  A    between atoms: C_6  and  C_7
REMARK    7  A    between atoms: C_10  and  C_11
REMARK    8  A    between atoms: C_11  and  N_12
REMARK    9  A    between atoms: C_13  and  C_15
REMARK                            x       y       z     vdW  Elec       q    Type
REMARK                         _______ _______ _______ _____ _____    ______ ____
ROOT
ATOM     12  N   UNL     1      47.605   7.540  14.716  0.00  0.00    +0.000 N 
ATOM     13  C   UNL     1      48.828   6.934  14.775  0.00  0.00    +0.000 C 
ATOM     14  O   UNL     1      49.652   6.985  13.859  0.00  0.00    +0.000 OA
ATOM     27  H   UNL     1      46.866   7.129  15.283  0.00  0.00    +0.000 HD
ENDROOT
BRANCH  13  15
ATOM     15  C   UNL     1      49.129   6.266  16.043  0.00  0.00    +0.000 A 
ATOM     16  C   UNL     1      50.138   6.732  16.875  0.00  0.00    +0.000 A 
ATOM     17  S   UNL     1      50.276   5.844  18.329  0.00  0.00    +0.000 S 
ATOM     18  C   UNL     1      49.029   4.791  17.869  0.00  0.00    +0.000 A 
ATOM     19  N   UNL     1      48.644   3.754  18.669  0.00  0.00    +0.000 NA
ATOM     20  C   UNL     1      47.712   3.004  18.171  0.00  0.00    +0.000 A 
ATOM     21  N   UNL     1      47.117   3.201  16.944  0.00  0.00    +0.000 N 
ATOM     22  C   UNL     1      47.412   4.269  16.150  0.00  0.00    +0.000 A 
ATOM     23  O   UNL     1      46.783   4.491  15.117  0.00  0.00    +0.000 OA
ATOM     24  C   UNL     1      48.494   5.115  16.642  0.00  0.00    +0.000 A 
ATOM     28  H   UNL     1      46.374   2.603  16.632  0.00  0.00    +0.000 HD
ENDBRANCH  13  15
BRANCH  12  11
ATOM     11  C   UNL     1      47.167   8.287  13.574  0.00  0.00    +0.000 C 
BRANCH  11  10
ATOM      7  C   UNL     1      44.839   5.815  10.867  0.00  0.00    +0.000 A 
ATOM      8  C   UNL     1      46.223   5.882  10.726  0.00  0.00    +0.000 A 
ATOM      9  C   UNL     1      46.992   6.698  11.573  0.00  0.00    +0.000 A 
ATOM     10  C   UNL     1      46.379   7.463  12.580  0.00  0.00    +0.000 A 
ATOM     25  C   UNL     1      44.985   7.431  12.678  0.00  0.00    +0.000 A 
ATOM     26  C   UNL     1      44.218   6.618  11.840  0.00  0.00    +0.000 A 
BRANCH   7   6
ATOM      6  C   UNL     1      44.018   4.824  10.063  0.00  0.00    +0.000 C 
BRANCH   6   3
ATOM      3  N   UNL     1      44.362   3.407  10.334  0.00  0.00    +0.000 NA
BRANCH   3   4
ATOM      4  C   UNL     1      44.590   2.671   9.074  0.00  0.00    +0.000 C 
ATOM      5  C   UNL     1      44.932   3.526   7.859  0.00  0.00    +0.000 C 
ENDBRANCH   3   4
BRANCH   3   2
ATOM      1  C   UNL     1      43.462   3.037  12.688  0.00  0.00    +0.000 C 
ATOM      2  C   UNL     1      43.312   2.819  11.189  0.00  0.00    +0.000 C 
ENDBRANCH   3   2
ENDBRANCH   6   3
ENDBRANCH   7   6
ENDBRANCH  11  10
ENDBRANCH  12  11
TORSDOF 7
ENDMDL
MODEL 5
REMARK VINA RESULT:    -6.644      4.291      8.733
REMARK INTER + INTRA:          -9.793
REMARK INTER:                  -8.520
REMARK INTRA:                  -1.272
REMARK UNBOUND:                -0.429
REMARK  Name = 
REMARK  9 active torsions:
REMARK  status: ('A' for Active; 'I' for Inactive)
REMARK    1  A    between atoms: C_1  and  C_2
REMARK    2  A    between atoms: C_2  and  N_3
REMARK    3  A    between atoms: N_3  and  C_4
REMARK    4  A    between atoms: N_3  and  C_6
REMARK    5  A    between atoms: C_4  and  C_5
REMARK    6  A    between atoms: C_6  and  C_7
REMARK    7  A    between atoms: C_10  and  C_11
REMARK    8  A    between atoms: C_11  and  N_12
REMARK    9  A    between atoms: C_13  and  C_15
REMARK                            x       y       z     vdW  Elec       q    Type
REMARK                         _______ _______ _______ _____ _____    ______ ____
ROOT
ATOM     12  N   UNL     1      46.990   4.543  15.850  0.00  0.00    +0.000 N 
ATOM     13  C   UNL     1      46.980   4.282  14.509  0.00  0.00    +0.000 C 
ATOM     14  O   UNL     1      47.217   3.168  14.036  0.00  0.00    +0.000 OA
ATOM     27  H   UNL     1      47.195   5.502  16.125  0.00  0.00    +0.000 HD
ENDROOT
BRANCH  13  15
ATOM     15  C   UNL     1      46.597   5.412  13.659  0.00  0.00    +0.000 A 
ATOM     16  C   UNL     1      45.404   5.401  12.950  0.00  0.00    +0.000 A 
ATOM     17  S   UNL     1      45.127   6.843  12.075  0.00  0.00    +0.000 S 
ATOM     18  C   UNL     1      46.607   7.499  12.581  0.00  0.00    +0.000 A 
ATOM     19  N   UNL     1      47.015   8.735  12.167  0.00  0.00    +0.000 NA
ATOM     20  C   UNL     1      48.186   9.088  12.594  0.00  0.00    +0.000 A 
ATOM     21  N   UNL     1      48.988   8.323  13.411  0.00  0.00    +0.000 N 
ATOM     22  C   UNL     1      48.587   7.121  13.914  0.00  0.00    +0.000 A 
ATOM     23  O   UNL     1      49.269   6.513  14.737  0.00  0.00    +0.000 OA
ATOM     24  C   UNL     1      47.296   6.652  13.420  0.00  0.00    +0.000 A 
ATOM     28  H   UNL     1      49.871   8.672  13.736  0.00  0.00    +0.000 HD
ENDBRANCH  13  15
BRANCH  12  11
ATOM     11  C   UNL     1      47.286   3.541  16.830  0.00  0.00    +0.000 C 
BRANCH  11  10
ATOM      7  C   UNL     1      51.494   2.865  17.660  0.00  0.00    +0.000 A 
ATOM      8  C   UNL     1      50.943   4.128  17.859  0.00  0.00    +0.000 A 
ATOM      9  C   UNL     1      49.592   4.376  17.569  0.00  0.00    +0.000 A 
ATOM     10  C   UNL     1      48.767   3.352  17.073  0.00  0.00    +0.000 A 
ATOM     25  C   UNL     1      49.341   2.102  16.825  0.00  0.00    +0.000 A 
ATOM     26  C   UNL     1      50.685   1.852  17.115  0.00  0.00    +0.000 A 
BRANCH   7   6
ATOM      6  C   UNL     1      52.907   2.546  18.113  0.00  0.00    +0.000 C 
BRANCH   6   3
ATOM      3  N   UNL     1      53.582   3.676  18.798  0.00  0.00    +0.000 NA
BRANCH   3   4
ATOM      4  C   UNL     1      54.804   4.076  18.073  0.00  0.00    +0.000 C 
ATOM      5  C   UNL     1      55.223   3.165  16.925  0.00  0.00    +0.000 C 
ENDBRANCH   3   4
BRANCH   3   2
ATOM      1  C   UNL     1      53.044   4.097  21.252  0.00  0.00    +0.000 C 
ATOM      2  C   UNL     1      53.816   3.304  20.207  0.00  0.00    +0.000 C 
ENDBRANCH   3   2
ENDBRANCH   6   3
ENDBRANCH   7   6
ENDBRANCH  11  10
ENDBRANCH  12  11
TORSDOF 7
ENDMDL
MODEL 6
REMARK VINA RESULT:    -6.526      3.428      9.673
REMARK INTER + INTRA:          -9.626
REMARK INTER:                  -8.512
REMARK INTRA:                  -1.114
REMARK UNBOUND:                -0.429
REMARK  Name = 
REMARK  9 active torsions:
REMARK  status: ('A' for Active; 'I' for Inactive)
REMARK    1  A    between atoms: C_1  and  C_2
REMARK    2  A    between atoms: C_2  and  N_3
REMARK    3  A    between atoms: N_3  and  C_4
REMARK    4  A    between atoms: N_3  and  C_6
REMARK    5  A    between atoms: C_4  and  C_5
REMARK    6  A    between atoms: C_6  and  C_7
REMARK    7  A    between atoms: C_10  and  C_11
REMARK    8  A    between atoms: C_11  and  N_12
REMARK    9  A    between atoms: C_13  and  C_15
REMARK                            x       y       z     vdW  Elec       q    Type
REMARK                         _______ _______ _______ _____ _____    ______ ____
ROOT
ATOM     12  N   UNL     1      46.892   4.707  15.159  0.00  0.00    +0.000 N 
ATOM     13  C   UNL     1      47.301   5.468  14.101  0.00  0.00    +0.000 C 
ATOM     14  O   UNL     1      48.474   5.806  13.924  0.00  0.00    +0.000 OA
ATOM     27  H   UNL     1      45.923   4.821  15.454  0.00  0.00    +0.000 HD
ENDROOT
BRANCH  13  15
ATOM     15  C   UNL     1      46.250   5.806  13.137  0.00  0.00    +0.000 A 
ATOM     16  C   UNL     1      45.973   7.128  12.818  0.00  0.00    +0.000 A 
ATOM     17  S   UNL     1      44.757   7.293  11.628  0.00  0.00    +0.000 S 
ATOM     18  C   UNL     1      44.538   5.613  11.541  0.00  0.00    +0.000 A 
ATOM     19  N   UNL     1      43.606   5.060  10.711  0.00  0.00    +0.000 NA
ATOM     20  C   UNL     1      43.516   3.770  10.782  0.00  0.00    +0.000 A 
ATOM     21  N   UNL     1      44.284   2.973  11.603  0.00  0.00    +0.000 N 
ATOM     22  C   UNL     1      45.280   3.474  12.386  0.00  0.00    +0.000 A 
ATOM     23  O   UNL     1      46.031   2.732  13.017  0.00  0.00    +0.000 OA
ATOM     24  C   UNL     1      45.387   4.929  12.382  0.00  0.00    +0.000 A 
ATOM     28  H   UNL     1      44.189   1.974  11.583  0.00  0.00    +0.000 HD
ENDBRANCH  13  15
BRANCH  12  11
ATOM     11  C   UNL     1      47.795   4.238  16.168  0.00  0.00    +0.000 C 
BRANCH  11  10
ATOM      7  C   UNL     1      48.192   7.130  19.383  0.00  0.00    +0.000 A 
ATOM      8  C   UNL     1      49.167   7.059  18.391  0.00  0.00    +0.000 A 
ATOM      9  C   UNL     1      49.073   6.112  17.358  0.00  0.00    +0.000 A 
ATOM     10  C   UNL     1      47.991   5.216  17.305  0.00  0.00    +0.000 A 
ATOM     25  C   UNL     1      47.047   5.258  18.334  0.00  0.00    +0.000 A 
ATOM     26  C   UNL     1      47.136   6.202  19.361  0.00  0.00    +0.000 A 
BRANCH   7   6
ATOM      6  C   UNL     1      48.202   8.245  20.412  0.00  0.00    +0.000 C 
BRANCH   6   3
ATOM      3  N   UNL     1      47.115   9.237  20.226  0.00  0.00    +0.000 NA
BRANCH   3   4
ATOM      4  C   UNL     1      47.533  10.308  19.300  0.00  0.00    +0.000 C 
ATOM      5  C   UNL     1      48.960  10.816  19.474  0.00  0.00    +0.000 C 
ENDBRANCH   3   4
BRANCH   3   2
ATOM      1  C   UNL     1      45.463  10.631  21.573  0.00  0.00    +0.000 C 
ATOM      2  C   UNL     1      46.686   9.725  21.551  0.00  0.00    +0.000 C 
ENDBRANCH   3   2
ENDBRANCH   6   3
ENDBRANCH   7   6
ENDBRANCH  11  10
ENDBRANCH  12  11
TORSDOF 7
ENDMDL
MODEL 7
REMARK VINA RESULT:    -6.486      2.470      3.849
REMARK INTER + INTRA:          -9.570
REMARK INTER:                  -8.902
REMARK INTRA:                  -0.667
REMARK UNBOUND:                -0.429
REMARK  Name = 
REMARK  9 active torsions:
REMARK  status: ('A' for Active; 'I' for Inactive)
REMARK    1  A    between atoms: C_1  and  C_2
REMARK    2  A    between atoms: C_2  and  N_3
REMARK    3  A    between atoms: N_3  and  C_4
REMARK    4  A    between atoms: N_3  and  C_6
REMARK    5  A    between atoms: C_4  and  C_5
REMARK    6  A    between atoms: C_6  and  C_7
REMARK    7  A    between atoms: C_10  and  C_11
REMARK    8  A    between atoms: C_11  and  N_12
REMARK    9  A    between atoms: C_13  and  C_15
REMARK                            x       y       z     vdW  Elec       q    Type
REMARK                         _______ _______ _______ _____ _____    ______ ____
ROOT
ATOM     12  N   UNL     1      48.474   6.999  15.483  0.00  0.00    +0.000 N 
ATOM     13  C   UNL     1      49.283   6.557  16.492  0.00  0.00    +0.000 C 
ATOM     14  O   UNL     1      50.355   5.981  16.296  0.00  0.00    +0.000 OA
ATOM     27  H   UNL     1      47.481   7.073  15.695  0.00  0.00    +0.000 HD
ENDROOT
BRANCH  13  15
ATOM     15  C   UNL     1      48.818   6.876  17.844  0.00  0.00    +0.000 A 
ATOM     16  C   UNL     1      48.459   8.172  18.189  0.00  0.00    +0.000 A 
ATOM     17  S   UNL     1      47.886   8.307  19.794  0.00  0.00    +0.000 S 
ATOM     18  C   UNL     1      48.145   6.656  20.084  0.00  0.00    +0.000 A 
ATOM     19  N   UNL     1      47.877   6.099  21.301  0.00  0.00    +0.000 NA
ATOM     20  C   UNL     1      48.166   4.839  21.393  0.00  0.00    +0.000 A 
ATOM     21  N   UNL     1      48.689   4.076  20.373  0.00  0.00    +0.000 N 
ATOM     22  C   UNL     1      48.894   4.571  19.120  0.00  0.00    +0.000 A 
ATOM     23  O   UNL     1      49.248   3.842  18.194  0.00  0.00    +0.000 OA
ATOM     24  C   UNL     1      48.635   6.000  18.977  0.00  0.00    +0.000 A 
ATOM     28  H   UNL     1      48.856   3.095  20.500  0.00  0.00    +0.000 HD
ENDBRANCH  13  15
BRANCH  12  11
ATOM     11  C   UNL     1      48.801   6.825  14.099  0.00  0.00    +0.000 C 
BRANCH  11  10
ATOM      7  C   UNL     1      45.477   5.517  11.629  0.00  0.00    +0.000 A 
ATOM      8  C   UNL     1      46.299   6.553  11.192  0.00  0.00    +0.000 A 
ATOM      9  C   UNL     1      47.362   7.011  11.988  0.00  0.00    +0.000 A 
ATOM     10  C   UNL     1      47.617   6.431  13.243  0.00  0.00    +0.000 A 
ATOM     25  C   UNL     1      46.754   5.430  13.697  0.00  0.00    +0.000 A 
ATOM     26  C   UNL     1      45.698   4.970  12.906  0.00  0.00    +0.000 A 
BRANCH   7   6
ATOM      6  C   UNL     1      44.426   4.913  10.716  0.00  0.00    +0.000 C 
BRANCH   6   3
ATOM      3  N   UNL     1      44.918   3.761   9.923  0.00  0.00    +0.000 NA
BRANCH   3   4
ATOM      4  C   UNL     1      44.778   4.020   8.476  0.00  0.00    +0.000 C 
ATOM      5  C   UNL     1      45.954   3.589   7.607  0.00  0.00    +0.000 C 
ENDBRANCH   3   4
BRANCH   3   2
ATOM      1  C   UNL     1      43.280   2.702  11.561  0.00  0.00    +0.000 C 
ATOM      2  C   UNL     1      44.228   2.539  10.381  0.00  0.00    +0.000 C 
ENDBRANCH   3   2
ENDBRANCH   6   3
ENDBRANCH   7   6
ENDBRANCH  11  10
ENDBRANCH  12  11
TORSDOF 7
ENDMDL
MODEL 8
REMARK VINA RESULT:    -6.369      3.103      8.333
REMARK INTER + INTRA:          -9.404
REMARK INTER:                  -8.314
REMARK INTRA:                  -1.090
REMARK UNBOUND:                -0.429
REMARK  Name = 
REMARK  9 active torsions:
REMARK  status: ('A' for Active; 'I' for Inactive)
REMARK    1  A    between atoms: C_1  and  C_2
REMARK    2  A    between atoms: C_2  and  N_3
REMARK    3  A    between atoms: N_3  and  C_4
REMARK    4  A    between atoms: N_3  and  C_6
REMARK    5  A    between atoms: C_4  and  C_5
REMARK    6  A    between atoms: C_6  and  C_7
REMARK    7  A    between atoms: C_10  and  C_11
REMARK    8  A    between atoms: C_11  and  N_12
REMARK    9  A    between atoms: C_13  and  C_15
REMARK                            x       y       z     vdW  Elec       q    Type
REMARK                         _______ _______ _______ _____ _____    ______ ____
ROOT
ATOM     12  N   UNL     1      47.758   6.587  11.822  0.00  0.00    +0.000 N 
ATOM     13  C   UNL     1      46.401   6.725  11.737  0.00  0.00    +0.000 C 
ATOM     14  O   UNL     1      45.787   7.681  12.216  0.00  0.00    +0.000 OA
ATOM     27  H   UNL     1      48.122   5.636  11.787  0.00  0.00    +0.000 HD
ENDROOT
BRANCH  13  15
ATOM     15  C   UNL     1      45.719   5.680  10.969  0.00  0.00    +0.000 A 
ATOM     16  C   UNL     1      45.770   5.664   9.582  0.00  0.00    +0.000 A 
ATOM     17  S   UNL     1      44.961   4.325   8.893  0.00  0.00    +0.000 S 
ATOM     18  C   UNL     1      44.483   3.760  10.419  0.00  0.00    +0.000 A 
ATOM     19  N   UNL     1      43.722   2.634  10.553  0.00  0.00    +0.000 NA
ATOM     20  C   UNL     1      43.393   2.346  11.772  0.00  0.00    +0.000 A 
ATOM     21  N   UNL     1      43.765   3.076  12.880  0.00  0.00    +0.000 N 
ATOM     22  C   UNL     1      44.590   4.158  12.801  0.00  0.00    +0.000 A 
ATOM     23  O   UNL     1      45.006   4.721  13.812  0.00  0.00    +0.000 OA
ATOM     24  C   UNL     1      44.947   4.556  11.443  0.00  0.00    +0.000 A 
ATOM     28  H   UNL     1      43.505   2.778  13.802  0.00  0.00    +0.000 HD
ENDBRANCH  13  15
BRANCH  12  11
ATOM     11  C   UNL     1      48.591   7.545  12.487  0.00  0.00    +0.000 C 
BRANCH  11  10
ATOM      7  C   UNL     1      49.739   6.353  16.502  0.00  0.00    +0.000 A 
ATOM      8  C   UNL     1      48.516   5.940  15.980  0.00  0.00    +0.000 A 
ATOM      9  C   UNL     1      48.112   6.337  14.695  0.00  0.00    +0.000 A 
ATOM     10  C   UNL     1      48.936   7.162  13.909  0.00  0.00    +0.000 A 
ATOM     25  C   UNL     1      50.136   7.616  14.462  0.00  0.00    +0.000 A 
ATOM     26  C   UNL     1      50.542   7.220  15.739  0.00  0.00    +0.000 A 
BRANCH   7   6
ATOM      6  C   UNL     1      50.252   5.807  17.822  0.00  0.00    +0.000 C 
BRANCH   6   3
ATOM      3  N   UNL     1      49.564   4.569  18.262  0.00  0.00    +0.000 NA
BRANCH   3   4
ATOM      4  C   UNL     1      49.156   4.668  19.677  0.00  0.00    +0.000 C 
ATOM      5  C   UNL     1      48.327   5.895  20.044  0.00  0.00    +0.000 C 
ENDBRANCH   3   4
BRANCH   3   2
ATOM      1  C   UNL     1      49.840   2.329  17.082  0.00  0.00    +0.000 C 
ATOM      2  C   UNL     1      50.434   3.413  17.969  0.00  0.00    +0.000 C 
ENDBRANCH   3   2
ENDBRANCH   6   3
ENDBRANCH   7   6
ENDBRANCH  11  10
ENDBRANCH  12  11
TORSDOF 7
ENDMDL
MODEL 9
REMARK VINA RESULT:    -6.144      4.704      7.699
REMARK INTER + INTRA:          -9.087
REMARK INTER:                  -8.126
REMARK INTRA:                  -0.961
REMARK UNBOUND:                -0.429
REMARK  Name = 
REMARK  9 active torsions:
REMARK  status: ('A' for Active; 'I' for Inactive)
REMARK    1  A    between atoms: C_1  and  C_2
REMARK    2  A    between atoms: C_2  and  N_3
REMARK    3  A    between atoms: N_3  and  C_4
REMARK    4  A    between atoms: N_3  and  C_6
REMARK    5  A    between atoms: C_4  and  C_5
REMARK    6  A    between atoms: C_6  and  C_7
REMARK    7  A    between atoms: C_10  and  C_11
REMARK    8  A    between atoms: C_11  and  N_12
REMARK    9  A    between atoms: C_13  and  C_15
REMARK                            x       y       z     vdW  Elec       q    Type
REMARK                         _______ _______ _______ _____ _____    ______ ____
ROOT
ATOM     12  N   UNL     1      45.915   6.856  12.275  0.00  0.00    +0.000 N 
ATOM     13  C   UNL     1      44.720   6.597  11.665  0.00  0.00    +0.000 C 
ATOM     14  O   UNL     1      43.948   7.481  11.287  0.00  0.00    +0.000 OA
ATOM     27  H   UNL     1      46.273   6.136  12.899  0.00  0.00    +0.000 HD
ENDROOT
BRANCH  13  15
ATOM     15  C   UNL     1      44.440   5.179  11.426  0.00  0.00    +0.000 A 
ATOM     16  C   UNL     1      43.693   4.436  12.330  0.00  0.00    +0.000 A 
ATOM     17  S   UNL     1      43.434   2.823  11.825  0.00  0.00    +0.000 S 
ATOM     18  C   UNL     1      44.347   3.061  10.415  0.00  0.00    +0.000 A 
ATOM     19  N   UNL     1      44.550   2.048   9.522  0.00  0.00    +0.000 NA
ATOM     20  C   UNL     1      45.304   2.359   8.515  0.00  0.00    +0.000 A 
ATOM     21  N   UNL     1      45.869   3.599   8.309  0.00  0.00    +0.000 N 
ATOM     22  C   UNL     1      45.625   4.660   9.130  0.00  0.00    +0.000 A 
ATOM     23  O   UNL     1      46.041   5.785   8.861  0.00  0.00    +0.000 OA
ATOM     24  C   UNL     1      44.824   4.348  10.310  0.00  0.00    +0.000 A 
ATOM     28  H   UNL     1      46.414   3.784   7.488  0.00  0.00    +0.000 HD
ENDBRANCH  13  15
BRANCH  12  11
ATOM     11  C   UNL     1      46.376   8.187  12.536  0.00  0.00    +0.000 C 
BRANCH  11  10
ATOM      7  C   UNL     1      50.507   8.838  11.365  0.00  0.00    +0.000 A 
ATOM      8  C   UNL     1      49.632   9.918  11.446  0.00  0.00    +0.000 A 
ATOM      9  C   UNL     1      48.285   9.727  11.795  0.00  0.00    +0.000 A 
ATOM     10  C   UNL     1      47.793   8.439  12.069  0.00  0.00    +0.000 A 
ATOM     25  C   UNL     1      48.665   7.355  11.932  0.00  0.00    +0.000 A 
ATOM     26  C   UNL     1      50.006   7.543  11.589  0.00  0.00    +0.000 A 
BRANCH   7   6
ATOM      6  C   UNL     1      51.993   9.049  11.142  0.00  0.00    +0.000 C 
BRANCH   6   3
ATOM      3  N   UNL     1      52.490   8.477   9.866  0.00  0.00    +0.000 NA
BRANCH   3   4
ATOM      4  C   UNL     1      53.619   7.558  10.107  0.00  0.00    +0.000 C 
ATOM      5  C   UNL     1      53.342   6.082   9.842  0.00  0.00    +0.000 C 
ENDBRANCH   3   4
BRANCH   3   2
ATOM      1  C   UNL     1      53.609   9.218   7.702  0.00  0.00    +0.000 C 
ATOM      2  C   UNL     1      52.805   9.583   8.941  0.00  0.00    +0.000 C 
ENDBRANCH   3   2
ENDBRANCH   6   3
ENDBRANCH   7   6
ENDBRANCH  11  10
ENDBRANCH  12  11
TORSDOF 7
ENDMDL
