MODEL 1
REMARK VINA RESULT:    -7.058      0.000      0.000
REMARK INTER + INTRA:          -8.687
REMARK INTER:                  -8.709
REMARK INTRA:                   0.022
REMARK UNBOUND:                 0.022
REMARK  Name = 
REMARK  5 active torsions:
REMARK  status: ('A' for Active; 'I' for Inactive)
REMARK    1  A    between atoms: C_1  and  N_2
REMARK    2  A    between atoms: N_2  and  C_18
REMARK    3  A    between atoms: C_3  and  C_5
REMARK    4  A    between atoms: C_5  and  N_6
REMARK    5  A    between atoms: C_11  and  C_12
REMARK                            x       y       z     vdW  Elec       q    Type
REMARK                         _______ _______ _______ _____ _____    ______ ____
ROOT
ATOM      6  N   UNL     1      44.394   4.277  10.568  0.00  0.00    +0.000 N 
ATOM      7  C   UNL     1      43.734   3.132  10.944  0.00  0.00    +0.000 A 
ATOM      8  C   UNL     1      44.134   2.111  10.109  0.00  0.00    +0.000 A 
ATOM      9  C   UNL     1      45.011   2.669   9.144  0.00  0.00    +0.000 A 
ATOM     10  C   UNL     1      45.707   2.166   8.031  0.00  0.00    +0.000 A 
ATOM     11  C   UNL     1      46.471   3.061   7.278  0.00  0.00    +0.000 A 
ATOM     15  C   UNL     1      46.503   4.398   7.675  0.00  0.00    +0.000 A 
ATOM     16  N   UNL     1      45.865   4.932   8.751  0.00  0.00    +0.000 NA
ATOM     17  C   UNL     1      45.144   4.022   9.439  0.00  0.00    +0.000 A 
ENDROOT
BRANCH  11  12
ATOM     12  C   UNL     1      47.240   2.664   6.073  0.00  0.00    +0.000 C 
ATOM     13  N   UNL     1      48.593   2.505   6.179  0.00  0.00    +0.000 N 
ATOM     14  O   UNL     1      46.680   2.478   4.996  0.00  0.00    +0.000 OA
ATOM     24  H   UNL     1      49.136   2.645   7.015  0.00  0.00    +0.000 HD
ATOM     25  H   UNL     1      49.090   2.238   5.339  0.00  0.00    +0.000 HD
ENDBRANCH  11  12
BRANCH   6   5
ATOM      5  C   UNL     1      44.252   5.592  11.188  0.00  0.00    +0.000 C 
BRANCH   5   3
ATOM      1  C   UNL     1      44.996   8.448  11.475  0.00  0.00    +0.000 C 
ATOM      2  N   UNL     1      45.776   7.389  12.110  0.00  0.00    +0.000 N 
ATOM      3  C   UNL     1      45.455   6.022  12.028  0.00  0.00    +0.000 C 
ATOM      4  O   UNL     1      46.097   5.191  12.679  0.00  0.00    +0.000 OA
BRANCH   2  18
ATOM     18  C   UNL     1      46.893   7.765  13.024  0.00  0.00    +0.000 C 
ATOM     19  C   UNL     1      47.022   9.287  13.209  0.00  0.00    +0.000 C 
ATOM     20  C   UNL     1      47.835   9.950  12.103  0.00  0.00    +0.000 C 
ATOM     21  N   UNL     1      49.158   9.344  11.956  0.00  0.00    +0.000 NA
ATOM     22  C   UNL     1      49.076   7.913  11.674  0.00  0.00    +0.000 C 
ATOM     23  C   UNL     1      48.263   7.143  12.713  0.00  0.00    +0.000 C 
ATOM     26  H   UNL     1      49.689   9.490  12.816  0.00  0.00    +0.000 HD
ENDBRANCH   2  18
ENDBRANCH   5   3
ENDBRANCH   6   5
TORSDOF 4
ENDMDL
MODEL 2
REMARK VINA RESULT:    -6.574      4.322      8.603
REMARK INTER + INTRA:          -8.090
REMARK INTER:                  -7.908
REMARK INTRA:                  -0.182
REMARK UNBOUND:                 0.022
REMARK  Name = 
REMARK  5 active torsions:
REMARK  status: ('A' for Active; 'I' for Inactive)
REMARK    1  A    between atoms: C_1  and  N_2
REMARK    2  A    between atoms: N_2  and  C_18
REMARK    3  A    between atoms: C_3  and  C_5
REMARK    4  A    between atoms: C_5  and  N_6
REMARK    5  A    between atoms: C_11  and  C_12
REMARK                            x       y       z     vdW  Elec       q    Type
REMARK                         _______ _______ _______ _____ _____    ______ ____
ROOT
ATOM      6  N   UNL     1      48.422   6.928  14.674  0.00  0.00    +0.000 N 
ATOM      7  C   UNL     1      48.673   8.238  15.005  0.00  0.00    +0.000 A 
ATOM      8  C   UNL     1      48.982   8.291  16.346  0.00  0.00    +0.000 A 
ATOM      9  C   UNL     1      48.842   6.980  16.869  0.00  0.00    +0.000 A 
ATOM     10  C   UNL     1      48.977   6.402  18.142  0.00  0.00    +0.000 A 
ATOM     11  C   UNL     1      48.713   5.036  18.273  0.00  0.00    +0.000 A 
ATOM     15  C   UNL     1      48.337   4.324  17.134  0.00  0.00    +0.000 A 
ATOM     16  N   UNL     1      48.208   4.830  15.878  0.00  0.00    +0.000 NA
ATOM     17  C   UNL     1      48.475   6.151  15.813  0.00  0.00    +0.000 A 
ENDROOT
BRANCH  11  12
ATOM     12  C   UNL     1      48.805   4.307  19.562  0.00  0.00    +0.000 C 
ATOM     13  N   UNL     1      48.351   3.020  19.625  0.00  0.00    +0.000 N 
ATOM     14  O   UNL     1      49.278   4.843  20.561  0.00  0.00    +0.000 OA
ATOM     24  H   UNL     1      47.941   2.506  18.862  0.00  0.00    +0.000 HD
ATOM     25  H   UNL     1      48.424   2.551  20.519  0.00  0.00    +0.000 HD
ENDBRANCH  11  12
BRANCH   6   5
ATOM      5  C   UNL     1      48.049   6.433  13.352  0.00  0.00    +0.000 C 
BRANCH   5   3
ATOM      1  C   UNL     1      46.374   3.997  13.124  0.00  0.00    +0.000 C 
ATOM      2  N   UNL     1      45.811   5.330  12.929  0.00  0.00    +0.000 N 
ATOM      3  C   UNL     1      46.553   6.519  13.050  0.00  0.00    +0.000 C 
ATOM      4  O   UNL     1      45.987   7.615  12.977  0.00  0.00    +0.000 OA
BRANCH   2  18
ATOM     18  C   UNL     1      44.339   5.470  12.738  0.00  0.00    +0.000 C 
ATOM     19  C   UNL     1      43.546   4.303  13.352  0.00  0.00    +0.000 C 
ATOM     20  C   UNL     1      43.453   3.099  12.423  0.00  0.00    +0.000 C 
ATOM     21  N   UNL     1      42.899   3.455  11.117  0.00  0.00    +0.000 NA
ATOM     22  C   UNL     1      43.687   4.491  10.452  0.00  0.00    +0.000 C 
ATOM     23  C   UNL     1      43.864   5.747  11.303  0.00  0.00    +0.000 C 
ATOM     26  H   UNL     1      41.941   3.785  11.239  0.00  0.00    +0.000 HD
ENDBRANCH   2  18
ENDBRANCH   5   3
ENDBRANCH   6   5
TORSDOF 4
ENDMDL
MODEL 3
REMARK VINA RESULT:    -6.560      2.147      7.023
REMARK INTER + INTRA:          -8.072
REMARK INTER:                  -8.451
REMARK INTRA:                   0.379
REMARK UNBOUND:                 0.022
REMARK  Name = 
REMARK  5 active torsions:
REMARK  status: ('A' for Active; 'I' for Inactive)
REMARK    1  A    between atoms: C_1  and  N_2
REMARK    2  A    between atoms: N_2  and  C_18
REMARK    3  A    between atoms: C_3  and  C_5
REMARK    4  A    between atoms: C_5  and  N_6
REMARK    5  A    between atoms: C_11  and  C_12
REMARK                            x       y       z     vdW  Elec       q    Type
REMARK                         _______ _______ _______ _____ _____    ______ ____
ROOT
ATOM      6  N   UNL     1      44.454   4.247  10.573  0.00  0.00    +0.000 N 
ATOM      7  C   UNL     1      43.791   3.363  11.391  0.00  0.00    +0.000 A 
ATOM      8  C   UNL     1      44.183   3.605  12.690  0.00  0.00    +0.000 A 
ATOM      9  C   UNL     1      45.174   4.619  12.655  0.00  0.00    +0.000 A 
ATOM     10  C   UNL     1      45.967   5.262  13.621  0.00  0.00    +0.000 A 
ATOM     11  C   UNL     1      46.887   6.218  13.182  0.00  0.00    +0.000 A 
ATOM     15  C   UNL     1      46.962   6.483  11.814  0.00  0.00    +0.000 A 
ATOM     16  N   UNL     1      46.207   5.904  10.842  0.00  0.00    +0.000 NA
ATOM     17  C   UNL     1      45.339   4.990  11.324  0.00  0.00    +0.000 A 
ENDROOT
BRANCH  11  12
ATOM     12  C   UNL     1      47.793   6.957  14.095  0.00  0.00    +0.000 C 
ATOM     13  N   UNL     1      47.401   8.180  14.562  0.00  0.00    +0.000 N 
ATOM     14  O   UNL     1      48.876   6.487  14.431  0.00  0.00    +0.000 OA
ATOM     24  H   UNL     1      46.538   8.646  14.334  0.00  0.00    +0.000 HD
ATOM     25  H   UNL     1      48.042   8.662  15.180  0.00  0.00    +0.000 HD
ENDBRANCH  11  12
BRANCH   6   5
ATOM      5  C   UNL     1      44.333   4.325   9.119  0.00  0.00    +0.000 C 
BRANCH   5   3
ATOM      1  C   UNL     1      45.217   1.570   8.471  0.00  0.00    +0.000 C 
ATOM      2  N   UNL     1      46.020   2.734   8.107  0.00  0.00    +0.000 N 
ATOM      3  C   UNL     1      45.638   4.062   8.367  0.00  0.00    +0.000 C 
ATOM      4  O   UNL     1      46.315   5.001   7.935  0.00  0.00    +0.000 OA
BRANCH   2  18
ATOM     18  C   UNL     1      47.246   2.535   7.281  0.00  0.00    +0.000 C 
ATOM     19  C   UNL     1      47.098   3.092   5.855  0.00  0.00    +0.000 C 
ATOM     20  C   UNL     1      46.419   2.112   4.905  0.00  0.00    +0.000 C 
ATOM     21  N   UNL     1      47.099   0.817   4.875  0.00  0.00    +0.000 NA
ATOM     22  C   UNL     1      47.167   0.204   6.200  0.00  0.00    +0.000 C 
ATOM     23  C   UNL     1      47.816   1.109   7.246  0.00  0.00    +0.000 C 
ATOM     26  H   UNL     1      48.045   0.945   4.512  0.00  0.00    +0.000 HD
ENDBRANCH   2  18
ENDBRANCH   5   3
ENDBRANCH   6   5
TORSDOF 4
ENDMDL
MODEL 4
REMARK VINA RESULT:    -6.389      5.238      6.744
REMARK INTER + INTRA:          -7.861
REMARK INTER:                  -7.708
REMARK INTRA:                  -0.153
REMARK UNBOUND:                 0.022
REMARK  Name = 
REMARK  5 active torsions:
REMARK  status: ('A' for Active; 'I' for Inactive)
REMARK    1  A    between atoms: C_1  and  N_2
REMARK    2  A    between atoms: N_2  and  C_18
REMARK    3  A    between atoms: C_3  and  C_5
REMARK    4  A    between atoms: C_5  and  N_6
REMARK    5  A    between atoms: C_11  and  C_12
REMARK                            x       y       z     vdW  Elec       q    Type
REMARK                         _______ _______ _______ _____ _____    ______ ____
ROOT
ATOM      6  N   UNL     1      47.375   4.894  14.982  0.00  0.00    +0.000 N 
ATOM      7  C   UNL     1      48.116   6.048  14.894  0.00  0.00    +0.000 A 
ATOM      8  C   UNL     1      47.753   6.705  13.739  0.00  0.00    +0.000 A 
ATOM      9  C   UNL     1      46.813   5.888  13.061  0.00  0.00    +0.000 A 
ATOM     10  C   UNL     1      46.113   5.981  11.845  0.00  0.00    +0.000 A 
ATOM     11  C   UNL     1      45.272   4.924  11.490  0.00  0.00    +0.000 A 
ATOM     15  C   UNL     1      45.170   3.840  12.363  0.00  0.00    +0.000 A 
ATOM     16  N   UNL     1      45.809   3.707  13.556  0.00  0.00    +0.000 NA
ATOM     17  C   UNL     1      46.606   4.757  13.846  0.00  0.00    +0.000 A 
ENDROOT
BRANCH  11  12
ATOM     12  C   UNL     1      44.491   4.892  10.229  0.00  0.00    +0.000 C 
ATOM     13  N   UNL     1      45.153   4.712   9.049  0.00  0.00    +0.000 N 
ATOM     14  O   UNL     1      43.270   5.024  10.237  0.00  0.00    +0.000 OA
ATOM     24  H   UNL     1      46.149   4.605   8.946  0.00  0.00    +0.000 HD
ATOM     25  H   UNL     1      44.593   4.698   8.206  0.00  0.00    +0.000 HD
ENDBRANCH  11  12
BRANCH   6   5
ATOM      5  C   UNL     1      47.456   3.902  16.051  0.00  0.00    +0.000 C 
BRANCH   5   3
ATOM      1  C   UNL     1      46.972   5.398  18.565  0.00  0.00    +0.000 C 
ATOM      2  N   UNL     1      48.298   4.892  18.222  0.00  0.00    +0.000 N 
ATOM      3  C   UNL     1      48.579   4.155  17.057  0.00  0.00    +0.000 C 
ATOM      4  O   UNL     1      49.700   3.667  16.885  0.00  0.00    +0.000 OA
BRANCH   2  18
ATOM     18  C   UNL     1      49.399   5.022  19.219  0.00  0.00    +0.000 C 
ATOM     19  C   UNL     1      48.974   4.594  20.634  0.00  0.00    +0.000 C 
ATOM     20  C   UNL     1      48.278   5.710  21.404  0.00  0.00    +0.000 C 
ATOM     21  N   UNL     1      49.091   6.924  21.466  0.00  0.00    +0.000 NA
ATOM     22  C   UNL     1      49.430   7.424  20.136  0.00  0.00    +0.000 C 
ATOM     23  C   UNL     1      50.120   6.379  19.261  0.00  0.00    +0.000 C 
ATOM     26  H   UNL     1      49.949   6.725  21.982  0.00  0.00    +0.000 HD
ENDBRANCH   2  18
ENDBRANCH   5   3
ENDBRANCH   6   5
TORSDOF 4
ENDMDL
MODEL 5
REMARK VINA RESULT:    -6.294      4.377      6.592
REMARK INTER + INTRA:          -7.744
REMARK INTER:                  -7.471
REMARK INTRA:                  -0.273
REMARK UNBOUND:                 0.022
REMARK  Name = 
REMARK  5 active torsions:
REMARK  status: ('A' for Active; 'I' for Inactive)
REMARK    1  A    between atoms: C_1  and  N_2
REMARK    2  A    between atoms: N_2  and  C_18
REMARK    3  A    between atoms: C_3  and  C_5
REMARK    4  A    between atoms: C_5  and  N_6
REMARK    5  A    between atoms: C_11  and  C_12
REMARK                            x       y       z     vdW  Elec       q    Type
REMARK                         _______ _______ _______ _____ _____    ______ ____
ROOT
ATOM      6  N   UNL     1      47.546   7.166  13.741  0.00  0.00    +0.000 N 
ATOM      7  C   UNL     1      46.987   8.384  13.433  0.00  0.00    +0.000 A 
ATOM      8  C   UNL     1      45.732   8.160  12.911  0.00  0.00    +0.000 A 
ATOM      9  C   UNL     1      45.549   6.756  12.827  0.00  0.00    +0.000 A 
ATOM     10  C   UNL     1      44.522   5.918  12.360  0.00  0.00    +0.000 A 
ATOM     11  C   UNL     1      44.729   4.537  12.412  0.00  0.00    +0.000 A 
ATOM     15  C   UNL     1      45.938   4.070  12.929  0.00  0.00    +0.000 A 
ATOM     16  N   UNL     1      46.954   4.835  13.410  0.00  0.00    +0.000 NA
ATOM     17  C   UNL     1      46.699   6.158  13.333  0.00  0.00    +0.000 A 
ENDROOT
BRANCH  11  12
ATOM     12  C   UNL     1      43.733   3.545  11.939  0.00  0.00    +0.000 C 
ATOM     13  N   UNL     1      43.744   2.291  12.482  0.00  0.00    +0.000 N 
ATOM     14  O   UNL     1      42.910   3.836  11.075  0.00  0.00    +0.000 OA
ATOM     24  H   UNL     1      44.385   1.963  13.185  0.00  0.00    +0.000 HD
ATOM     25  H   UNL     1      43.055   1.636  12.135  0.00  0.00    +0.000 HD
ENDBRANCH  11  12
BRANCH   6   5
ATOM      5  C   UNL     1      48.874   6.952  14.310  0.00  0.00    +0.000 C 
BRANCH   5   3
ATOM      1  C   UNL     1      48.407   5.018  16.509  0.00  0.00    +0.000 C 
ATOM      2  N   UNL     1      48.746   6.413  16.779  0.00  0.00    +0.000 N 
ATOM      3  C   UNL     1      49.002   7.365  15.776  0.00  0.00    +0.000 C 
ATOM      4  O   UNL     1      49.388   8.499  16.079  0.00  0.00    +0.000 OA
BRANCH   2  18
ATOM     18  C   UNL     1      48.984   6.837  18.188  0.00  0.00    +0.000 C 
ATOM     19  C   UNL     1      49.869   5.847  18.965  0.00  0.00    +0.000 C 
ATOM     20  C   UNL     1      49.078   4.684  19.553  0.00  0.00    +0.000 C 
ATOM     21  N   UNL     1      47.973   5.142  20.394  0.00  0.00    +0.000 NA
ATOM     22  C   UNL     1      47.049   6.005  19.661  0.00  0.00    +0.000 C 
ATOM     23  C   UNL     1      47.737   7.202  19.009  0.00  0.00    +0.000 C 
ATOM     26  H   UNL     1      48.350   5.653  21.194  0.00  0.00    +0.000 HD
ENDBRANCH   2  18
ENDBRANCH   5   3
ENDBRANCH   6   5
TORSDOF 4
ENDMDL
MODEL 6
REMARK VINA RESULT:    -6.137      3.138      6.891
REMARK INTER + INTRA:          -7.551
REMARK INTER:                  -7.237
REMARK INTRA:                  -0.314
REMARK UNBOUND:                 0.022
REMARK  Name = 
REMARK  5 active torsions:
REMARK  status: ('A' for Active; 'I' for Inactive)
REMARK    1  A    between atoms: C_1  and  N_2
REMARK    2  A    between atoms: N_2  and  C_18
REMARK    3  A    between atoms: C_3  and  C_5
REMARK    4  A    between atoms: C_5  and  N_6
REMARK    5  A    between atoms: C_11  and  C_12
REMARK                            x       y       z     vdW  Elec       q    Type
REMARK                         _______ _______ _______ _____ _____    ______ ____
ROOT
ATOM      6  N   UNL     1      46.931   9.123  12.343  0.00  0.00    +0.000 N 
ATOM      7  C   UNL     1      46.747  10.465  12.109  0.00  0.00    +0.000 A 
ATOM      8  C   UNL     1      47.905  10.968  11.557  0.00  0.00    +0.000 A 
ATOM      9  C   UNL     1      48.853   9.915  11.523  0.00  0.00    +0.000 A 
ATOM     10  C   UNL     1      50.195   9.803  11.118  0.00  0.00    +0.000 A 
ATOM     11  C   UNL     1      50.825   8.566  11.274  0.00  0.00    +0.000 A 
ATOM     15  C   UNL     1      50.087   7.513  11.817  0.00  0.00    +0.000 A 
ATOM     16  N   UNL     1      48.786   7.562  12.207  0.00  0.00    +0.000 NA
ATOM     17  C   UNL     1      48.230   8.780  12.033  0.00  0.00    +0.000 A 
ENDROOT
BRANCH  11  12
ATOM     12  C   UNL     1      52.240   8.318  10.901  0.00  0.00    +0.000 C 
ATOM     13  N   UNL     1      53.019   7.570  11.737  0.00  0.00    +0.000 N 
ATOM     14  O   UNL     1      52.710   8.774   9.862  0.00  0.00    +0.000 OA
ATOM     24  H   UNL     1      52.723   7.166  12.610  0.00  0.00    +0.000 HD
ATOM     25  H   UNL     1      53.981   7.422  11.457  0.00  0.00    +0.000 HD
ENDBRANCH  11  12
BRANCH   6   5
ATOM      5  C   UNL     1      45.951   8.212  12.929  0.00  0.00    +0.000 C 
BRANCH   5   3
ATOM      1  C   UNL     1      45.918   5.261  12.644  0.00  0.00    +0.000 C 
ATOM      2  N   UNL     1      45.092   6.118  11.798  0.00  0.00    +0.000 N 
ATOM      3  C   UNL     1      45.050   7.520  11.906  0.00  0.00    +0.000 C 
ATOM      4  O   UNL     1      44.248   8.173  11.230  0.00  0.00    +0.000 OA
BRANCH   2  18
ATOM     18  C   UNL     1      44.120   5.485  10.860  0.00  0.00    +0.000 C 
ATOM     19  C   UNL     1      42.929   4.837  11.588  0.00  0.00    +0.000 C 
ATOM     20  C   UNL     1      43.231   3.424  12.073  0.00  0.00    +0.000 C 
ATOM     21  N   UNL     1      43.692   2.559  10.988  0.00  0.00    +0.000 NA
ATOM     22  C   UNL     1      44.889   3.088  10.337  0.00  0.00    +0.000 C 
ATOM     23  C   UNL     1      44.709   4.516   9.823  0.00  0.00    +0.000 C 
ATOM     26  H   UNL     1      42.947   2.461  10.297  0.00  0.00    +0.000 HD
ENDBRANCH   2  18
ENDBRANCH   5   3
ENDBRANCH   6   5
TORSDOF 4
ENDMDL
MODEL 7
REMARK VINA RESULT:    -5.928      5.019      8.902
REMARK INTER + INTRA:          -7.293
REMARK INTER:                  -7.318
REMARK INTRA:                   0.025
REMARK UNBOUND:                 0.022
REMARK  Name = 
REMARK  5 active torsions:
REMARK  status: ('A' for Active; 'I' for Inactive)
REMARK    1  A    between atoms: C_1  and  N_2
REMARK    2  A    between atoms: N_2  and  C_18
REMARK    3  A    between atoms: C_3  and  C_5
REMARK    4  A    between atoms: C_5  and  N_6
REMARK    5  A    between atoms: C_11  and  C_12
REMARK                            x       y       z     vdW  Elec       q    Type
REMARK                         _______ _______ _______ _____ _____    ______ ____
ROOT
ATOM      6  N   UNL     1      47.945   4.971  16.056  0.00  0.00    +0.000 N 
ATOM      7  C   UNL     1      47.103   4.237  16.857  0.00  0.00    +0.000 A 
ATOM      8  C   UNL     1      47.650   4.181  18.120  0.00  0.00    +0.000 A 
ATOM      9  C   UNL     1      48.906   4.839  18.070  0.00  0.00    +0.000 A 
ATOM     10  C   UNL     1      49.934   5.082  18.997  0.00  0.00    +0.000 A 
ATOM     11  C   UNL     1      51.072   5.758  18.550  0.00  0.00    +0.000 A 
ATOM     15  C   UNL     1      51.121   6.158  17.214  0.00  0.00    +0.000 A 
ATOM     16  N   UNL     1      50.149   5.965  16.283  0.00  0.00    +0.000 NA
ATOM     17  C   UNL     1      49.076   5.307  16.771  0.00  0.00    +0.000 A 
ENDROOT
BRANCH  11  12
ATOM     12  C   UNL     1      52.234   6.064  19.421  0.00  0.00    +0.000 C 
ATOM     13  N   UNL     1      53.256   6.814  18.915  0.00  0.00    +0.000 N 
ATOM     14  O   UNL     1      52.283   5.654  20.578  0.00  0.00    +0.000 OA
ATOM     24  H   UNL     1      53.305   7.184  17.979  0.00  0.00    +0.000 HD
ATOM     25  H   UNL     1      54.036   7.003  19.532  0.00  0.00    +0.000 HD
ENDBRANCH  11  12
BRANCH   6   5
ATOM      5  C   UNL     1      47.743   5.265  14.640  0.00  0.00    +0.000 C 
BRANCH   5   3
ATOM      1  C   UNL     1      45.422   6.380  13.170  0.00  0.00    +0.000 C 
ATOM      2  N   UNL     1      45.630   4.939  13.288  0.00  0.00    +0.000 N 
ATOM      3  C   UNL     1      46.725   4.357  13.951  0.00  0.00    +0.000 C 
ATOM      4  O   UNL     1      46.893   3.133  13.918  0.00  0.00    +0.000 OA
BRANCH   2  18
ATOM     18  C   UNL     1      44.723   4.017  12.545  0.00  0.00    +0.000 C 
ATOM     19  C   UNL     1      45.194   3.754  11.104  0.00  0.00    +0.000 C 
ATOM     20  C   UNL     1      44.737   4.832  10.127  0.00  0.00    +0.000 C 
ATOM     21  N   UNL     1      43.287   5.021  10.159  0.00  0.00    +0.000 NA
ATOM     22  C   UNL     1      42.811   5.376  11.494  0.00  0.00    +0.000 C 
ATOM     23  C   UNL     1      43.228   4.371  12.566  0.00  0.00    +0.000 C 
ATOM     26  H   UNL     1      42.831   4.160   9.855  0.00  0.00    +0.000 HD
ENDBRANCH   2  18
ENDBRANCH   5   3
ENDBRANCH   6   5
TORSDOF 4
ENDMDL
MODEL 8
REMARK VINA RESULT:    -5.436      3.687      5.501
REMARK INTER + INTRA:          -6.686
REMARK INTER:                  -6.444
REMARK INTRA:                  -0.241
REMARK UNBOUND:                 0.022
REMARK  Name = 
REMARK  5 active torsions:
REMARK  status: ('A' for Active; 'I' for Inactive)
REMARK    1  A    between atoms: C_1  and  N_2
REMARK    2  A    between atoms: N_2  and  C_18
REMARK    3  A    between atoms: C_3  and  C_5
REMARK    4  A    between atoms: C_5  and  N_6
REMARK    5  A    between atoms: C_11  and  C_12
REMARK                            x       y       z     vdW  Elec       q    Type
REMARK                         _______ _______ _______ _____ _____    ______ ____
ROOT
ATOM      6  N   UNL     1      47.873   6.185  13.713  0.00  0.00    +0.000 N 
ATOM      7  C   UNL     1      47.799   5.405  14.842  0.00  0.00    +0.000 A 
ATOM      8  C   UNL     1      46.879   4.404  14.614  0.00  0.00    +0.000 A 
ATOM      9  C   UNL     1      46.318   4.626  13.330  0.00  0.00    +0.000 A 
ATOM     10  C   UNL     1      45.329   3.991  12.559  0.00  0.00    +0.000 A 
ATOM     11  C   UNL     1      45.016   4.542  11.314  0.00  0.00    +0.000 A 
ATOM     15  C   UNL     1      45.705   5.684  10.905  0.00  0.00    +0.000 A 
ATOM     16  N   UNL     1      46.680   6.326  11.603  0.00  0.00    +0.000 NA
ATOM     17  C   UNL     1      46.939   5.750  12.796  0.00  0.00    +0.000 A 
ENDROOT
BRANCH  11  12
ATOM     12  C   UNL     1      43.984   3.978  10.409  0.00  0.00    +0.000 C 
ATOM     13  N   UNL     1      43.926   4.423   9.119  0.00  0.00    +0.000 N 
ATOM     14  O   UNL     1      43.191   3.128  10.805  0.00  0.00    +0.000 OA
ATOM     24  H   UNL     1      44.526   5.122   8.712  0.00  0.00    +0.000 HD
ATOM     25  H   UNL     1      43.208   4.023   8.528  0.00  0.00    +0.000 HD
ENDBRANCH  11  12
BRANCH   6   5
ATOM      5  C   UNL     1      48.722   7.360  13.536  0.00  0.00    +0.000 C 
BRANCH   5   3
ATOM      1  C   UNL     1      50.409   7.849  15.925  0.00  0.00    +0.000 C 
ATOM      2  N   UNL     1      49.239   8.674  15.635  0.00  0.00    +0.000 N 
ATOM      3  C   UNL     1      48.419   8.503  14.506  0.00  0.00    +0.000 C 
ATOM      4  O   UNL     1      47.510   9.305  14.269  0.00  0.00    +0.000 OA
BRANCH   2  18
ATOM     18  C   UNL     1      48.966   9.863  16.493  0.00  0.00    +0.000 C 
ATOM     19  C   UNL     1      50.252  10.549  16.985  0.00  0.00    +0.000 C 
ATOM     20  C   UNL     1      50.824   9.900  18.240  0.00  0.00    +0.000 C 
ATOM     21  N   UNL     1      49.841   9.833  19.320  0.00  0.00    +0.000 NA
ATOM     22  C   UNL     1      48.643   9.096  18.925  0.00  0.00    +0.000 C 
ATOM     23  C   UNL     1      47.990   9.650  17.660  0.00  0.00    +0.000 C 
ATOM     26  H   UNL     1      49.580  10.782  19.594  0.00  0.00    +0.000 HD
ENDBRANCH   2  18
ENDBRANCH   5   3
ENDBRANCH   6   5
TORSDOF 4
ENDMDL
MODEL 9
REMARK VINA RESULT:    -5.342      4.585      6.819
REMARK INTER + INTRA:          -6.570
REMARK INTER:                  -6.239
REMARK INTRA:                  -0.331
REMARK UNBOUND:                 0.022
REMARK  Name = 
REMARK  5 active torsions:
REMARK  status: ('A' for Active; 'I' for Inactive)
REMARK    1  A    between atoms: C_1  and  N_2
REMARK    2  A    between atoms: N_2  and  C_18
REMARK    3  A    between atoms: C_3  and  C_5
REMARK    4  A    between atoms: C_5  and  N_6
REMARK    5  A    between atoms: C_11  and  C_12
REMARK                            x       y       z     vdW  Elec       q    Type
REMARK                         _______ _______ _______ _____ _____    ______ ____
ROOT
ATOM      6  N   UNL     1      48.496   7.218  14.560  0.00  0.00    +0.000 N 
ATOM      7  C   UNL     1      48.263   8.447  13.989  0.00  0.00    +0.000 A 
ATOM      8  C   UNL     1      47.208   8.321  13.112  0.00  0.00    +0.000 A 
ATOM      9  C   UNL     1      46.834   6.953  13.090  0.00  0.00    +0.000 A 
ATOM     10  C   UNL     1      45.877   6.199  12.389  0.00  0.00    +0.000 A 
ATOM     11  C   UNL     1      45.831   4.822  12.619  0.00  0.00    +0.000 A 
ATOM     15  C   UNL     1      46.733   4.275  13.533  0.00  0.00    +0.000 A 
ATOM     16  N   UNL     1      47.664   4.959  14.249  0.00  0.00    +0.000 NA
ATOM     17  C   UNL     1      47.662   6.283  13.986  0.00  0.00    +0.000 A 
ENDROOT
BRANCH  11  12
ATOM     12  C   UNL     1      44.880   3.912  11.934  0.00  0.00    +0.000 C 
ATOM     13  N   UNL     1      44.629   2.687  12.485  0.00  0.00    +0.000 N 
ATOM     14  O   UNL     1      44.324   4.245  10.891  0.00  0.00    +0.000 OA
ATOM     24  H   UNL     1      45.044   2.327  13.329  0.00  0.00    +0.000 HD
ATOM     25  H   UNL     1      43.979   2.088  11.992  0.00  0.00    +0.000 HD
ENDBRANCH  11  12
BRANCH   6   5
ATOM      5  C   UNL     1      49.535   6.911  15.540  0.00  0.00    +0.000 C 
BRANCH   5   3
ATOM      1  C   UNL     1      49.845   9.278  17.299  0.00  0.00    +0.000 C 
ATOM      2  N   UNL     1      49.239   8.041  17.784  0.00  0.00    +0.000 N 
ATOM      3  C   UNL     1      49.044   6.898  16.988  0.00  0.00    +0.000 C 
ATOM      4  O   UNL     1      48.428   5.925  17.435  0.00  0.00    +0.000 OA
BRANCH   2  18
ATOM     18  C   UNL     1      48.652   8.015  19.155  0.00  0.00    +0.000 C 
ATOM     19  C   UNL     1      47.260   8.668  19.217  0.00  0.00    +0.000 C 
ATOM     20  C   UNL     1      47.325  10.182  19.380  0.00  0.00    +0.000 C 
ATOM     21  N   UNL     1      48.120  10.576  20.542  0.00  0.00    +0.000 NA
ATOM     22  C   UNL     1      49.486  10.061  20.470  0.00  0.00    +0.000 C 
ATOM     23  C   UNL     1      49.546   8.545  20.287  0.00  0.00    +0.000 C 
ATOM     26  H   UNL     1      47.671  10.225  21.389  0.00  0.00    +0.000 HD
ENDBRANCH   2  18
ENDBRANCH   5   3
ENDBRANCH   6   5
TORSDOF 4
ENDMDL
