MODEL 1
REMARK VINA RESULT:    -6.199      0.000      0.000
REMARK INTER + INTRA:         -14.911
REMARK INTER:                 -11.272
REMARK INTRA:                  -3.639
REMARK UNBOUND:                -3.639
REMARK  Name = 
REMARK  15 active torsions:
REMARK  status: ('A' for Active; 'I' for Inactive)
REMARK    1  A    between atoms: C_1  and  C_2
REMARK    2  A    between atoms: C_2  and  C_3
REMARK    3  A    between atoms: C_3  and  C_4
REMARK    4  A    between atoms: C_4  and  C_5
REMARK    5  A    between atoms: C_5  and  C_6
REMARK    6  A    between atoms: C_6  and  C_7
REMARK    7  A    between atoms: C_7  and  C_8
REMARK    8  A    between atoms: C_8  and  N_9
REMARK    9  A    between atoms: N_9  and  C_10
REMARK   10  A    between atoms: N_9  and  C_17
REMARK   11  A    between atoms: C_10  and  C_11
REMARK   12  A    between atoms: C_17  and  C_18
REMARK   13  A    between atoms: C_21  and  C_22
REMARK   14  A    between atoms: C_22  and  N_23
REMARK   15  A    between atoms: C_24  and  C_26
REMARK                            x       y       z     vdW  Elec       q    Type
REMARK                         _______ _______ _______ _____ _____    ______ ____
ROOT
ATOM     18  C   UNL     1      46.411   7.046  11.860  0.00  0.00    +0.000 A 
ATOM     19  C   UNL     1      45.993   7.948  12.848  0.00  0.00    +0.000 A 
ATOM     20  C   UNL     1      46.908   8.474  13.766  0.00  0.00    +0.000 A 
ATOM     21  C   UNL     1      48.258   8.100  13.720  0.00  0.00    +0.000 A 
ATOM     36  C   UNL     1      48.654   7.124  12.796  0.00  0.00    +0.000 A 
ATOM     37  C   UNL     1      47.743   6.607  11.871  0.00  0.00    +0.000 A 
ENDROOT
BRANCH  18  17
ATOM     17  C   UNL     1      45.456   6.617  10.755  0.00  0.00    +0.000 C 
BRANCH  17   9
ATOM      9  N   UNL     1      45.129   5.162  10.794  0.00  0.00    +0.000 NA
BRANCH   9   8
ATOM      8  C   UNL     1      44.193   4.912  11.923  0.00  0.00    +0.000 C 
BRANCH   8   7
ATOM      7  C   UNL     1      44.636   3.975  13.056  0.00  0.00    +0.000 C 
BRANCH   7   6
ATOM      6  C   UNL     1      45.877   3.124  12.780  0.00  0.00    +0.000 C 
BRANCH   6   5
ATOM      5  C   UNL     1      47.024   3.642  13.659  0.00  0.00    +0.000 C 
BRANCH   5   4
ATOM      4  C   UNL     1      46.569   4.636  14.721  0.00  0.00    +0.000 C 
BRANCH   4   3
ATOM      3  C   UNL     1      47.599   4.727  15.852  0.00  0.00    +0.000 C 
BRANCH   3   2
ATOM      1  C   UNL     1      47.313   2.985  17.657  0.00  0.00    +0.000 C 
ATOM      2  C   UNL     1      47.992   3.336  16.344  0.00  0.00    +0.000 C 
ENDBRANCH   3   2
ENDBRANCH   4   3
ENDBRANCH   5   4
ENDBRANCH   6   5
ENDBRANCH   7   6
ENDBRANCH   8   7
ENDBRANCH   9   8
BRANCH   9  10
ATOM     10  C   UNL     1      44.510   4.745   9.516  0.00  0.00    +0.000 C 
BRANCH  10  11
ATOM     11  C   UNL     1      45.258   3.741   8.651  0.00  0.00    +0.000 A 
ATOM     12  C   UNL     1      46.182   4.127   7.671  0.00  0.00    +0.000 A 
ATOM     13  C   UNL     1      47.010   3.178   7.061  0.00  0.00    +0.000 A 
ATOM     14  C   UNL     1      46.927   1.834   7.425  0.00  0.00    +0.000 A 
ATOM     15  C   UNL     1      45.989   1.430   8.369  0.00  0.00    +0.000 A 
ATOM     16  C   UNL     1      45.160   2.375   8.977  0.00  0.00    +0.000 A 
ENDBRANCH  10  11
ENDBRANCH   9  10
ENDBRANCH  17   9
ENDBRANCH  18  17
BRANCH  21  22
ATOM     22  C   UNL     1      49.269   8.746  14.631  0.00  0.00    +0.000 C 
BRANCH  22  23
ATOM     23  N   UNL     1      49.755   7.834  15.632  0.00  0.00    +0.000 N 
ATOM     24  C   UNL     1      49.457   8.022  16.957  0.00  0.00    +0.000 C 
ATOM     25  O   UNL     1      48.732   8.936  17.342  0.00  0.00    +0.000 OA
ATOM     38  H   UNL     1      50.533   7.236  15.374  0.00  0.00    +0.000 HD
BRANCH  24  26
ATOM     26  C   UNL     1      50.001   7.034  17.896  0.00  0.00    +0.000 A 
ATOM     27  C   UNL     1      51.344   6.689  17.829  0.00  0.00    +0.000 A 
ATOM     28  S   UNL     1      51.820   5.563  19.018  0.00  0.00    +0.000 S 
ATOM     29  C   UNL     1      50.235   5.457  19.628  0.00  0.00    +0.000 A 
ATOM     30  N   UNL     1      49.938   4.621  20.660  0.00  0.00    +0.000 NA
ATOM     31  C   UNL     1      48.696   4.612  20.996  0.00  0.00    +0.000 A 
ATOM     32  N   UNL     1      47.717   5.370  20.404  0.00  0.00    +0.000 N 
ATOM     33  C   UNL     1      47.976   6.249  19.379  0.00  0.00    +0.000 A 
ATOM     34  O   UNL     1      47.087   6.944  18.898  0.00  0.00    +0.000 OA
ATOM     35  C   UNL     1      49.359   6.285  18.950  0.00  0.00    +0.000 A 
ATOM     39  H   UNL     1      46.760   5.324  20.722  0.00  0.00    +0.000 HD
ENDBRANCH  24  26
ENDBRANCH  22  23
ENDBRANCH  21  22
TORSDOF 14
ENDMDL
MODEL 2
REMARK VINA RESULT:    -6.041      3.030      9.191
REMARK INTER + INTRA:         -14.623
REMARK INTER:                 -10.879
REMARK INTRA:                  -3.744
REMARK UNBOUND:                -3.639
REMARK  Name = 
REMARK  15 active torsions:
REMARK  status: ('A' for Active; 'I' for Inactive)
REMARK    1  A    between atoms: C_1  and  C_2
REMARK    2  A    between atoms: C_2  and  C_3
REMARK    3  A    between atoms: C_3  and  C_4
REMARK    4  A    between atoms: C_4  and  C_5
REMARK    5  A    between atoms: C_5  and  C_6
REMARK    6  A    between atoms: C_6  and  C_7
REMARK    7  A    between atoms: C_7  and  C_8
REMARK    8  A    between atoms: C_8  and  N_9
REMARK    9  A    between atoms: N_9  and  C_10
REMARK   10  A    between atoms: N_9  and  C_17
REMARK   11  A    between atoms: C_10  and  C_11
REMARK   12  A    between atoms: C_17  and  C_18
REMARK   13  A    between atoms: C_21  and  C_22
REMARK   14  A    between atoms: C_22  and  N_23
REMARK   15  A    between atoms: C_24  and  C_26
REMARK                            x       y       z     vdW  Elec       q    Type
REMARK                         _______ _______ _______ _____ _____    ______ ____
ROOT
ATOM     18  C   UNL     1      49.486   8.270  15.631  0.00  0.00    +0.000 A 
ATOM     19  C   UNL     1      49.857   7.250  14.743  0.00  0.00    +0.000 A 
ATOM     20  C   UNL     1      49.198   7.096  13.519  0.00  0.00    +0.000 A 
ATOM     21  C   UNL     1      48.149   7.953  13.162  0.00  0.00    +0.000 A 
ATOM     36  C   UNL     1      47.714   8.907  14.091  0.00  0.00    +0.000 A 
ATOM     37  C   UNL     1      48.380   9.070  15.310  0.00  0.00    +0.000 A 
ENDROOT
BRANCH  18  17
ATOM     17  C   UNL     1      50.317   8.549  16.874  0.00  0.00    +0.000 C 
BRANCH  17   9
ATOM      9  N   UNL     1      50.271   7.441  17.872  0.00  0.00    +0.000 NA
BRANCH   9   8
ATOM      8  C   UNL     1      51.554   6.689  17.812  0.00  0.00    +0.000 C 
BRANCH   8   7
ATOM      7  C   UNL     1      51.518   5.193  17.467  0.00  0.00    +0.000 C 
BRANCH   7   6
ATOM      6  C   UNL     1      50.830   4.283  18.486  0.00  0.00    +0.000 C 
BRANCH   6   5
ATOM      5  C   UNL     1      49.831   3.388  17.739  0.00  0.00    +0.000 C 
BRANCH   5   4
ATOM      4  C   UNL     1      48.464   3.318  18.409  0.00  0.00    +0.000 C 
BRANCH   4   3
ATOM      3  C   UNL     1      47.349   3.547  17.383  0.00  0.00    +0.000 C 
BRANCH   3   2
ATOM      1  C   UNL     1      47.035   4.512  15.072  0.00  0.00    +0.000 C 
ATOM      2  C   UNL     1      47.716   4.673  16.420  0.00  0.00    +0.000 C 
ENDBRANCH   3   2
ENDBRANCH   4   3
ENDBRANCH   5   4
ENDBRANCH   6   5
ENDBRANCH   7   6
ENDBRANCH   8   7
ENDBRANCH   9   8
BRANCH   9  10
ATOM     10  C   UNL     1      50.063   7.988  19.231  0.00  0.00    +0.000 C 
BRANCH  10  11
ATOM     11  C   UNL     1      49.280   7.148  20.229  0.00  0.00    +0.000 A 
ATOM     12  C   UNL     1      47.919   6.856  20.070  0.00  0.00    +0.000 A 
ATOM     13  C   UNL     1      47.296   5.900  20.880  0.00  0.00    +0.000 A 
ATOM     14  C   UNL     1      48.026   5.223  21.858  0.00  0.00    +0.000 A 
ATOM     15  C   UNL     1      49.369   5.529  22.054  0.00  0.00    +0.000 A 
ATOM     16  C   UNL     1      49.990   6.484  21.248  0.00  0.00    +0.000 A 
ENDBRANCH  10  11
ENDBRANCH   9  10
ENDBRANCH  17   9
ENDBRANCH  18  17
BRANCH  21  22
ATOM     22  C   UNL     1      47.511   7.866  11.800  0.00  0.00    +0.000 C 
BRANCH  22  23
ATOM     23  N   UNL     1      46.839   6.610  11.598  0.00  0.00    +0.000 N 
ATOM     24  C   UNL     1      45.488   6.493  11.804  0.00  0.00    +0.000 C 
ATOM     25  O   UNL     1      44.790   7.453  12.120  0.00  0.00    +0.000 OA
ATOM     38  H   UNL     1      47.416   5.774  11.579  0.00  0.00    +0.000 HD
BRANCH  24  26
ATOM     26  C   UNL     1      44.902   5.169  11.568  0.00  0.00    +0.000 A 
ATOM     27  C   UNL     1      44.214   4.530  12.590  0.00  0.00    +0.000 A 
ATOM     28  S   UNL     1      43.561   3.022  12.134  0.00  0.00    +0.000 S 
ATOM     29  C   UNL     1      44.222   3.148  10.571  0.00  0.00    +0.000 A 
ATOM     30  N   UNL     1      44.058   2.150   9.661  0.00  0.00    +0.000 NA
ATOM     31  C   UNL     1      44.640   2.359   8.532  0.00  0.00    +0.000 A 
ATOM     32  N   UNL     1      45.367   3.480   8.220  0.00  0.00    +0.000 N 
ATOM     33  C   UNL     1      45.534   4.525   9.098  0.00  0.00    +0.000 A 
ATOM     34  O   UNL     1      46.155   5.534   8.775  0.00  0.00    +0.000 OA
ATOM     35  C   UNL     1      44.912   4.333  10.390  0.00  0.00    +0.000 A 
ATOM     39  H   UNL     1      45.792   3.588   7.310  0.00  0.00    +0.000 HD
ENDBRANCH  24  26
ENDBRANCH  22  23
ENDBRANCH  21  22
TORSDOF 14
ENDMDL
MODEL 3
REMARK VINA RESULT:    -5.974      3.520      9.314
REMARK INTER + INTRA:         -14.502
REMARK INTER:                 -10.564
REMARK INTRA:                  -3.938
REMARK UNBOUND:                -3.639
REMARK  Name = 
REMARK  15 active torsions:
REMARK  status: ('A' for Active; 'I' for Inactive)
REMARK    1  A    between atoms: C_1  and  C_2
REMARK    2  A    between atoms: C_2  and  C_3
REMARK    3  A    between atoms: C_3  and  C_4
REMARK    4  A    between atoms: C_4  and  C_5
REMARK    5  A    between atoms: C_5  and  C_6
REMARK    6  A    between atoms: C_6  and  C_7
REMARK    7  A    between atoms: C_7  and  C_8
REMARK    8  A    between atoms: C_8  and  N_9
REMARK    9  A    between atoms: N_9  and  C_10
REMARK   10  A    between atoms: N_9  and  C_17
REMARK   11  A    between atoms: C_10  and  C_11
REMARK   12  A    between atoms: C_17  and  C_18
REMARK   13  A    between atoms: C_21  and  C_22
REMARK   14  A    between atoms: C_22  and  N_23
REMARK   15  A    between atoms: C_24  and  C_26
REMARK                            x       y       z     vdW  Elec       q    Type
REMARK                         _______ _______ _______ _____ _____    ______ ____
ROOT
ATOM     18  C   UNL     1      48.581   5.644  20.249  0.00  0.00    +0.000 A 
ATOM     19  C   UNL     1      49.181   4.439  19.860  0.00  0.00    +0.000 A 
ATOM     20  C   UNL     1      48.736   3.755  18.724  0.00  0.00    +0.000 A 
ATOM     21  C   UNL     1      47.674   4.258  17.961  0.00  0.00    +0.000 A 
ATOM     36  C   UNL     1      47.010   5.408  18.407  0.00  0.00    +0.000 A 
ATOM     37  C   UNL     1      47.463   6.099  19.535  0.00  0.00    +0.000 A 
ENDROOT
BRANCH  18  17
ATOM     17  C   UNL     1      49.181   6.476  21.373  0.00  0.00    +0.000 C 
BRANCH  17   9
ATOM      9  N   UNL     1      49.587   7.844  20.939  0.00  0.00    +0.000 NA
BRANCH   9   8
ATOM      8  C   UNL     1      49.326   8.797  22.052  0.00  0.00    +0.000 C 
BRANCH   8   7
ATOM      7  C   UNL     1      48.317   9.934  21.829  0.00  0.00    +0.000 C 
BRANCH   7   6
ATOM      6  C   UNL     1      46.876   9.509  21.542  0.00  0.00    +0.000 C 
BRANCH   6   5
ATOM      5  C   UNL     1      46.437  10.149  20.217  0.00  0.00    +0.000 C 
BRANCH   5   4
ATOM      4  C   UNL     1      47.602  10.471  19.288  0.00  0.00    +0.000 C 
BRANCH   4   3
ATOM      3  C   UNL     1      47.697   9.435  18.163  0.00  0.00    +0.000 C 
BRANCH   3   2
ATOM      1  C   UNL     1      48.279   9.123  15.727  0.00  0.00    +0.000 C 
ATOM      2  C   UNL     1      48.423  10.012  16.951  0.00  0.00    +0.000 C 
ENDBRANCH   3   2
ENDBRANCH   4   3
ENDBRANCH   5   4
ENDBRANCH   6   5
ENDBRANCH   7   6
ENDBRANCH   8   7
ENDBRANCH   9   8
BRANCH   9  10
ATOM     10  C   UNL     1      51.023   7.859  20.581  0.00  0.00    +0.000 C 
BRANCH  10  11
ATOM     11  C   UNL     1      51.449   7.166  19.296  0.00  0.00    +0.000 A 
ATOM     12  C   UNL     1      52.374   6.114  19.274  0.00  0.00    +0.000 A 
ATOM     13  C   UNL     1      52.565   5.358  18.111  0.00  0.00    +0.000 A 
ATOM     14  C   UNL     1      51.832   5.643  16.959  0.00  0.00    +0.000 A 
ATOM     15  C   UNL     1      50.938   6.709  16.953  0.00  0.00    +0.000 A 
ATOM     16  C   UNL     1      50.749   7.465  18.112  0.00  0.00    +0.000 A 
ENDBRANCH  10  11
ENDBRANCH   9  10
ENDBRANCH  17   9
ENDBRANCH  18  17
BRANCH  21  22
ATOM     22  C   UNL     1      47.262   3.588  16.676  0.00  0.00    +0.000 C 
BRANCH  22  23
ATOM     23  N   UNL     1      46.730   4.525  15.723  0.00  0.00    +0.000 N 
ATOM     24  C   UNL     1      46.770   4.261  14.378  0.00  0.00    +0.000 C 
ATOM     25  O   UNL     1      47.210   3.204  13.933  0.00  0.00    +0.000 OA
ATOM     38  H   UNL     1      46.592   5.480  16.041  0.00  0.00    +0.000 HD
BRANCH  24  26
ATOM     26  C   UNL     1      46.199   5.283  13.494  0.00  0.00    +0.000 A 
ATOM     27  C   UNL     1      46.927   6.431  13.211  0.00  0.00    +0.000 A 
ATOM     28  S   UNL     1      46.138   7.491  12.134  0.00  0.00    +0.000 S 
ATOM     29  C   UNL     1      44.773   6.477  12.051  0.00  0.00    +0.000 A 
ATOM     30  N   UNL     1      43.689   6.824  11.305  0.00  0.00    +0.000 NA
ATOM     31  C   UNL     1      42.714   5.985  11.362  0.00  0.00    +0.000 A 
ATOM     32  N   UNL     1      42.722   4.821  12.088  0.00  0.00    +0.000 N 
ATOM     33  C   UNL     1      43.806   4.417  12.832  0.00  0.00    +0.000 A 
ATOM     34  O   UNL     1      43.799   3.349  13.438  0.00  0.00    +0.000 OA
ATOM     35  C   UNL     1      44.925   5.335  12.816  0.00  0.00    +0.000 A 
ATOM     39  H   UNL     1      41.927   4.199  12.083  0.00  0.00    +0.000 HD
ENDBRANCH  24  26
ENDBRANCH  22  23
ENDBRANCH  21  22
TORSDOF 14
ENDMDL
MODEL 4
REMARK VINA RESULT:    -5.708      2.698      5.623
REMARK INTER + INTRA:         -14.019
REMARK INTER:                 -12.426
REMARK INTRA:                  -1.593
REMARK UNBOUND:                -3.639
REMARK  Name = 
REMARK  15 active torsions:
REMARK  status: ('A' for Active; 'I' for Inactive)
REMARK    1  A    between atoms: C_1  and  C_2
REMARK    2  A    between atoms: C_2  and  C_3
REMARK    3  A    between atoms: C_3  and  C_4
REMARK    4  A    between atoms: C_4  and  C_5
REMARK    5  A    between atoms: C_5  and  C_6
REMARK    6  A    between atoms: C_6  and  C_7
REMARK    7  A    between atoms: C_7  and  C_8
REMARK    8  A    between atoms: C_8  and  N_9
REMARK    9  A    between atoms: N_9  and  C_10
REMARK   10  A    between atoms: N_9  and  C_17
REMARK   11  A    between atoms: C_10  and  C_11
REMARK   12  A    between atoms: C_17  and  C_18
REMARK   13  A    between atoms: C_21  and  C_22
REMARK   14  A    between atoms: C_22  and  N_23
REMARK   15  A    between atoms: C_24  and  C_26
REMARK                            x       y       z     vdW  Elec       q    Type
REMARK                         _______ _______ _______ _____ _____    ______ ____
ROOT
ATOM     18  C   UNL     1      46.959   4.676  13.993  0.00  0.00    +0.000 A 
ATOM     19  C   UNL     1      47.755   5.725  13.511  0.00  0.00    +0.000 A 
ATOM     20  C   UNL     1      48.645   6.392  14.359  0.00  0.00    +0.000 A 
ATOM     21  C   UNL     1      48.749   6.031  15.709  0.00  0.00    +0.000 A 
ATOM     36  C   UNL     1      47.882   5.052  16.212  0.00  0.00    +0.000 A 
ATOM     37  C   UNL     1      47.001   4.376  15.362  0.00  0.00    +0.000 A 
ENDROOT
BRANCH  18  17
ATOM     17  C   UNL     1      46.128   3.836  13.034  0.00  0.00    +0.000 C 
BRANCH  17   9
ATOM      9  N   UNL     1      45.283   4.655  12.118  0.00  0.00    +0.000 NA
BRANCH   9   8
ATOM      8  C   UNL     1      44.235   3.780  11.525  0.00  0.00    +0.000 C 
BRANCH   8   7
ATOM      7  C   UNL     1      44.456   3.214  10.114  0.00  0.00    +0.000 C 
BRANCH   7   6
ATOM      6  C   UNL     1      44.435   4.229   8.970  0.00  0.00    +0.000 C 
BRANCH   6   5
ATOM      5  C   UNL     1      44.877   3.517   7.684  0.00  0.00    +0.000 C 
BRANCH   5   4
ATOM      4  C   UNL     1      46.390   3.362   7.569  0.00  0.00    +0.000 C 
BRANCH   4   3
ATOM      3  C   UNL     1      46.787   2.994   6.136  0.00  0.00    +0.000 C 
BRANCH   3   2
ATOM      1  C   UNL     1      47.140   0.825   7.377  0.00  0.00    +0.000 C 
ATOM      2  C   UNL     1      47.346   1.575   6.072  0.00  0.00    +0.000 C 
ENDBRANCH   3   2
ENDBRANCH   4   3
ENDBRANCH   5   4
ENDBRANCH   6   5
ENDBRANCH   7   6
ENDBRANCH   8   7
ENDBRANCH   9   8
BRANCH   9  10
ATOM     10  C   UNL     1      44.656   5.770  12.862  0.00  0.00    +0.000 C 
BRANCH  10  11
ATOM     11  C   UNL     1      44.767   7.171  12.280  0.00  0.00    +0.000 A 
ATOM     12  C   UNL     1      43.952   7.623  11.233  0.00  0.00    +0.000 A 
ATOM     13  C   UNL     1      43.929   8.978  10.884  0.00  0.00    +0.000 A 
ATOM     14  C   UNL     1      44.716   9.897  11.577  0.00  0.00    +0.000 A 
ATOM     15  C   UNL     1      45.559   9.459  12.594  0.00  0.00    +0.000 A 
ATOM     16  C   UNL     1      45.585   8.107  12.941  0.00  0.00    +0.000 A 
ENDBRANCH  10  11
ENDBRANCH   9  10
ENDBRANCH  17   9
ENDBRANCH  18  17
BRANCH  21  22
ATOM     22  C   UNL     1      49.783   6.667  16.601  0.00  0.00    +0.000 C 
BRANCH  22  23
ATOM     23  N   UNL     1      50.793   5.729  17.013  0.00  0.00    +0.000 N 
ATOM     24  C   UNL     1      50.878   5.314  18.317  0.00  0.00    +0.000 C 
ATOM     25  O   UNL     1      50.077   5.681  19.173  0.00  0.00    +0.000 OA
ATOM     38  H   UNL     1      51.591   5.608  16.396  0.00  0.00    +0.000 HD
BRANCH  24  26
ATOM     26  C   UNL     1      51.943   4.355  18.630  0.00  0.00    +0.000 A 
ATOM     27  C   UNL     1      53.010   4.749  19.428  0.00  0.00    +0.000 A 
ATOM     28  S   UNL     1      54.133   3.502  19.729  0.00  0.00    +0.000 S 
ATOM     29  C   UNL     1      53.260   2.408  18.759  0.00  0.00    +0.000 A 
ATOM     30  N   UNL     1      53.707   1.138  18.563  0.00  0.00    +0.000 NA
ATOM     31  C   UNL     1      52.971   0.430  17.780  0.00  0.00    +0.000 A 
ATOM     32  N   UNL     1      51.819   0.870  17.177  0.00  0.00    +0.000 N 
ATOM     33  C   UNL     1      51.316   2.134  17.369  0.00  0.00    +0.000 A 
ATOM     34  O   UNL     1      50.260   2.484  16.849  0.00  0.00    +0.000 OA
ATOM     35  C   UNL     1      52.117   2.978  18.230  0.00  0.00    +0.000 A 
ATOM     39  H   UNL     1      51.280   0.260  16.578  0.00  0.00    +0.000 HD
ENDBRANCH  24  26
ENDBRANCH  22  23
ENDBRANCH  21  22
TORSDOF 14
ENDMDL
MODEL 5
REMARK VINA RESULT:    -5.699      3.442      5.215
REMARK INTER + INTRA:         -14.002
REMARK INTER:                 -11.208
REMARK INTRA:                  -2.794
REMARK UNBOUND:                -3.639
REMARK  Name = 
REMARK  15 active torsions:
REMARK  status: ('A' for Active; 'I' for Inactive)
REMARK    1  A    between atoms: C_1  and  C_2
REMARK    2  A    between atoms: C_2  and  C_3
REMARK    3  A    between atoms: C_3  and  C_4
REMARK    4  A    between atoms: C_4  and  C_5
REMARK    5  A    between atoms: C_5  and  C_6
REMARK    6  A    between atoms: C_6  and  C_7
REMARK    7  A    between atoms: C_7  and  C_8
REMARK    8  A    between atoms: C_8  and  N_9
REMARK    9  A    between atoms: N_9  and  C_10
REMARK   10  A    between atoms: N_9  and  C_17
REMARK   11  A    between atoms: C_10  and  C_11
REMARK   12  A    between atoms: C_17  and  C_18
REMARK   13  A    between atoms: C_21  and  C_22
REMARK   14  A    between atoms: C_22  and  N_23
REMARK   15  A    between atoms: C_24  and  C_26
REMARK                            x       y       z     vdW  Elec       q    Type
REMARK                         _______ _______ _______ _____ _____    ______ ____
ROOT
ATOM     18  C   UNL     1      45.583   6.760  11.660  0.00  0.00    +0.000 A 
ATOM     19  C   UNL     1      45.172   7.787  12.522  0.00  0.00    +0.000 A 
ATOM     20  C   UNL     1      46.081   8.753  12.964  0.00  0.00    +0.000 A 
ATOM     21  C   UNL     1      47.423   8.705  12.562  0.00  0.00    +0.000 A 
ATOM     36  C   UNL     1      47.853   7.624  11.782  0.00  0.00    +0.000 A 
ATOM     37  C   UNL     1      46.942   6.664  11.330  0.00  0.00    +0.000 A 
ENDROOT
BRANCH  18  17
ATOM     17  C   UNL     1      44.560   5.821  11.038  0.00  0.00    +0.000 C 
BRANCH  17   9
ATOM      9  N   UNL     1      45.121   4.481  10.700  0.00  0.00    +0.000 NA
BRANCH   9   8
ATOM      8  C   UNL     1      44.845   3.549  11.826  0.00  0.00    +0.000 C 
BRANCH   8   7
ATOM      7  C   UNL     1      45.228   3.977  13.250  0.00  0.00    +0.000 C 
BRANCH   7   6
ATOM      6  C   UNL     1      46.690   3.761  13.649  0.00  0.00    +0.000 C 
BRANCH   6   5
ATOM      5  C   UNL     1      47.132   4.943  14.523  0.00  0.00    +0.000 C 
BRANCH   5   4
ATOM      4  C   UNL     1      47.592   4.525  15.915  0.00  0.00    +0.000 C 
BRANCH   4   3
ATOM      3  C   UNL     1      48.513   5.590  16.520  0.00  0.00    +0.000 C 
BRANCH   3   2
ATOM      1  C   UNL     1      50.323   7.059  15.551  0.00  0.00    +0.000 C 
ATOM      2  C   UNL     1      48.857   6.663  15.490  0.00  0.00    +0.000 C 
ENDBRANCH   3   2
ENDBRANCH   4   3
ENDBRANCH   5   4
ENDBRANCH   6   5
ENDBRANCH   7   6
ENDBRANCH   8   7
ENDBRANCH   9   8
BRANCH   9  10
ATOM     10  C   UNL     1      44.509   3.971   9.453  0.00  0.00    +0.000 C 
BRANCH  10  11
ATOM     11  C   UNL     1      45.399   3.226   8.470  0.00  0.00    +0.000 A 
ATOM     12  C   UNL     1      46.212   3.883   7.537  0.00  0.00    +0.000 A 
ATOM     13  C   UNL     1      47.179   3.177   6.812  0.00  0.00    +0.000 A 
ATOM     14  C   UNL     1      47.346   1.806   7.013  0.00  0.00    +0.000 A 
ATOM     15  C   UNL     1      46.520   1.132   7.907  0.00  0.00    +0.000 A 
ATOM     16  C   UNL     1      45.554   1.836   8.629  0.00  0.00    +0.000 A 
ENDBRANCH  10  11
ENDBRANCH   9  10
ENDBRANCH  17   9
ENDBRANCH  18  17
BRANCH  21  22
ATOM     22  C   UNL     1      48.382   9.803  12.942  0.00  0.00    +0.000 C 
BRANCH  22  23
ATOM     23  N   UNL     1      49.745   9.344  12.972  0.00  0.00    +0.000 N 
ATOM     24  C   UNL     1      50.692   9.901  12.151  0.00  0.00    +0.000 C 
ATOM     25  O   UNL     1      50.436  10.837  11.399  0.00  0.00    +0.000 OA
ATOM     38  H   UNL     1      49.918   8.436  13.392  0.00  0.00    +0.000 HD
BRANCH  24  26
ATOM     26  C   UNL     1      52.052   9.360  12.262  0.00  0.00    +0.000 A 
ATOM     27  C   UNL     1      52.969   9.973  13.105  0.00  0.00    +0.000 A 
ATOM     28  S   UNL     1      54.484   9.193  13.148  0.00  0.00    +0.000 S 
ATOM     29  C   UNL     1      53.983   8.040  12.000  0.00  0.00    +0.000 A 
ATOM     30  N   UNL     1      54.837   7.076  11.560  0.00  0.00    +0.000 NA
ATOM     31  C   UNL     1      54.340   6.294  10.666  0.00  0.00    +0.000 A 
ATOM     32  N   UNL     1      53.062   6.378  10.173  0.00  0.00    +0.000 N 
ATOM     33  C   UNL     1      52.158   7.317  10.610  0.00  0.00    +0.000 A 
ATOM     34  O   UNL     1      51.008   7.340  10.180  0.00  0.00    +0.000 OA
ATOM     35  C   UNL     1      52.672   8.233  11.605  0.00  0.00    +0.000 A 
ATOM     39  H   UNL     1      52.730   5.726   9.477  0.00  0.00    +0.000 HD
ENDBRANCH  24  26
ENDBRANCH  22  23
ENDBRANCH  21  22
TORSDOF 14
ENDMDL
MODEL 6
REMARK VINA RESULT:    -5.611      3.288      5.124
REMARK INTER + INTRA:         -13.842
REMARK INTER:                 -11.378
REMARK INTRA:                  -2.464
REMARK UNBOUND:                -3.639
REMARK  Name = 
REMARK  15 active torsions:
REMARK  status: ('A' for Active; 'I' for Inactive)
REMARK    1  A    between atoms: C_1  and  C_2
REMARK    2  A    between atoms: C_2  and  C_3
REMARK    3  A    between atoms: C_3  and  C_4
REMARK    4  A    between atoms: C_4  and  C_5
REMARK    5  A    between atoms: C_5  and  C_6
REMARK    6  A    between atoms: C_6  and  C_7
REMARK    7  A    between atoms: C_7  and  C_8
REMARK    8  A    between atoms: C_8  and  N_9
REMARK    9  A    between atoms: N_9  and  C_10
REMARK   10  A    between atoms: N_9  and  C_17
REMARK   11  A    between atoms: C_10  and  C_11
REMARK   12  A    between atoms: C_17  and  C_18
REMARK   13  A    between atoms: C_21  and  C_22
REMARK   14  A    between atoms: C_22  and  N_23
REMARK   15  A    between atoms: C_24  and  C_26
REMARK                            x       y       z     vdW  Elec       q    Type
REMARK                         _______ _______ _______ _____ _____    ______ ____
ROOT
ATOM     18  C   UNL     1      47.403   5.740  13.995  0.00  0.00    +0.000 A 
ATOM     19  C   UNL     1      48.329   6.495  14.730  0.00  0.00    +0.000 A 
ATOM     20  C   UNL     1      48.780   6.053  15.978  0.00  0.00    +0.000 A 
ATOM     21  C   UNL     1      48.306   4.851  16.521  0.00  0.00    +0.000 A 
ATOM     36  C   UNL     1      47.308   4.149  15.833  0.00  0.00    +0.000 A 
ATOM     37  C   UNL     1      46.865   4.584  14.580  0.00  0.00    +0.000 A 
ENDROOT
BRANCH  18  17
ATOM     17  C   UNL     1      47.053   6.129  12.566  0.00  0.00    +0.000 C 
BRANCH  17   9
ATOM      9  N   UNL     1      45.621   6.505  12.394  0.00  0.00    +0.000 NA
BRANCH   9   8
ATOM      8  C   UNL     1      45.426   7.891  12.899  0.00  0.00    +0.000 C 
BRANCH   8   7
ATOM      7  C   UNL     1      45.380   9.046  11.887  0.00  0.00    +0.000 C 
BRANCH   7   6
ATOM      6  C   UNL     1      46.625   9.933  11.820  0.00  0.00    +0.000 C 
BRANCH   6   5
ATOM      5  C   UNL     1      47.449   9.707  13.096  0.00  0.00    +0.000 C 
BRANCH   5   4
ATOM      4  C   UNL     1      48.946   9.591  12.835  0.00  0.00    +0.000 C 
BRANCH   4   3
ATOM      3  C   UNL     1      49.207   8.955  11.465  0.00  0.00    +0.000 C 
BRANCH   3   2
ATOM      1  C   UNL     1      51.490   8.006  10.953  0.00  0.00    +0.000 C 
ATOM      2  C   UNL     1      50.135   7.750  11.592  0.00  0.00    +0.000 C 
ENDBRANCH   3   2
ENDBRANCH   4   3
ENDBRANCH   5   4
ENDBRANCH   6   5
ENDBRANCH   7   6
ENDBRANCH   8   7
ENDBRANCH   9   8
BRANCH   9  10
ATOM     10  C   UNL     1      45.240   6.424  10.966  0.00  0.00    +0.000 C 
BRANCH  10  11
ATOM     11  C   UNL     1      45.165   5.048  10.322  0.00  0.00    +0.000 A 
ATOM     12  C   UNL     1      44.505   3.966  10.921  0.00  0.00    +0.000 A 
ATOM     13  C   UNL     1      44.264   2.792  10.200  0.00  0.00    +0.000 A 
ATOM     14  C   UNL     1      44.674   2.685   8.871  0.00  0.00    +0.000 A 
ATOM     15  C   UNL     1      45.364   3.735   8.274  0.00  0.00    +0.000 A 
ATOM     16  C   UNL     1      45.608   4.907   8.994  0.00  0.00    +0.000 A 
ENDBRANCH  10  11
ENDBRANCH   9  10
ENDBRANCH  17   9
ENDBRANCH  18  17
BRANCH  21  22
ATOM     22  C   UNL     1      48.869   4.312  17.810  0.00  0.00    +0.000 C 
BRANCH  22  23
ATOM     23  N   UNL     1      50.228   3.864  17.661  0.00  0.00    +0.000 N 
ATOM     24  C   UNL     1      51.167   4.134  18.623  0.00  0.00    +0.000 C 
ATOM     25  O   UNL     1      50.885   4.720  19.665  0.00  0.00    +0.000 OA
ATOM     38  H   UNL     1      50.529   3.604  16.727  0.00  0.00    +0.000 HD
BRANCH  24  26
ATOM     26  C   UNL     1      52.522   3.631  18.374  0.00  0.00    +0.000 A 
ATOM     27  C   UNL     1      53.613   4.465  18.577  0.00  0.00    +0.000 A 
ATOM     28  S   UNL     1      55.113   3.709  18.284  0.00  0.00    +0.000 S 
ATOM     29  C   UNL     1      54.353   2.258  17.822  0.00  0.00    +0.000 A 
ATOM     30  N   UNL     1      55.085   1.186  17.411  0.00  0.00    +0.000 NA
ATOM     31  C   UNL     1      54.382   0.168  17.056  0.00  0.00    +0.000 A 
ATOM     32  N   UNL     1      53.011   0.114  17.081  0.00  0.00    +0.000 N 
ATOM     33  C   UNL     1      52.234   1.161  17.516  0.00  0.00    +0.000 A 
ATOM     34  O   UNL     1      51.011   1.067  17.566  0.00  0.00    +0.000 OA
ATOM     35  C   UNL     1      52.976   2.340  17.911  0.00  0.00    +0.000 A 
ATOM     39  H   UNL     1      52.518  -0.721  16.798  0.00  0.00    +0.000 HD
ENDBRANCH  24  26
ENDBRANCH  22  23
ENDBRANCH  21  22
TORSDOF 14
ENDMDL
MODEL 7
REMARK VINA RESULT:    -5.571      3.216      8.451
REMARK INTER + INTRA:         -13.770
REMARK INTER:                  -9.654
REMARK INTRA:                  -4.115
REMARK UNBOUND:                -3.639
REMARK  Name = 
REMARK  15 active torsions:
REMARK  status: ('A' for Active; 'I' for Inactive)
REMARK    1  A    between atoms: C_1  and  C_2
REMARK    2  A    between atoms: C_2  and  C_3
REMARK    3  A    between atoms: C_3  and  C_4
REMARK    4  A    between atoms: C_4  and  C_5
REMARK    5  A    between atoms: C_5  and  C_6
REMARK    6  A    between atoms: C_6  and  C_7
REMARK    7  A    between atoms: C_7  and  C_8
REMARK    8  A    between atoms: C_8  and  N_9
REMARK    9  A    between atoms: N_9  and  C_10
REMARK   10  A    between atoms: N_9  and  C_17
REMARK   11  A    between atoms: C_10  and  C_11
REMARK   12  A    between atoms: C_17  and  C_18
REMARK   13  A    between atoms: C_21  and  C_22
REMARK   14  A    between atoms: C_22  and  N_23
REMARK   15  A    between atoms: C_24  and  C_26
REMARK                            x       y       z     vdW  Elec       q    Type
REMARK                         _______ _______ _______ _____ _____    ______ ____
ROOT
ATOM     18  C   UNL     1      48.970   7.843  16.294  0.00  0.00    +0.000 A 
ATOM     19  C   UNL     1      49.477   6.870  15.421  0.00  0.00    +0.000 A 
ATOM     20  C   UNL     1      49.209   6.934  14.049  0.00  0.00    +0.000 A 
ATOM     21  C   UNL     1      48.420   7.967  13.525  0.00  0.00    +0.000 A 
ATOM     36  C   UNL     1      47.833   8.880  14.411  0.00  0.00    +0.000 A 
ATOM     37  C   UNL     1      48.110   8.824  15.780  0.00  0.00    +0.000 A 
ENDROOT
BRANCH  18  17
ATOM     17  C   UNL     1      49.410   7.874  17.750  0.00  0.00    +0.000 C 
BRANCH  17   9
ATOM      9  N   UNL     1      50.380   6.795  18.095  0.00  0.00    +0.000 NA
BRANCH   9   8
ATOM      8  C   UNL     1      51.538   7.401  18.806  0.00  0.00    +0.000 C 
BRANCH   8   7
ATOM      7  C   UNL     1      52.609   8.133  17.985  0.00  0.00    +0.000 C 
BRANCH   7   6
ATOM      6  C   UNL     1      52.980   7.497  16.643  0.00  0.00    +0.000 C 
BRANCH   6   5
ATOM      5  C   UNL     1      53.048   8.608  15.585  0.00  0.00    +0.000 C 
BRANCH   5   4
ATOM      4  C   UNL     1      52.198   9.825  15.932  0.00  0.00    +0.000 C 
BRANCH   4   3
ATOM      3  C   UNL     1      51.336  10.240  14.735  0.00  0.00    +0.000 C 
BRANCH   3   2
ATOM      1  C   UNL     1      51.209  10.209  12.214  0.00  0.00    +0.000 C 
ATOM      2  C   UNL     1      51.839   9.588  13.449  0.00  0.00    +0.000 C 
ENDBRANCH   3   2
ENDBRANCH   4   3
ENDBRANCH   5   4
ENDBRANCH   6   5
ENDBRANCH   7   6
ENDBRANCH   8   7
ENDBRANCH   9   8
BRANCH   9  10
ATOM     10  C   UNL     1      49.729   5.779  18.951  0.00  0.00    +0.000 C 
BRANCH  10  11
ATOM     11  C   UNL     1      49.116   4.560  18.278  0.00  0.00    +0.000 A 
ATOM     12  C   UNL     1      47.772   4.508  17.887  0.00  0.00    +0.000 A 
ATOM     13  C   UNL     1      47.307   3.468  17.073  0.00  0.00    +0.000 A 
ATOM     14  C   UNL     1      48.180   2.472  16.638  0.00  0.00    +0.000 A 
ATOM     15  C   UNL     1      49.510   2.489  17.049  0.00  0.00    +0.000 A 
ATOM     16  C   UNL     1      49.973   3.524  17.863  0.00  0.00    +0.000 A 
ENDBRANCH  10  11
ENDBRANCH   9  10
ENDBRANCH  17   9
ENDBRANCH  18  17
BRANCH  21  22
ATOM     22  C   UNL     1      48.220   8.106  12.039  0.00  0.00    +0.000 C 
BRANCH  22  23
ATOM     23  N   UNL     1      47.550   6.966  11.474  0.00  0.00    +0.000 N 
ATOM     24  C   UNL     1      46.182   6.925  11.387  0.00  0.00    +0.000 C 
ATOM     25  O   UNL     1      45.476   7.868  11.737  0.00  0.00    +0.000 OA
ATOM     38  H   UNL     1      48.081   6.102  11.410  0.00  0.00    +0.000 HD
BRANCH  24  26
ATOM     26  C   UNL     1      45.600   5.716  10.793  0.00  0.00    +0.000 A 
ATOM     27  C   UNL     1      45.763   5.470   9.437  0.00  0.00    +0.000 A 
ATOM     28  S   UNL     1      45.063   4.003   8.921  0.00  0.00    +0.000 S 
ATOM     29  C   UNL     1      44.473   3.673  10.483  0.00  0.00    +0.000 A 
ATOM     30  N   UNL     1      43.737   2.555  10.730  0.00  0.00    +0.000 NA
ATOM     31  C   UNL     1      43.323   2.449  11.944  0.00  0.00    +0.000 A 
ATOM     32  N   UNL     1      43.583   3.353  12.943  0.00  0.00    +0.000 N 
ATOM     33  C   UNL     1      44.345   4.480  12.746  0.00  0.00    +0.000 A 
ATOM     34  O   UNL     1      44.595   5.248  13.670  0.00  0.00    +0.000 OA
ATOM     35  C   UNL     1      44.822   4.656  11.391  0.00  0.00    +0.000 A 
ATOM     39  H   UNL     1      43.236   3.206  13.880  0.00  0.00    +0.000 HD
ENDBRANCH  24  26
ENDBRANCH  22  23
ENDBRANCH  21  22
TORSDOF 14
ENDMDL
MODEL 8
REMARK VINA RESULT:    -5.567      2.761      5.652
REMARK INTER + INTRA:         -13.763
REMARK INTER:                 -11.861
REMARK INTRA:                  -1.902
REMARK UNBOUND:                -3.639
REMARK  Name = 
REMARK  15 active torsions:
REMARK  status: ('A' for Active; 'I' for Inactive)
REMARK    1  A    between atoms: C_1  and  C_2
REMARK    2  A    between atoms: C_2  and  C_3
REMARK    3  A    between atoms: C_3  and  C_4
REMARK    4  A    between atoms: C_4  and  C_5
REMARK    5  A    between atoms: C_5  and  C_6
REMARK    6  A    between atoms: C_6  and  C_7
REMARK    7  A    between atoms: C_7  and  C_8
REMARK    8  A    between atoms: C_8  and  N_9
REMARK    9  A    between atoms: N_9  and  C_10
REMARK   10  A    between atoms: N_9  and  C_17
REMARK   11  A    between atoms: C_10  and  C_11
REMARK   12  A    between atoms: C_17  and  C_18
REMARK   13  A    between atoms: C_21  and  C_22
REMARK   14  A    between atoms: C_22  and  N_23
REMARK   15  A    between atoms: C_24  and  C_26
REMARK                            x       y       z     vdW  Elec       q    Type
REMARK                         _______ _______ _______ _____ _____    ______ ____
ROOT
ATOM     18  C   UNL     1      47.539   5.977  13.507  0.00  0.00    +0.000 A 
ATOM     19  C   UNL     1      48.546   6.834  13.040  0.00  0.00    +0.000 A 
ATOM     20  C   UNL     1      49.546   7.296  13.901  0.00  0.00    +0.000 A 
ATOM     21  C   UNL     1      49.555   6.917  15.251  0.00  0.00    +0.000 A 
ATOM     36  C   UNL     1      48.495   6.142  15.738  0.00  0.00    +0.000 A 
ATOM     37  C   UNL     1      47.500   5.671  14.875  0.00  0.00    +0.000 A 
ENDROOT
BRANCH  18  17
ATOM     17  C   UNL     1      46.562   5.334  12.535  0.00  0.00    +0.000 C 
BRANCH  17   9
ATOM      9  N   UNL     1      45.900   6.319  11.630  0.00  0.00    +0.000 NA
BRANCH   9   8
ATOM      8  C   UNL     1      44.851   5.616  10.843  0.00  0.00    +0.000 C 
BRANCH   8   7
ATOM      7  C   UNL     1      44.649   4.109  11.061  0.00  0.00    +0.000 C 
BRANCH   7   6
ATOM      6  C   UNL     1      45.025   3.203   9.886  0.00  0.00    +0.000 C 
BRANCH   6   5
ATOM      5  C   UNL     1      44.905   4.018   8.590  0.00  0.00    +0.000 C 
BRANCH   5   4
ATOM      4  C   UNL     1      45.607   3.369   7.403  0.00  0.00    +0.000 C 
BRANCH   4   3
ATOM      3  C   UNL     1      46.361   2.110   7.844  0.00  0.00    +0.000 C 
BRANCH   3   2
ATOM      1  C   UNL     1      47.381   2.463   5.561  0.00  0.00    +0.000 C 
ATOM      2  C   UNL     1      47.564   1.851   6.940  0.00  0.00    +0.000 C 
ENDBRANCH   3   2
ENDBRANCH   4   3
ENDBRANCH   5   4
ENDBRANCH   6   5
ENDBRANCH   7   6
ENDBRANCH   8   7
ENDBRANCH   9   8
BRANCH   9  10
ATOM     10  C   UNL     1      45.297   7.414  12.423  0.00  0.00    +0.000 C 
BRANCH  10  11
ATOM     11  C   UNL     1      45.284   8.811  11.822  0.00  0.00    +0.000 A 
ATOM     12  C   UNL     1      44.185   9.323  11.119  0.00  0.00    +0.000 A 
ATOM     13  C   UNL     1      44.125  10.680  10.783  0.00  0.00    +0.000 A 
ATOM     14  C   UNL     1      45.160  11.542  11.148  0.00  0.00    +0.000 A 
ATOM     15  C   UNL     1      46.276  11.041  11.812  0.00  0.00    +0.000 A 
ATOM     16  C   UNL     1      46.338   9.687  12.145  0.00  0.00    +0.000 A 
ENDBRANCH  10  11
ENDBRANCH   9  10
ENDBRANCH  17   9
ENDBRANCH  18  17
BRANCH  21  22
ATOM     22  C   UNL     1      50.689   7.317  16.157  0.00  0.00    +0.000 C 
BRANCH  22  23
ATOM     23  N   UNL     1      51.451   6.181  16.604  0.00  0.00    +0.000 N 
ATOM     24  C   UNL     1      51.553   5.885  17.939  0.00  0.00    +0.000 C 
ATOM     25  O   UNL     1      50.968   6.536  18.800  0.00  0.00    +0.000 OA
ATOM     38  H   UNL     1      52.123   5.789  15.951  0.00  0.00    +0.000 HD
BRANCH  24  26
ATOM     26  C   UNL     1      52.352   4.705  18.287  0.00  0.00    +0.000 A 
ATOM     27  C   UNL     1      53.556   4.864  18.960  0.00  0.00    +0.000 A 
ATOM     28  S   UNL     1      54.334   3.391  19.325  0.00  0.00    +0.000 S 
ATOM     29  C   UNL     1      53.114   2.492  18.549  0.00  0.00    +0.000 A 
ATOM     30  N   UNL     1      53.189   1.136  18.470  0.00  0.00    +0.000 NA
ATOM     31  C   UNL     1      52.220   0.587  17.824  0.00  0.00    +0.000 A 
ATOM     32  N   UNL     1      51.173   1.266  17.255  0.00  0.00    +0.000 N 
ATOM     33  C   UNL     1      51.042   2.632  17.334  0.00  0.00    +0.000 A 
ATOM     34  O   UNL     1      50.072   3.208  16.850  0.00  0.00    +0.000 OA
ATOM     35  C   UNL     1      52.116   3.301  18.037  0.00  0.00    +0.000 A 
ATOM     39  H   UNL     1      50.437   0.774  16.768  0.00  0.00    +0.000 HD
ENDBRANCH  24  26
ENDBRANCH  22  23
ENDBRANCH  21  22
TORSDOF 14
ENDMDL
MODEL 9
REMARK VINA RESULT:    -5.473      3.636      8.947
REMARK INTER + INTRA:         -13.591
REMARK INTER:                 -10.427
REMARK INTRA:                  -3.164
REMARK UNBOUND:                -3.639
REMARK  Name = 
REMARK  15 active torsions:
REMARK  status: ('A' for Active; 'I' for Inactive)
REMARK    1  A    between atoms: C_1  and  C_2
REMARK    2  A    between atoms: C_2  and  C_3
REMARK    3  A    between atoms: C_3  and  C_4
REMARK    4  A    between atoms: C_4  and  C_5
REMARK    5  A    between atoms: C_5  and  C_6
REMARK    6  A    between atoms: C_6  and  C_7
REMARK    7  A    between atoms: C_7  and  C_8
REMARK    8  A    between atoms: C_8  and  N_9
REMARK    9  A    between atoms: N_9  and  C_10
REMARK   10  A    between atoms: N_9  and  C_17
REMARK   11  A    between atoms: C_10  and  C_11
REMARK   12  A    between atoms: C_17  and  C_18
REMARK   13  A    between atoms: C_21  and  C_22
REMARK   14  A    between atoms: C_22  and  N_23
REMARK   15  A    between atoms: C_24  and  C_26
REMARK                            x       y       z     vdW  Elec       q    Type
REMARK                         _______ _______ _______ _____ _____    ______ ____
ROOT
ATOM     18  C   UNL     1      51.515   3.453  17.706  0.00  0.00    +0.000 A 
ATOM     19  C   UNL     1      50.926   2.214  17.414  0.00  0.00    +0.000 A 
ATOM     20  C   UNL     1      49.554   2.119  17.158  0.00  0.00    +0.000 A 
ATOM     21  C   UNL     1      48.741   3.260  17.199  0.00  0.00    +0.000 A 
ATOM     36  C   UNL     1      49.312   4.479  17.589  0.00  0.00    +0.000 A 
ATOM     37  C   UNL     1      50.686   4.577  17.833  0.00  0.00    +0.000 A 
ENDROOT
BRANCH  18  17
ATOM     17  C   UNL     1      53.027   3.583  17.805  0.00  0.00    +0.000 C 
BRANCH  17   9
ATOM      9  N   UNL     1      53.482   4.984  18.039  0.00  0.00    +0.000 NA
BRANCH   9   8
ATOM      8  C   UNL     1      54.080   5.072  19.399  0.00  0.00    +0.000 C 
BRANCH   8   7
ATOM      7  C   UNL     1      53.252   5.700  20.530  0.00  0.00    +0.000 C 
BRANCH   7   6
ATOM      6  C   UNL     1      52.246   4.776  21.221  0.00  0.00    +0.000 C 
BRANCH   6   5
ATOM      5  C   UNL     1      50.968   5.579  21.502  0.00  0.00    +0.000 C 
BRANCH   5   4
ATOM      4  C   UNL     1      49.690   4.782  21.267  0.00  0.00    +0.000 C 
BRANCH   4   3
ATOM      3  C   UNL     1      48.496   5.722  21.072  0.00  0.00    +0.000 C 
BRANCH   3   2
ATOM      1  C   UNL     1      47.744   7.451  19.394  0.00  0.00    +0.000 C 
ATOM      2  C   UNL     1      48.894   6.944  20.249  0.00  0.00    +0.000 C 
ENDBRANCH   3   2
ENDBRANCH   4   3
ENDBRANCH   5   4
ENDBRANCH   6   5
ENDBRANCH   7   6
ENDBRANCH   8   7
ENDBRANCH   9   8
BRANCH   9  10
ATOM     10  C   UNL     1      54.480   5.373  17.017  0.00  0.00    +0.000 C 
BRANCH  10  11
ATOM     11  C   UNL     1      54.096   6.452  16.016  0.00  0.00    +0.000 A 
ATOM     12  C   UNL     1      54.880   6.760  14.897  0.00  0.00    +0.000 A 
ATOM     13  C   UNL     1      54.384   7.591  13.886  0.00  0.00    +0.000 A 
ATOM     14  C   UNL     1      53.098   8.122  13.981  0.00  0.00    +0.000 A 
ATOM     15  C   UNL     1      52.321   7.857  15.104  0.00  0.00    +0.000 A 
ATOM     16  C   UNL     1      52.816   7.030  16.114  0.00  0.00    +0.000 A 
ENDBRANCH  10  11
ENDBRANCH   9  10
ENDBRANCH  17   9
ENDBRANCH  18  17
BRANCH  21  22
ATOM     22  C   UNL     1      47.287   3.185  16.816  0.00  0.00    +0.000 C 
BRANCH  22  23
ATOM     23  N   UNL     1      46.912   4.237  15.908  0.00  0.00    +0.000 N 
ATOM     24  C   UNL     1      46.991   4.056  14.551  0.00  0.00    +0.000 C 
ATOM     25  O   UNL     1      47.334   2.988  14.053  0.00  0.00    +0.000 OA
ATOM     38  H   UNL     1      46.864   5.179  16.286  0.00  0.00    +0.000 HD
BRANCH  24  26
ATOM     26  C   UNL     1      46.584   5.192  13.716  0.00  0.00    +0.000 A 
ATOM     27  C   UNL     1      47.425   6.289  13.590  0.00  0.00    +0.000 A 
ATOM     28  S   UNL     1      46.819   7.497  12.550  0.00  0.00    +0.000 S 
ATOM     29  C   UNL     1      45.388   6.618  12.274  0.00  0.00    +0.000 A 
ATOM     30  N   UNL     1      44.403   7.118  11.479  0.00  0.00    +0.000 NA
ATOM     31  C   UNL     1      43.362   6.367  11.387  0.00  0.00    +0.000 A 
ATOM     32  N   UNL     1      43.213   5.153  12.009  0.00  0.00    +0.000 N 
ATOM     33  C   UNL     1      44.192   4.597  12.798  0.00  0.00    +0.000 A 
ATOM     34  O   UNL     1      44.046   3.490  13.307  0.00  0.00    +0.000 OA
ATOM     35  C   UNL     1      45.380   5.410  12.948  0.00  0.00    +0.000 A 
ATOM     39  H   UNL     1      42.372   4.607  11.888  0.00  0.00    +0.000 HD
ENDBRANCH  24  26
ENDBRANCH  22  23
ENDBRANCH  21  22
TORSDOF 14
ENDMDL
