MODEL 1
REMARK VINA RESULT:    -6.555      0.000      0.000
REMARK INTER + INTRA:          -9.434
REMARK INTER:                  -8.471
REMARK INTRA:                  -0.963
REMARK UNBOUND:                -0.963
REMARK  Name = 
REMARK  7 active torsions:
REMARK  status: ('A' for Active; 'I' for Inactive)
REMARK    1  A    between atoms: C_1  and  C_2
REMARK    2  A    between atoms: C_2  and  C_3
REMARK    3  A    between atoms: C_2  and  C_4
REMARK    4  A    between atoms: C_7  and  C_9
REMARK    5  A    between atoms: C_9  and  N_10
REMARK    6  A    between atoms: C_11  and  C_12
REMARK    7  A    between atoms: C_18  and  C_19
REMARK                            x       y       z     vdW  Elec       q    Type
REMARK                         _______ _______ _______ _____ _____    ______ ____
ROOT
ATOM     10  N   UNL     1      47.476   4.566  14.714  0.00  0.00    +0.000 N 
ATOM     11  C   UNL     1      47.909   5.880  14.842  0.00  0.00    +0.000 A 
ATOM     15  C   UNL     1      47.347   6.603  13.818  0.00  0.00    +0.000 A 
ATOM     16  C   UNL     1      46.548   5.731  13.046  0.00  0.00    +0.000 A 
ATOM     17  C   UNL     1      45.783   5.877  11.885  0.00  0.00    +0.000 A 
ATOM     18  C   UNL     1      45.094   4.761  11.407  0.00  0.00    +0.000 A 
ATOM     22  C   UNL     1      45.193   3.574  12.132  0.00  0.00    +0.000 A 
ATOM     23  N   UNL     1      45.906   3.383  13.275  0.00  0.00    +0.000 NA
ATOM     24  C   UNL     1      46.597   4.479  13.653  0.00  0.00    +0.000 A 
ENDROOT
BRANCH  18  19
ATOM     19  C   UNL     1      44.278   4.791  10.169  0.00  0.00    +0.000 C 
ATOM     20  N   UNL     1      44.915   4.602   8.962  0.00  0.00    +0.000 N 
ATOM     21  O   UNL     1      43.065   4.979  10.209  0.00  0.00    +0.000 OA
ATOM     28  H   UNL     1      45.895   4.431   8.839  0.00  0.00    +0.000 HD
ATOM     29  H   UNL     1      44.322   4.611   8.143  0.00  0.00    +0.000 HD
ENDBRANCH  18  19
BRANCH  11  12
ATOM     12  C   UNL     1      48.832   6.456  15.913  0.00  0.00    +0.000 C 
ATOM     13  C   UNL     1      49.183   7.927  15.805  0.00  0.00    +0.000 C 
ATOM     14  C   UNL     1      50.234   6.904  15.545  0.00  0.00    +0.000 C 
ENDBRANCH  11  12
BRANCH  10   9
ATOM      9  C   UNL     1      47.721   3.453  15.629  0.00  0.00    +0.000 C 
BRANCH   9   7
ATOM      4  C   UNL     1      49.613   4.836  19.753  0.00  0.00    +0.000 C 
ATOM      5  C   UNL     1      48.534   3.775  19.379  0.00  0.00    +0.000 C 
ATOM      6  N   UNL     1      48.597   3.427  17.954  0.00  0.00    +0.000 N 
ATOM      7  C   UNL     1      47.548   3.790  17.105  0.00  0.00    +0.000 C 
ATOM      8  O   UNL     1      46.525   4.306  17.551  0.00  0.00    +0.000 OA
ATOM     25  C   UNL     1      49.913   2.933  17.543  0.00  0.00    +0.000 C 
ATOM     26  C   UNL     1      51.014   3.935  17.939  0.00  0.00    +0.000 C 
ATOM     27  N   UNL     1      50.956   4.324  19.359  0.00  0.00    +0.000 NA
ATOM     30  H   UNL     1      51.671   5.020  19.556  0.00  0.00    +0.000 HD
BRANCH   4   2
ATOM      1  C   UNL     1      50.356   7.305  19.611  0.00  0.00    +0.000 C 
ATOM      2  C   UNL     1      49.299   6.266  19.203  0.00  0.00    +0.000 C 
ATOM      3  C   UNL     1      47.936   6.788  19.681  0.00  0.00    +0.000 C 
ENDBRANCH   4   2
ENDBRANCH   9   7
ENDBRANCH  10   9
TORSDOF 5
ENDMDL
MODEL 2
REMARK VINA RESULT:    -6.336      2.001      7.730
REMARK INTER + INTRA:          -9.151
REMARK INTER:                  -8.276
REMARK INTRA:                  -0.875
REMARK UNBOUND:                -0.963
REMARK  Name = 
REMARK  7 active torsions:
REMARK  status: ('A' for Active; 'I' for Inactive)
REMARK    1  A    between atoms: C_1  and  C_2
REMARK    2  A    between atoms: C_2  and  C_3
REMARK    3  A    between atoms: C_2  and  C_4
REMARK    4  A    between atoms: C_7  and  C_9
REMARK    5  A    between atoms: C_9  and  N_10
REMARK    6  A    between atoms: C_11  and  C_12
REMARK    7  A    between atoms: C_18  and  C_19
REMARK                            x       y       z     vdW  Elec       q    Type
REMARK                         _______ _______ _______ _____ _____    ______ ____
ROOT
ATOM     10  N   UNL     1      47.990   6.245  14.360  0.00  0.00    +0.000 N 
ATOM     11  C   UNL     1      48.382   7.576  14.302  0.00  0.00    +0.000 A 
ATOM     15  C   UNL     1      48.752   7.956  15.569  0.00  0.00    +0.000 A 
ATOM     16  C   UNL     1      48.597   6.846  16.427  0.00  0.00    +0.000 A 
ATOM     17  C   UNL     1      48.772   6.638  17.798  0.00  0.00    +0.000 A 
ATOM     18  C   UNL     1      48.531   5.360  18.307  0.00  0.00    +0.000 A 
ATOM     22  C   UNL     1      48.153   4.363  17.409  0.00  0.00    +0.000 A 
ATOM     23  N   UNL     1      47.986   4.506  16.066  0.00  0.00    +0.000 NA
ATOM     24  C   UNL     1      48.175   5.774  15.644  0.00  0.00    +0.000 A 
ENDROOT
BRANCH  18  19
ATOM     19  C   UNL     1      48.654   5.032  19.748  0.00  0.00    +0.000 C 
ATOM     20  N   UNL     1      48.565   3.711  20.127  0.00  0.00    +0.000 N 
ATOM     21  O   UNL     1      48.832   5.910  20.589  0.00  0.00    +0.000 OA
ATOM     28  H   UNL     1      48.434   2.933  19.508  0.00  0.00    +0.000 HD
ATOM     29  H   UNL     1      48.672   3.526  21.115  0.00  0.00    +0.000 HD
ENDBRANCH  18  19
BRANCH  11  12
ATOM     12  C   UNL     1      48.416   8.484  13.074  0.00  0.00    +0.000 C 
ATOM     13  C   UNL     1      48.431   9.981  13.321  0.00  0.00    +0.000 C 
ATOM     14  C   UNL     1      47.215   9.348  12.736  0.00  0.00    +0.000 C 
ENDBRANCH  11  12
BRANCH  10   9
ATOM      9  C   UNL     1      47.617   5.375  13.247  0.00  0.00    +0.000 C 
BRANCH   9   7
ATOM      4  C   UNL     1      43.848   4.441  10.522  0.00  0.00    +0.000 C 
ATOM      5  C   UNL     1      44.062   5.353  11.768  0.00  0.00    +0.000 C 
ATOM      6  N   UNL     1      45.487   5.627  11.993  0.00  0.00    +0.000 N 
ATOM      7  C   UNL     1      46.123   5.104  13.122  0.00  0.00    +0.000 C 
ATOM      8  O   UNL     1      45.484   4.503  13.984  0.00  0.00    +0.000 OA
ATOM     25  C   UNL     1      46.143   6.239  10.835  0.00  0.00    +0.000 C 
ATOM     26  C   UNL     1      45.913   5.388   9.571  0.00  0.00    +0.000 C 
ATOM     27  N   UNL     1      44.492   5.075   9.338  0.00  0.00    +0.000 NA
ATOM     30  H   UNL     1      44.400   4.474   8.523  0.00  0.00    +0.000 HD
BRANCH   4   2
ATOM      1  C   UNL     1      44.338   2.142   9.452  0.00  0.00    +0.000 C 
ATOM      2  C   UNL     1      44.283   2.956  10.755  0.00  0.00    +0.000 C 
ATOM      3  C   UNL     1      43.340   2.217  11.716  0.00  0.00    +0.000 C 
ENDBRANCH   4   2
ENDBRANCH   9   7
ENDBRANCH  10   9
TORSDOF 5
ENDMDL
MODEL 3
REMARK VINA RESULT:    -6.201      1.795      2.473
REMARK INTER + INTRA:          -8.977
REMARK INTER:                  -8.121
REMARK INTRA:                  -0.855
REMARK UNBOUND:                -0.963
REMARK  Name = 
REMARK  7 active torsions:
REMARK  status: ('A' for Active; 'I' for Inactive)
REMARK    1  A    between atoms: C_1  and  C_2
REMARK    2  A    between atoms: C_2  and  C_3
REMARK    3  A    between atoms: C_2  and  C_4
REMARK    4  A    between atoms: C_7  and  C_9
REMARK    5  A    between atoms: C_9  and  N_10
REMARK    6  A    between atoms: C_11  and  C_12
REMARK    7  A    between atoms: C_18  and  C_19
REMARK                            x       y       z     vdW  Elec       q    Type
REMARK                         _______ _______ _______ _____ _____    ______ ____
ROOT
ATOM     10  N   UNL     1      48.188   6.683  14.465  0.00  0.00    +0.000 N 
ATOM     11  C   UNL     1      47.866   7.925  13.933  0.00  0.00    +0.000 A 
ATOM     15  C   UNL     1      46.873   7.733  13.003  0.00  0.00    +0.000 A 
ATOM     16  C   UNL     1      46.566   6.355  12.961  0.00  0.00    +0.000 A 
ATOM     17  C   UNL     1      45.692   5.571  12.202  0.00  0.00    +0.000 A 
ATOM     18  C   UNL     1      45.647   4.200  12.458  0.00  0.00    +0.000 A 
ATOM     22  C   UNL     1      46.460   3.700  13.474  0.00  0.00    +0.000 A 
ATOM     23  N   UNL     1      47.313   4.419  14.254  0.00  0.00    +0.000 NA
ATOM     24  C   UNL     1      47.357   5.726  13.919  0.00  0.00    +0.000 A 
ENDROOT
BRANCH  18  19
ATOM     19  C   UNL     1      44.781   3.268  11.695  0.00  0.00    +0.000 C 
ATOM     20  N   UNL     1      43.944   2.431  12.398  0.00  0.00    +0.000 N 
ATOM     21  O   UNL     1      44.805   3.237  10.467  0.00  0.00    +0.000 OA
ATOM     28  H   UNL     1      43.852   2.399  13.396  0.00  0.00    +0.000 HD
ATOM     29  H   UNL     1      43.357   1.823  11.843  0.00  0.00    +0.000 HD
ENDBRANCH  18  19
BRANCH  11  12
ATOM     12  C   UNL     1      48.475   9.278  14.292  0.00  0.00    +0.000 C 
ATOM     13  C   UNL     1      48.640  10.283  13.168  0.00  0.00    +0.000 C 
ATOM     14  C   UNL     1      49.849   9.654  13.770  0.00  0.00    +0.000 C 
ENDBRANCH  11  12
BRANCH  10   9
ATOM      9  C   UNL     1      49.110   6.394  15.562  0.00  0.00    +0.000 C 
BRANCH   9   7
ATOM      4  C   UNL     1      48.469   5.079  20.075  0.00  0.00    +0.000 C 
ATOM      5  C   UNL     1      47.561   5.808  19.038  0.00  0.00    +0.000 C 
ATOM      6  N   UNL     1      48.048   5.611  17.667  0.00  0.00    +0.000 N 
ATOM      7  C   UNL     1      48.562   6.695  16.951  0.00  0.00    +0.000 C 
ATOM      8  O   UNL     1      48.518   7.834  17.414  0.00  0.00    +0.000 OA
ATOM     25  C   UNL     1      48.156   4.198  17.295  0.00  0.00    +0.000 C 
ATOM     26  C   UNL     1      49.010   3.432  18.325  0.00  0.00    +0.000 C 
ATOM     27  N   UNL     1      48.560   3.637  19.713  0.00  0.00    +0.000 NA
ATOM     30  H   UNL     1      49.183   3.151  20.353  0.00  0.00    +0.000 HD
BRANCH   4   2
ATOM      1  C   UNL     1      50.705   5.088  21.367  0.00  0.00    +0.000 C 
ATOM      2  C   UNL     1      49.860   5.766  20.276  0.00  0.00    +0.000 C 
ATOM      3  C   UNL     1      49.729   7.249  20.654  0.00  0.00    +0.000 C 
ENDBRANCH   4   2
ENDBRANCH   9   7
ENDBRANCH  10   9
TORSDOF 5
ENDMDL
MODEL 4
REMARK VINA RESULT:    -6.048      3.563      8.197
REMARK INTER + INTRA:          -8.779
REMARK INTER:                  -7.733
REMARK INTRA:                  -1.046
REMARK UNBOUND:                -0.963
REMARK  Name = 
REMARK  7 active torsions:
REMARK  status: ('A' for Active; 'I' for Inactive)
REMARK    1  A    between atoms: C_1  and  C_2
REMARK    2  A    between atoms: C_2  and  C_3
REMARK    3  A    between atoms: C_2  and  C_4
REMARK    4  A    between atoms: C_7  and  C_9
REMARK    5  A    between atoms: C_9  and  N_10
REMARK    6  A    between atoms: C_11  and  C_12
REMARK    7  A    between atoms: C_18  and  C_19
REMARK                            x       y       z     vdW  Elec       q    Type
REMARK                         _______ _______ _______ _____ _____    ______ ____
ROOT
ATOM     10  N   UNL     1      46.026   5.545  11.794  0.00  0.00    +0.000 N 
ATOM     11  C   UNL     1      45.276   4.424  11.462  0.00  0.00    +0.000 A 
ATOM     15  C   UNL     1      45.398   3.523  12.492  0.00  0.00    +0.000 A 
ATOM     16  C   UNL     1      46.228   4.092  13.483  0.00  0.00    +0.000 A 
ATOM     17  C   UNL     1      46.734   3.648  14.708  0.00  0.00    +0.000 A 
ATOM     18  C   UNL     1      47.534   4.523  15.445  0.00  0.00    +0.000 A 
ATOM     22  C   UNL     1      47.760   5.796  14.924  0.00  0.00    +0.000 A 
ATOM     23  N   UNL     1      47.278   6.285  13.749  0.00  0.00    +0.000 NA
ATOM     24  C   UNL     1      46.563   5.375  13.054  0.00  0.00    +0.000 A 
ENDROOT
BRANCH  18  19
ATOM     19  C   UNL     1      48.149   4.148  16.742  0.00  0.00    +0.000 C 
ATOM     20  N   UNL     1      47.318   3.907  17.814  0.00  0.00    +0.000 N 
ATOM     21  O   UNL     1      49.368   4.054  16.866  0.00  0.00    +0.000 OA
ATOM     28  H   UNL     1      46.316   3.949  17.798  0.00  0.00    +0.000 HD
ATOM     29  H   UNL     1      47.773   3.637  18.675  0.00  0.00    +0.000 HD
ENDBRANCH  18  19
BRANCH  11  12
ATOM     12  C   UNL     1      44.449   4.197  10.198  0.00  0.00    +0.000 C 
ATOM     13  C   UNL     1      44.532   2.826   9.554  0.00  0.00    +0.000 C 
ATOM     14  C   UNL     1      45.143   3.996   8.864  0.00  0.00    +0.000 C 
ENDBRANCH  11  12
BRANCH  10   9
ATOM      9  C   UNL     1      46.116   6.807  11.062  0.00  0.00    +0.000 C 
BRANCH   9   7
ATOM      4  C   UNL     1      44.613  11.295  11.381  0.00  0.00    +0.000 C 
ATOM      5  C   UNL     1      44.363  10.023  12.248  0.00  0.00    +0.000 C 
ATOM      6  N   UNL     1      45.373   8.989  11.986  0.00  0.00    +0.000 N 
ATOM      7  C   UNL     1      44.999   7.798  11.359  0.00  0.00    +0.000 C 
ATOM      8  O   UNL     1      43.817   7.558  11.115  0.00  0.00    +0.000 OA
ATOM     25  C   UNL     1      46.742   9.457  12.211  0.00  0.00    +0.000 C 
ATOM     26  C   UNL     1      47.013  10.743  11.406  0.00  0.00    +0.000 C 
ATOM     27  N   UNL     1      45.998  11.787  11.628  0.00  0.00    +0.000 NA
ATOM     30  H   UNL     1      46.196  12.592  11.040  0.00  0.00    +0.000 HD
BRANCH   4   2
ATOM      1  C   UNL     1      44.506  12.364   9.033  0.00  0.00    +0.000 C 
ATOM      2  C   UNL     1      44.278  11.093   9.867  0.00  0.00    +0.000 C 
ATOM      3  C   UNL     1      42.823  10.656   9.645  0.00  0.00    +0.000 C 
ENDBRANCH   4   2
ENDBRANCH   9   7
ENDBRANCH  10   9
TORSDOF 5
ENDMDL
MODEL 5
REMARK VINA RESULT:    -5.801      3.593      5.927
REMARK INTER + INTRA:          -8.460
REMARK INTER:                  -7.495
REMARK INTRA:                  -0.965
REMARK UNBOUND:                -0.963
REMARK  Name = 
REMARK  7 active torsions:
REMARK  status: ('A' for Active; 'I' for Inactive)
REMARK    1  A    between atoms: C_1  and  C_2
REMARK    2  A    between atoms: C_2  and  C_3
REMARK    3  A    between atoms: C_2  and  C_4
REMARK    4  A    between atoms: C_7  and  C_9
REMARK    5  A    between atoms: C_9  and  N_10
REMARK    6  A    between atoms: C_11  and  C_12
REMARK    7  A    between atoms: C_18  and  C_19
REMARK                            x       y       z     vdW  Elec       q    Type
REMARK                         _______ _______ _______ _____ _____    ______ ____
ROOT
ATOM     10  N   UNL     1      47.895   6.191  13.935  0.00  0.00    +0.000 N 
ATOM     11  C   UNL     1      47.789   5.369  15.049  0.00  0.00    +0.000 A 
ATOM     15  C   UNL     1      46.770   4.478  14.811  0.00  0.00    +0.000 A 
ATOM     16  C   UNL     1      46.240   4.743  13.530  0.00  0.00    +0.000 A 
ATOM     17  C   UNL     1      45.191   4.208  12.776  0.00  0.00    +0.000 A 
ATOM     18  C   UNL     1      44.965   4.728  11.501  0.00  0.00    +0.000 A 
ATOM     22  C   UNL     1      45.817   5.735  11.047  0.00  0.00    +0.000 A 
ATOM     23  N   UNL     1      46.861   6.278  11.730  0.00  0.00    +0.000 NA
ATOM     24  C   UNL     1      46.991   5.777  12.977  0.00  0.00    +0.000 A 
ENDROOT
BRANCH  18  19
ATOM     19  C   UNL     1      43.863   4.259  10.625  0.00  0.00    +0.000 C 
ATOM     20  N   UNL     1      43.902   4.596   9.290  0.00  0.00    +0.000 N 
ATOM     21  O   UNL     1      42.936   3.588  11.071  0.00  0.00    +0.000 OA
ATOM     28  H   UNL     1      44.625   5.127   8.841  0.00  0.00    +0.000 HD
ATOM     29  H   UNL     1      43.143   4.243   8.722  0.00  0.00    +0.000 HD
ENDBRANCH  18  19
BRANCH  11  12
ATOM     12  C   UNL     1      48.633   5.410  16.321  0.00  0.00    +0.000 C 
ATOM     13  C   UNL     1      47.925   5.118  17.630  0.00  0.00    +0.000 C 
ATOM     14  C   UNL     1      48.402   6.501  17.350  0.00  0.00    +0.000 C 
ENDBRANCH  11  12
BRANCH  10   9
ATOM      9  C   UNL     1      48.903   7.218  13.677  0.00  0.00    +0.000 C 
BRANCH   9   7
ATOM      4  C   UNL     1      49.029  11.739  12.244  0.00  0.00    +0.000 C 
ATOM      5  C   UNL     1      48.924  11.069  13.647  0.00  0.00    +0.000 C 
ATOM      6  N   UNL     1      49.343   9.662  13.602  0.00  0.00    +0.000 N 
ATOM      7  C   UNL     1      48.401   8.651  13.807  0.00  0.00    +0.000 C 
ATOM      8  O   UNL     1      47.245   8.922  14.128  0.00  0.00    +0.000 OA
ATOM     25  C   UNL     1      50.705   9.487  13.092  0.00  0.00    +0.000 C 
ATOM     26  C   UNL     1      50.862  10.178  11.724  0.00  0.00    +0.000 C 
ATOM     27  N   UNL     1      50.421  11.584  11.734  0.00  0.00    +0.000 NA
ATOM     30  H   UNL     1      50.500  11.977  10.800  0.00  0.00    +0.000 HD
BRANCH   4   2
ATOM      1  C   UNL     1      48.031  11.952   9.872  0.00  0.00    +0.000 C 
ATOM      2  C   UNL     1      47.933  11.255  11.238  0.00  0.00    +0.000 C 
ATOM      3  C   UNL     1      46.511  11.487  11.769  0.00  0.00    +0.000 C 
ENDBRANCH   4   2
ENDBRANCH   9   7
ENDBRANCH  10   9
TORSDOF 5
ENDMDL
MODEL 6
REMARK VINA RESULT:    -5.762      3.074      4.222
REMARK INTER + INTRA:          -8.409
REMARK INTER:                  -7.385
REMARK INTRA:                  -1.024
REMARK UNBOUND:                -0.963
REMARK  Name = 
REMARK  7 active torsions:
REMARK  status: ('A' for Active; 'I' for Inactive)
REMARK    1  A    between atoms: C_1  and  C_2
REMARK    2  A    between atoms: C_2  and  C_3
REMARK    3  A    between atoms: C_2  and  C_4
REMARK    4  A    between atoms: C_7  and  C_9
REMARK    5  A    between atoms: C_9  and  N_10
REMARK    6  A    between atoms: C_11  and  C_12
REMARK    7  A    between atoms: C_18  and  C_19
REMARK                            x       y       z     vdW  Elec       q    Type
REMARK                         _______ _______ _______ _____ _____    ______ ____
ROOT
ATOM     10  N   UNL     1      47.841   7.390  13.017  0.00  0.00    +0.000 N 
ATOM     11  C   UNL     1      47.241   8.620  12.787  0.00  0.00    +0.000 A 
ATOM     15  C   UNL     1      45.908   8.392  12.541  0.00  0.00    +0.000 A 
ATOM     16  C   UNL     1      45.673   7.003  12.628  0.00  0.00    +0.000 A 
ATOM     17  C   UNL     1      44.554   6.187  12.441  0.00  0.00    +0.000 A 
ATOM     18  C   UNL     1      44.700   4.813  12.636  0.00  0.00    +0.000 A 
ATOM     22  C   UNL     1      45.952   4.341  13.030  0.00  0.00    +0.000 A 
ATOM     23  N   UNL     1      47.067   5.090  13.243  0.00  0.00    +0.000 NA
ATOM     24  C   UNL     1      46.879   6.401  12.980  0.00  0.00    +0.000 A 
ENDROOT
BRANCH  18  19
ATOM     19  C   UNL     1      43.590   3.850  12.436  0.00  0.00    +0.000 C 
ATOM     20  N   UNL     1      42.503   4.252  11.693  0.00  0.00    +0.000 N 
ATOM     21  O   UNL     1      43.631   2.721  12.918  0.00  0.00    +0.000 OA
ATOM     28  H   UNL     1      42.393   5.148  11.255  0.00  0.00    +0.000 HD
ATOM     29  H   UNL     1      41.775   3.562  11.564  0.00  0.00    +0.000 HD
ENDBRANCH  18  19
BRANCH  11  12
ATOM     12  C   UNL     1      47.902   9.997  12.801  0.00  0.00    +0.000 C 
ATOM     13  C   UNL     1      47.408  11.012  11.788  0.00  0.00    +0.000 C 
ATOM     14  C   UNL     1      48.771  10.432  11.635  0.00  0.00    +0.000 C 
ENDBRANCH  11  12
BRANCH  10   9
ATOM      9  C   UNL     1      49.220   7.132  13.427  0.00  0.00    +0.000 C 
BRANCH   9   7
ATOM      4  C   UNL     1      49.903   9.405  17.534  0.00  0.00    +0.000 C 
ATOM      5  C   UNL     1      50.508   8.105  16.923  0.00  0.00    +0.000 C 
ATOM      6  N   UNL     1      50.296   8.047  15.471  0.00  0.00    +0.000 N 
ATOM      7  C   UNL     1      49.440   7.083  14.934  0.00  0.00    +0.000 C 
ATOM      8  O   UNL     1      48.941   6.215  15.648  0.00  0.00    +0.000 OA
ATOM     25  C   UNL     1      50.846   9.207  14.765  0.00  0.00    +0.000 C 
ATOM     26  C   UNL     1      50.307  10.516  15.373  0.00  0.00    +0.000 C 
ATOM     27  N   UNL     1      50.481  10.587  16.835  0.00  0.00    +0.000 NA
ATOM     30  H   UNL     1      50.067  11.445  17.190  0.00  0.00    +0.000 HD
BRANCH   4   2
ATOM      1  C   UNL     1      47.758  10.742  18.064  0.00  0.00    +0.000 C 
ATOM      2  C   UNL     1      48.340   9.404  17.579  0.00  0.00    +0.000 C 
ATOM      3  C   UNL     1      47.784   8.305  18.497  0.00  0.00    +0.000 C 
ENDBRANCH   4   2
ENDBRANCH   9   7
ENDBRANCH  10   9
TORSDOF 5
ENDMDL
MODEL 7
REMARK VINA RESULT:    -5.488      2.270      3.398
REMARK INTER + INTRA:          -8.055
REMARK INTER:                  -7.242
REMARK INTRA:                  -0.813
REMARK UNBOUND:                -0.963
REMARK  Name = 
REMARK  7 active torsions:
REMARK  status: ('A' for Active; 'I' for Inactive)
REMARK    1  A    between atoms: C_1  and  C_2
REMARK    2  A    between atoms: C_2  and  C_3
REMARK    3  A    between atoms: C_2  and  C_4
REMARK    4  A    between atoms: C_7  and  C_9
REMARK    5  A    between atoms: C_9  and  N_10
REMARK    6  A    between atoms: C_11  and  C_12
REMARK    7  A    between atoms: C_18  and  C_19
REMARK                            x       y       z     vdW  Elec       q    Type
REMARK                         _______ _______ _______ _____ _____    ______ ____
ROOT
ATOM     10  N   UNL     1      48.151   7.603  13.919  0.00  0.00    +0.000 N 
ATOM     11  C   UNL     1      48.782   8.330  12.918  0.00  0.00    +0.000 A 
ATOM     15  C   UNL     1      48.248   7.933  11.716  0.00  0.00    +0.000 A 
ATOM     16  C   UNL     1      47.265   6.951  11.971  0.00  0.00    +0.000 A 
ATOM     17  C   UNL     1      46.433   6.169  11.165  0.00  0.00    +0.000 A 
ATOM     18  C   UNL     1      45.548   5.290  11.792  0.00  0.00    +0.000 A 
ATOM     22  C   UNL     1      45.532   5.264  13.186  0.00  0.00    +0.000 A 
ATOM     23  N   UNL     1      46.305   6.015  14.016  0.00  0.00    +0.000 NA
ATOM     24  C   UNL     1      47.181   6.800  13.353  0.00  0.00    +0.000 A 
ENDROOT
BRANCH  18  19
ATOM     19  C   UNL     1      44.641   4.390  11.038  0.00  0.00    +0.000 C 
ATOM     20  N   UNL     1      43.442   4.038  11.617  0.00  0.00    +0.000 N 
ATOM     21  O   UNL     1      44.944   3.965   9.925  0.00  0.00    +0.000 OA
ATOM     28  H   UNL     1      43.111   4.347  12.512  0.00  0.00    +0.000 HD
ATOM     29  H   UNL     1      42.843   3.438  11.065  0.00  0.00    +0.000 HD
ENDBRANCH  18  19
BRANCH  11  12
ATOM     12  C   UNL     1      49.870   9.390  13.081  0.00  0.00    +0.000 C 
ATOM     13  C   UNL     1      50.847   9.561  11.934  0.00  0.00    +0.000 C 
ATOM     14  C   UNL     1      51.322   8.971  13.217  0.00  0.00    +0.000 C 
ENDBRANCH  11  12
BRANCH  10   9
ATOM      9  C   UNL     1      48.306   7.753  15.364  0.00  0.00    +0.000 C 
BRANCH   9   7
ATOM      4  C   UNL     1      49.199   4.337  18.532  0.00  0.00    +0.000 C 
ATOM      5  C   UNL     1      50.005   5.581  18.052  0.00  0.00    +0.000 C 
ATOM      6  N   UNL     1      49.138   6.553  17.374  0.00  0.00    +0.000 N 
ATOM      7  C   UNL     1      49.290   6.781  16.005  0.00  0.00    +0.000 C 
ATOM      8  O   UNL     1      50.208   6.257  15.376  0.00  0.00    +0.000 OA
ATOM     25  C   UNL     1      48.021   7.002  18.208  0.00  0.00    +0.000 C 
ATOM     26  C   UNL     1      47.226   5.795  18.742  0.00  0.00    +0.000 C 
ATOM     27  N   UNL     1      48.077   4.790  19.402  0.00  0.00    +0.000 NA
ATOM     30  H   UNL     1      47.513   3.995  19.692  0.00  0.00    +0.000 HD
BRANCH   4   2
ATOM      1  C   UNL     1      47.416   2.690  17.652  0.00  0.00    +0.000 C 
ATOM      2  C   UNL     1      48.750   3.397  17.365  0.00  0.00    +0.000 C 
ATOM      3  C   UNL     1      49.789   2.307  17.062  0.00  0.00    +0.000 C 
ENDBRANCH   4   2
ENDBRANCH   9   7
ENDBRANCH  10   9
TORSDOF 5
ENDMDL
MODEL 8
REMARK VINA RESULT:    -5.362      4.394      5.896
REMARK INTER + INTRA:          -7.893
REMARK INTER:                  -6.925
REMARK INTRA:                  -0.968
REMARK UNBOUND:                -0.963
REMARK  Name = 
REMARK  7 active torsions:
REMARK  status: ('A' for Active; 'I' for Inactive)
REMARK    1  A    between atoms: C_1  and  C_2
REMARK    2  A    between atoms: C_2  and  C_3
REMARK    3  A    between atoms: C_2  and  C_4
REMARK    4  A    between atoms: C_7  and  C_9
REMARK    5  A    between atoms: C_9  and  N_10
REMARK    6  A    between atoms: C_11  and  C_12
REMARK    7  A    between atoms: C_18  and  C_19
REMARK                            x       y       z     vdW  Elec       q    Type
REMARK                         _______ _______ _______ _____ _____    ______ ____
ROOT
ATOM     10  N   UNL     1      46.229   7.965  12.559  0.00  0.00    +0.000 N 
ATOM     11  C   UNL     1      45.337   8.878  12.010  0.00  0.00    +0.000 A 
ATOM     15  C   UNL     1      44.355   8.164  11.368  0.00  0.00    +0.000 A 
ATOM     16  C   UNL     1      44.633   6.788  11.525  0.00  0.00    +0.000 A 
ATOM     17  C   UNL     1      44.030   5.611  11.072  0.00  0.00    +0.000 A 
ATOM     18  C   UNL     1      44.594   4.393  11.455  0.00  0.00    +0.000 A 
ATOM     22  C   UNL     1      45.713   4.426  12.287  0.00  0.00    +0.000 A 
ATOM     23  N   UNL     1      46.327   5.540  12.770  0.00  0.00    +0.000 NA
ATOM     24  C   UNL     1      45.773   6.685  12.318  0.00  0.00    +0.000 A 
ENDROOT
BRANCH  18  19
ATOM     19  C   UNL     1      44.058   3.084  11.009  0.00  0.00    +0.000 C 
ATOM     20  N   UNL     1      44.782   2.363  10.085  0.00  0.00    +0.000 N 
ATOM     21  O   UNL     1      42.998   2.646  11.448  0.00  0.00    +0.000 OA
ATOM     28  H   UNL     1      45.659   2.639   9.685  0.00  0.00    +0.000 HD
ATOM     29  H   UNL     1      44.393   1.468   9.819  0.00  0.00    +0.000 HD
ENDBRANCH  18  19
BRANCH  11  12
ATOM     12  C   UNL     1      45.398  10.402  12.089  0.00  0.00    +0.000 C 
ATOM     13  C   UNL     1      44.713  11.180  10.982  0.00  0.00    +0.000 C 
ATOM     14  C   UNL     1      46.200  11.183  11.065  0.00  0.00    +0.000 C 
ENDBRANCH  11  12
BRANCH  10   9
ATOM      9  C   UNL     1      47.373   8.245  13.424  0.00  0.00    +0.000 C 
BRANCH   9   7
ATOM      4  C   UNL     1      51.712  10.149  13.652  0.00  0.00    +0.000 C 
ATOM      5  C   UNL     1      50.418  10.538  12.876  0.00  0.00    +0.000 C 
ATOM      6  N   UNL     1      49.232   9.893  13.454  0.00  0.00    +0.000 N 
ATOM      7  C   UNL     1      48.551   8.914  12.727  0.00  0.00    +0.000 C 
ATOM      8  O   UNL     1      48.868   8.656  11.567  0.00  0.00    +0.000 OA
ATOM     25  C   UNL     1      49.047  10.202  14.874  0.00  0.00    +0.000 C 
ATOM     26  C   UNL     1      50.326   9.875  15.669  0.00  0.00    +0.000 C 
ATOM     27  N   UNL     1      51.536  10.486  15.093  0.00  0.00    +0.000 NA
ATOM     30  H   UNL     1      52.354  10.201  15.624  0.00  0.00    +0.000 HD
BRANCH   4   2
ATOM      1  C   UNL     1      53.453   8.312  14.165  0.00  0.00    +0.000 C 
ATOM      2  C   UNL     1      52.168   8.674  13.403  0.00  0.00    +0.000 C 
ATOM      3  C   UNL     1      52.423   8.385  11.916  0.00  0.00    +0.000 C 
ENDBRANCH   4   2
ENDBRANCH   9   7
ENDBRANCH  10   9
TORSDOF 5
ENDMDL
MODEL 9
REMARK VINA RESULT:    -5.178      2.598      3.653
REMARK INTER + INTRA:          -7.655
REMARK INTER:                  -6.586
REMARK INTRA:                  -1.069
REMARK UNBOUND:                -0.963
REMARK  Name = 
REMARK  7 active torsions:
REMARK  status: ('A' for Active; 'I' for Inactive)
REMARK    1  A    between atoms: C_1  and  C_2
REMARK    2  A    between atoms: C_2  and  C_3
REMARK    3  A    between atoms: C_2  and  C_4
REMARK    4  A    between atoms: C_7  and  C_9
REMARK    5  A    between atoms: C_9  and  N_10
REMARK    6  A    between atoms: C_11  and  C_12
REMARK    7  A    between atoms: C_18  and  C_19
REMARK                            x       y       z     vdW  Elec       q    Type
REMARK                         _______ _______ _______ _____ _____    ______ ____
ROOT
ATOM     10  N   UNL     1      48.475   7.124  14.514  0.00  0.00    +0.000 N 
ATOM     11  C   UNL     1      48.068   8.391  14.115  0.00  0.00    +0.000 A 
ATOM     15  C   UNL     1      46.973   8.237  13.299  0.00  0.00    +0.000 A 
ATOM     16  C   UNL     1      46.689   6.858  13.195  0.00  0.00    +0.000 A 
ATOM     17  C   UNL     1      45.745   6.105  12.490  0.00  0.00    +0.000 A 
ATOM     18  C   UNL     1      45.757   4.719  12.651  0.00  0.00    +0.000 A 
ATOM     22  C   UNL     1      46.696   4.171  13.524  0.00  0.00    +0.000 A 
ATOM     23  N   UNL     1      47.623   4.858  14.246  0.00  0.00    +0.000 NA
ATOM     24  C   UNL     1      47.602   6.185  14.004  0.00  0.00    +0.000 A 
ENDROOT
BRANCH  18  19
ATOM     19  C   UNL     1      44.823   3.819  11.931  0.00  0.00    +0.000 C 
ATOM     20  N   UNL     1      44.554   2.584  12.478  0.00  0.00    +0.000 N 
ATOM     21  O   UNL     1      44.299   4.158  10.873  0.00  0.00    +0.000 OA
ATOM     28  H   UNL     1      44.927   2.232  13.341  0.00  0.00    +0.000 HD
ATOM     29  H   UNL     1      43.899   2.006  11.968  0.00  0.00    +0.000 HD
ENDBRANCH  18  19
BRANCH  11  12
ATOM     12  C   UNL     1      48.690   9.733  14.496  0.00  0.00    +0.000 C 
ATOM     13  C   UNL     1      48.671  10.827  13.447  0.00  0.00    +0.000 C 
ATOM     14  C   UNL     1      49.968  10.195  13.820  0.00  0.00    +0.000 C 
ENDBRANCH  11  12
BRANCH  10   9
ATOM      9  C   UNL     1      49.527   6.785  15.470  0.00  0.00    +0.000 C 
BRANCH   9   7
ATOM      4  C   UNL     1      49.348   9.605  19.281  0.00  0.00    +0.000 C 
ATOM      5  C   UNL     1      49.687   8.096  19.087  0.00  0.00    +0.000 C 
ATOM      6  N   UNL     1      50.013   7.795  17.687  0.00  0.00    +0.000 N 
ATOM      7  C   UNL     1      49.153   6.994  16.932  0.00  0.00    +0.000 C 
ATOM      8  O   UNL     1      48.179   6.451  17.451  0.00  0.00    +0.000 OA
ATOM     25  C   UNL     1      51.122   8.601  17.172  0.00  0.00    +0.000 C 
ATOM     26  C   UNL     1      50.845  10.101  17.389  0.00  0.00    +0.000 C 
ATOM     27  N   UNL     1      50.486  10.427  18.780  0.00  0.00    +0.000 NA
ATOM     30  H   UNL     1      50.268  11.417  18.858  0.00  0.00    +0.000 HD
BRANCH   4   2
ATOM      1  C   UNL     1      47.871  11.520  18.376  0.00  0.00    +0.000 C 
ATOM      2  C   UNL     1      47.964  10.016  18.679  0.00  0.00    +0.000 C 
ATOM      3  C   UNL     1      46.796   9.664  19.612  0.00  0.00    +0.000 C 
ENDBRANCH   4   2
ENDBRANCH   9   7
ENDBRANCH  10   9
TORSDOF 5
ENDMDL
