MODEL 1
REMARK VINA RESULT:    -7.508      0.000      0.000
REMARK INTER + INTRA:         -12.255
REMARK INTER:                 -11.458
REMARK INTRA:                  -0.797
REMARK UNBOUND:                -0.797
REMARK  Name = 
REMARK  10 active torsions:
REMARK  status: ('A' for Active; 'I' for Inactive)
REMARK    1  A    between atoms: C_1  and  C_2
REMARK    2  A    between atoms: C_2  and  C_3
REMARK    3  A    between atoms: C_3  and  C_4
REMARK    4  A    between atoms: C_4  and  C_5
REMARK    5  A    between atoms: C_5  and  N_6
REMARK    6  A    between atoms: N_6  and  C_7
REMARK    7  A    between atoms: C_7  and  C_8
REMARK    8  A    between atoms: C_11  and  C_12
REMARK    9  A    between atoms: C_12  and  N_13
REMARK   10  A    between atoms: C_14  and  C_16
REMARK                            x       y       z     vdW  Elec       q    Type
REMARK                         _______ _______ _______ _____ _____    ______ ____
ROOT
ATOM     12  C   UNL     1      44.186   3.993  12.796  0.00  0.00    +0.000 C 
ENDROOT
BRANCH  12  11
ATOM      8  C   UNL     1      45.296   3.635   8.626  0.00  0.00    +0.000 A 
ATOM      9  C   UNL     1      45.493   4.841   9.318  0.00  0.00    +0.000 A 
ATOM     10  C   UNL     1      45.142   4.956  10.665  0.00  0.00    +0.000 A 
ATOM     11  C   UNL     1      44.579   3.873  11.349  0.00  0.00    +0.000 A 
ATOM     26  C   UNL     1      44.341   2.683  10.649  0.00  0.00    +0.000 A 
ATOM     27  C   UNL     1      44.703   2.562   9.306  0.00  0.00    +0.000 A 
BRANCH   8   7
ATOM      7  C   UNL     1      45.688   3.500   7.172  0.00  0.00    +0.000 C 
BRANCH   7   6
ATOM      6  N   UNL     1      47.057   3.966   6.942  0.00  0.00    +0.000 NA
ATOM     28  H   UNL     1      47.067   4.604   6.149  0.00  0.00    +0.000 HD
BRANCH   6   5
ATOM      5  C   UNL     1      47.964   2.851   6.686  0.00  0.00    +0.000 C 
BRANCH   5   4
ATOM      4  C   UNL     1      47.172   1.679   6.102  0.00  0.00    +0.000 C 
BRANCH   4   3
ATOM      3  C   UNL     1      47.456   1.513   4.608  0.00  0.00    +0.000 C 
BRANCH   3   2
ATOM      1  C   UNL     1      45.984   0.531   2.818  0.00  0.00    +0.000 C 
ATOM      2  C   UNL     1      46.815   0.239   4.058  0.00  0.00    +0.000 C 
ENDBRANCH   3   2
ENDBRANCH   4   3
ENDBRANCH   5   4
ENDBRANCH   6   5
ENDBRANCH   7   6
ENDBRANCH   8   7
ENDBRANCH  12  11
BRANCH  12  13
ATOM     13  N   UNL     1      45.181   4.725  13.539  0.00  0.00    +0.000 N 
ATOM     14  C   UNL     1      46.347   4.131  13.941  0.00  0.00    +0.000 C 
ATOM     15  O   UNL     1      46.617   2.966  13.656  0.00  0.00    +0.000 OA
ATOM     29  H   UNL     1      44.885   5.597  13.965  0.00  0.00    +0.000 HD
BRANCH  14  16
ATOM     16  C   UNL     1      47.291   4.975  14.683  0.00  0.00    +0.000 A 
ATOM     17  C   UNL     1      47.968   5.991  14.020  0.00  0.00    +0.000 A 
ATOM     18  S   UNL     1      48.981   6.914  15.034  0.00  0.00    +0.000 S 
ATOM     19  C   UNL     1      48.591   5.959  16.386  0.00  0.00    +0.000 A 
ATOM     20  N   UNL     1      49.147   6.209  17.602  0.00  0.00    +0.000 NA
ATOM     21  C   UNL     1      48.786   5.390  18.533  0.00  0.00    +0.000 A 
ATOM     22  N   UNL     1      47.915   4.348  18.360  0.00  0.00    +0.000 N 
ATOM     23  C   UNL     1      47.310   4.072  17.156  0.00  0.00    +0.000 A 
ATOM     24  O   UNL     1      46.507   3.151  17.045  0.00  0.00    +0.000 OA
ATOM     25  C   UNL     1      47.688   4.958  16.072  0.00  0.00    +0.000 A 
ATOM     30  H   UNL     1      47.666   3.746  19.132  0.00  0.00    +0.000 HD
ENDBRANCH  14  16
ENDBRANCH  12  13
TORSDOF 9
ENDMDL
MODEL 2
REMARK VINA RESULT:    -7.401      2.021      3.078
REMARK INTER + INTRA:         -12.092
REMARK INTER:                 -10.880
REMARK INTRA:                  -1.212
REMARK UNBOUND:                -0.797
REMARK  Name = 
REMARK  10 active torsions:
REMARK  status: ('A' for Active; 'I' for Inactive)
REMARK    1  A    between atoms: C_1  and  C_2
REMARK    2  A    between atoms: C_2  and  C_3
REMARK    3  A    between atoms: C_3  and  C_4
REMARK    4  A    between atoms: C_4  and  C_5
REMARK    5  A    between atoms: C_5  and  N_6
REMARK    6  A    between atoms: N_6  and  C_7
REMARK    7  A    between atoms: C_7  and  C_8
REMARK    8  A    between atoms: C_11  and  C_12
REMARK    9  A    between atoms: C_12  and  N_13
REMARK   10  A    between atoms: C_14  and  C_16
REMARK                            x       y       z     vdW  Elec       q    Type
REMARK                         _______ _______ _______ _____ _____    ______ ____
ROOT
ATOM     12  C   UNL     1      46.702   7.900  13.219  0.00  0.00    +0.000 C 
ENDROOT
BRANCH  12  11
ATOM      8  C   UNL     1      44.782   4.899  10.760  0.00  0.00    +0.000 A 
ATOM      9  C   UNL     1      45.848   5.662  10.256  0.00  0.00    +0.000 A 
ATOM     10  C   UNL     1      46.473   6.626  11.050  0.00  0.00    +0.000 A 
ATOM     11  C   UNL     1      46.043   6.855  12.362  0.00  0.00    +0.000 A 
ATOM     26  C   UNL     1      44.951   6.126  12.851  0.00  0.00    +0.000 A 
ATOM     27  C   UNL     1      44.333   5.153  12.063  0.00  0.00    +0.000 A 
BRANCH   8   7
ATOM      7  C   UNL     1      44.111   3.844   9.908  0.00  0.00    +0.000 C 
BRANCH   7   6
ATOM      6  N   UNL     1      44.773   2.546  10.048  0.00  0.00    +0.000 NA
ATOM     28  H   UNL     1      45.537   2.628  10.715  0.00  0.00    +0.000 HD
BRANCH   6   5
ATOM      5  C   UNL     1      45.289   2.070   8.767  0.00  0.00    +0.000 C 
BRANCH   5   4
ATOM      4  C   UNL     1      45.186   3.192   7.732  0.00  0.00    +0.000 C 
BRANCH   4   3
ATOM      3  C   UNL     1      46.572   3.637   7.263  0.00  0.00    +0.000 C 
BRANCH   3   2
ATOM      1  C   UNL     1      47.126   2.302   5.203  0.00  0.00    +0.000 C 
ATOM      2  C   UNL     1      47.371   2.465   6.696  0.00  0.00    +0.000 C 
ENDBRANCH   3   2
ENDBRANCH   4   3
ENDBRANCH   5   4
ENDBRANCH   6   5
ENDBRANCH   7   6
ENDBRANCH   8   7
ENDBRANCH  12  11
BRANCH  12  13
ATOM     13  N   UNL     1      47.245   7.313  14.418  0.00  0.00    +0.000 N 
ATOM     14  C   UNL     1      48.484   6.730  14.426  0.00  0.00    +0.000 C 
ATOM     15  O   UNL     1      49.203   6.714  13.428  0.00  0.00    +0.000 OA
ATOM     29  H   UNL     1      46.593   7.124  15.172  0.00  0.00    +0.000 HD
BRANCH  14  16
ATOM     16  C   UNL     1      48.939   6.173  15.705  0.00  0.00    +0.000 A 
ATOM     17  C   UNL     1      50.016   6.755  16.360  0.00  0.00    +0.000 A 
ATOM     18  S   UNL     1      50.381   6.027  17.858  0.00  0.00    +0.000 S 
ATOM     19  C   UNL     1      49.145   4.876  17.662  0.00  0.00    +0.000 A 
ATOM     20  N   UNL     1      48.927   3.918  18.604  0.00  0.00    +0.000 NA
ATOM     21  C   UNL     1      47.977   3.092  18.316  0.00  0.00    +0.000 A 
ATOM     22  N   UNL     1      47.223   3.140  17.174  0.00  0.00    +0.000 N 
ATOM     23  C   UNL     1      47.391   4.103  16.207  0.00  0.00    +0.000 A 
ATOM     24  O   UNL     1      46.674   4.136  15.212  0.00  0.00    +0.000 OA
ATOM     25  C   UNL     1      48.453   5.052  16.477  0.00  0.00    +0.000 A 
ATOM     30  H   UNL     1      46.487   2.467  17.010  0.00  0.00    +0.000 HD
ENDBRANCH  14  16
ENDBRANCH  12  13
TORSDOF 9
ENDMDL
MODEL 3
REMARK VINA RESULT:    -6.991      2.390      3.532
REMARK INTER + INTRA:         -11.467
REMARK INTER:                 -10.524
REMARK INTRA:                  -0.943
REMARK UNBOUND:                -0.797
REMARK  Name = 
REMARK  10 active torsions:
REMARK  status: ('A' for Active; 'I' for Inactive)
REMARK    1  A    between atoms: C_1  and  C_2
REMARK    2  A    between atoms: C_2  and  C_3
REMARK    3  A    between atoms: C_3  and  C_4
REMARK    4  A    between atoms: C_4  and  C_5
REMARK    5  A    between atoms: C_5  and  N_6
REMARK    6  A    between atoms: N_6  and  C_7
REMARK    7  A    between atoms: C_7  and  C_8
REMARK    8  A    between atoms: C_11  and  C_12
REMARK    9  A    between atoms: C_12  and  N_13
REMARK   10  A    between atoms: C_14  and  C_16
REMARK                            x       y       z     vdW  Elec       q    Type
REMARK                         _______ _______ _______ _____ _____    ______ ____
ROOT
ATOM     12  C   UNL     1      47.406   6.666  13.516  0.00  0.00    +0.000 C 
ENDROOT
BRANCH  12  11
ATOM      8  C   UNL     1      44.945   4.315  10.840  0.00  0.00    +0.000 A 
ATOM      9  C   UNL     1      45.206   3.871  12.147  0.00  0.00    +0.000 A 
ATOM     10  C   UNL     1      45.994   4.632  13.014  0.00  0.00    +0.000 A 
ATOM     11  C   UNL     1      46.545   5.848  12.593  0.00  0.00    +0.000 A 
ATOM     26  C   UNL     1      46.322   6.269  11.276  0.00  0.00    +0.000 A 
ATOM     27  C   UNL     1      45.524   5.516  10.412  0.00  0.00    +0.000 A 
BRANCH   8   7
ATOM      7  C   UNL     1      44.080   3.502   9.903  0.00  0.00    +0.000 C 
BRANCH   7   6
ATOM      6  N   UNL     1      44.592   2.139   9.750  0.00  0.00    +0.000 NA
ATOM     28  H   UNL     1      44.986   1.827  10.634  0.00  0.00    +0.000 HD
BRANCH   6   5
ATOM      5  C   UNL     1      45.611   2.067   8.706  0.00  0.00    +0.000 C 
BRANCH   5   4
ATOM      4  C   UNL     1      45.330   3.136   7.649  0.00  0.00    +0.000 C 
BRANCH   4   3
ATOM      3  C   UNL     1      46.631   3.710   7.085  0.00  0.00    +0.000 C 
BRANCH   3   2
ATOM      1  C   UNL     1      47.435   2.203   5.238  0.00  0.00    +0.000 C 
ATOM      2  C   UNL     1      47.605   2.599   6.696  0.00  0.00    +0.000 C 
ENDBRANCH   3   2
ENDBRANCH   4   3
ENDBRANCH   5   4
ENDBRANCH   6   5
ENDBRANCH   7   6
ENDBRANCH   8   7
ENDBRANCH  12  11
BRANCH  12  13
ATOM     13  N   UNL     1      47.445   6.083  14.833  0.00  0.00    +0.000 N 
ATOM     14  C   UNL     1      48.597   6.078  15.574  0.00  0.00    +0.000 C 
ATOM     15  O   UNL     1      49.633   6.603  15.171  0.00  0.00    +0.000 OA
ATOM     29  H   UNL     1      46.681   5.464  15.084  0.00  0.00    +0.000 HD
BRANCH  14  16
ATOM     16  C   UNL     1      48.518   5.465  16.905  0.00  0.00    +0.000 A 
ATOM     17  C   UNL     1      48.639   4.088  17.032  0.00  0.00    +0.000 A 
ATOM     18  S   UNL     1      48.585   3.541  18.646  0.00  0.00    +0.000 S 
ATOM     19  C   UNL     1      48.346   5.120  19.231  0.00  0.00    +0.000 A 
ATOM     20  N   UNL     1      48.197   5.358  20.562  0.00  0.00    +0.000 NA
ATOM     21  C   UNL     1      47.995   6.596  20.865  0.00  0.00    +0.000 A 
ATOM     22  N   UNL     1      47.933   7.620  19.958  0.00  0.00    +0.000 N 
ATOM     23  C   UNL     1      48.102   7.432  18.606  0.00  0.00    +0.000 A 
ATOM     24  O   UNL     1      48.074   8.378  17.825  0.00  0.00    +0.000 OA
ATOM     25  C   UNL     1      48.323   6.055  18.210  0.00  0.00    +0.000 A 
ATOM     30  H   UNL     1      47.779   8.572  20.259  0.00  0.00    +0.000 HD
ENDBRANCH  14  16
ENDBRANCH  12  13
TORSDOF 9
ENDMDL
MODEL 4
REMARK VINA RESULT:    -6.805      4.758      9.984
REMARK INTER + INTRA:         -11.182
REMARK INTER:                  -9.421
REMARK INTRA:                  -1.761
REMARK UNBOUND:                -0.797
REMARK  Name = 
REMARK  10 active torsions:
REMARK  status: ('A' for Active; 'I' for Inactive)
REMARK    1  A    between atoms: C_1  and  C_2
REMARK    2  A    between atoms: C_2  and  C_3
REMARK    3  A    between atoms: C_3  and  C_4
REMARK    4  A    between atoms: C_4  and  C_5
REMARK    5  A    between atoms: C_5  and  N_6
REMARK    6  A    between atoms: N_6  and  C_7
REMARK    7  A    between atoms: C_7  and  C_8
REMARK    8  A    between atoms: C_11  and  C_12
REMARK    9  A    between atoms: C_12  and  N_13
REMARK   10  A    between atoms: C_14  and  C_16
REMARK                            x       y       z     vdW  Elec       q    Type
REMARK                         _______ _______ _______ _____ _____    ______ ____
ROOT
ATOM     12  C   UNL     1      47.320   3.612  16.807  0.00  0.00    +0.000 C 
ENDROOT
BRANCH  12  11
ATOM      8  C   UNL     1      51.510   4.295  17.653  0.00  0.00    +0.000 A 
ATOM      9  C   UNL     1      50.657   5.369  17.354  0.00  0.00    +0.000 A 
ATOM     10  C   UNL     1      49.303   5.151  17.088  0.00  0.00    +0.000 A 
ATOM     11  C   UNL     1      48.773   3.856  17.106  0.00  0.00    +0.000 A 
ATOM     26  C   UNL     1      49.633   2.779  17.360  0.00  0.00    +0.000 A 
ATOM     27  C   UNL     1      50.984   2.996  17.640  0.00  0.00    +0.000 A 
BRANCH   8   7
ATOM      7  C   UNL     1      52.974   4.527  17.958  0.00  0.00    +0.000 C 
BRANCH   7   6
ATOM      6  N   UNL     1      53.303   4.133  19.328  0.00  0.00    +0.000 NA
ATOM     28  H   UNL     1      52.792   3.286  19.567  0.00  0.00    +0.000 HD
BRANCH   6   5
ATOM      5  C   UNL     1      52.974   5.189  20.281  0.00  0.00    +0.000 C 
BRANCH   5   4
ATOM      4  C   UNL     1      51.865   4.700  21.216  0.00  0.00    +0.000 C 
BRANCH   4   3
ATOM      3  C   UNL     1      50.605   5.555  21.071  0.00  0.00    +0.000 C 
BRANCH   3   2
ATOM      1  C   UNL     1      48.112   5.369  21.354  0.00  0.00    +0.000 C 
ATOM      2  C   UNL     1      49.369   4.688  20.835  0.00  0.00    +0.000 C 
ENDBRANCH   3   2
ENDBRANCH   4   3
ENDBRANCH   5   4
ENDBRANCH   6   5
ENDBRANCH   7   6
ENDBRANCH   8   7
ENDBRANCH  12  11
BRANCH  12  13
ATOM     13  N   UNL     1      46.830   4.556  15.834  0.00  0.00    +0.000 N 
ATOM     14  C   UNL     1      46.828   4.261  14.497  0.00  0.00    +0.000 C 
ATOM     15  O   UNL     1      47.203   3.172  14.069  0.00  0.00    +0.000 OA
ATOM     29  H   UNL     1      46.728   5.518  16.139  0.00  0.00    +0.000 HD
BRANCH  14  16
ATOM     16  C   UNL     1      46.297   5.294  13.599  0.00  0.00    +0.000 A 
ATOM     17  C   UNL     1      47.059   6.423  13.330  0.00  0.00    +0.000 A 
ATOM     18  S   UNL     1      46.327   7.496  12.225  0.00  0.00    +0.000 S 
ATOM     19  C   UNL     1      44.944   6.514  12.104  0.00  0.00    +0.000 A 
ATOM     20  N   UNL     1      43.896   6.877  11.315  0.00  0.00    +0.000 NA
ATOM     21  C   UNL     1      42.900   6.056  11.338  0.00  0.00    +0.000 A 
ATOM     22  N   UNL     1      42.858   4.903  12.076  0.00  0.00    +0.000 N 
ATOM     23  C   UNL     1      43.901   4.484  12.868  0.00  0.00    +0.000 A 
ATOM     24  O   UNL     1      43.842   3.427  13.489  0.00  0.00    +0.000 OA
ATOM     25  C   UNL     1      45.044   5.376  12.885  0.00  0.00    +0.000 A 
ATOM     30  H   UNL     1      42.050   4.297  12.045  0.00  0.00    +0.000 HD
ENDBRANCH  14  16
ENDBRANCH  12  13
TORSDOF 9
ENDMDL
MODEL 5
REMARK VINA RESULT:    -6.734      2.537      3.521
REMARK INTER + INTRA:         -11.075
REMARK INTER:                 -10.054
REMARK INTRA:                  -1.021
REMARK UNBOUND:                -0.797
REMARK  Name = 
REMARK  10 active torsions:
REMARK  status: ('A' for Active; 'I' for Inactive)
REMARK    1  A    between atoms: C_1  and  C_2
REMARK    2  A    between atoms: C_2  and  C_3
REMARK    3  A    between atoms: C_3  and  C_4
REMARK    4  A    between atoms: C_4  and  C_5
REMARK    5  A    between atoms: C_5  and  N_6
REMARK    6  A    between atoms: N_6  and  C_7
REMARK    7  A    between atoms: C_7  and  C_8
REMARK    8  A    between atoms: C_11  and  C_12
REMARK    9  A    between atoms: C_12  and  N_13
REMARK   10  A    between atoms: C_14  and  C_16
REMARK                            x       y       z     vdW  Elec       q    Type
REMARK                         _______ _______ _______ _____ _____    ______ ____
ROOT
ATOM     12  C   UNL     1      44.644   6.265  12.942  0.00  0.00    +0.000 C 
ENDROOT
BRANCH  12  11
ATOM      8  C   UNL     1      44.787   3.443   9.662  0.00  0.00    +0.000 A 
ATOM      9  C   UNL     1      45.354   4.721   9.531  0.00  0.00    +0.000 A 
ATOM     10  C   UNL     1      45.315   5.630  10.590  0.00  0.00    +0.000 A 
ATOM     11  C   UNL     1      44.702   5.287  11.801  0.00  0.00    +0.000 A 
ATOM     26  C   UNL     1      44.097   4.029  11.917  0.00  0.00    +0.000 A 
ATOM     27  C   UNL     1      44.147   3.113  10.864  0.00  0.00    +0.000 A 
BRANCH   8   7
ATOM      7  C   UNL     1      44.840   2.449   8.523  0.00  0.00    +0.000 C 
BRANCH   7   6
ATOM      6  N   UNL     1      45.854   1.419   8.759  0.00  0.00    +0.000 NA
ATOM     28  H   UNL     1      46.428   1.689   9.555  0.00  0.00    +0.000 HD
BRANCH   6   5
ATOM      5  C   UNL     1      46.701   1.226   7.586  0.00  0.00    +0.000 C 
BRANCH   5   4
ATOM      4  C   UNL     1      47.012   2.586   6.957  0.00  0.00    +0.000 C 
BRANCH   4   3
ATOM      3  C   UNL     1      47.390   2.437   5.482  0.00  0.00    +0.000 C 
BRANCH   3   2
ATOM      1  C   UNL     1      46.664   0.827   3.690  0.00  0.00    +0.000 C 
ATOM      2  C   UNL     1      47.346   0.975   5.041  0.00  0.00    +0.000 C 
ENDBRANCH   3   2
ENDBRANCH   4   3
ENDBRANCH   5   4
ENDBRANCH   6   5
ENDBRANCH   7   6
ENDBRANCH   8   7
ENDBRANCH  12  11
BRANCH  12  13
ATOM     13  N   UNL     1      45.960   6.752  13.268  0.00  0.00    +0.000 N 
ATOM     14  C   UNL     1      46.848   5.984  13.972  0.00  0.00    +0.000 C 
ATOM     15  O   UNL     1      46.581   4.836  14.323  0.00  0.00    +0.000 OA
ATOM     29  H   UNL     1      46.114   7.752  13.184  0.00  0.00    +0.000 HD
BRANCH  14  16
ATOM     16  C   UNL     1      48.163   6.578  14.239  0.00  0.00    +0.000 A 
ATOM     17  C   UNL     1      48.688   6.529  15.523  0.00  0.00    +0.000 A 
ATOM     18  S   UNL     1      50.246   7.210  15.654  0.00  0.00    +0.000 S 
ATOM     19  C   UNL     1      50.255   7.640  14.009  0.00  0.00    +0.000 A 
ATOM     20  N   UNL     1      51.317   8.291  13.462  0.00  0.00    +0.000 NA
ATOM     21  C   UNL     1      51.181   8.583  12.212  0.00  0.00    +0.000 A 
ATOM     22  N   UNL     1      50.080   8.278  11.457  0.00  0.00    +0.000 N 
ATOM     23  C   UNL     1      48.993   7.601  11.959  0.00  0.00    +0.000 A 
ATOM     24  O   UNL     1      48.038   7.314  11.245  0.00  0.00    +0.000 OA
ATOM     25  C   UNL     1      49.091   7.257  13.364  0.00  0.00    +0.000 A 
ATOM     30  H   UNL     1      50.036   8.527  10.479  0.00  0.00    +0.000 HD
ENDBRANCH  14  16
ENDBRANCH  12  13
TORSDOF 9
ENDMDL
MODEL 6
REMARK VINA RESULT:    -6.580      4.790      9.632
REMARK INTER + INTRA:         -10.840
REMARK INTER:                  -8.693
REMARK INTRA:                  -2.147
REMARK UNBOUND:                -0.797
REMARK  Name = 
REMARK  10 active torsions:
REMARK  status: ('A' for Active; 'I' for Inactive)
REMARK    1  A    between atoms: C_1  and  C_2
REMARK    2  A    between atoms: C_2  and  C_3
REMARK    3  A    between atoms: C_3  and  C_4
REMARK    4  A    between atoms: C_4  and  C_5
REMARK    5  A    between atoms: C_5  and  N_6
REMARK    6  A    between atoms: N_6  and  C_7
REMARK    7  A    between atoms: C_7  and  C_8
REMARK    8  A    between atoms: C_11  and  C_12
REMARK    9  A    between atoms: C_12  and  N_13
REMARK   10  A    between atoms: C_14  and  C_16
REMARK                            x       y       z     vdW  Elec       q    Type
REMARK                         _______ _______ _______ _____ _____    ______ ____
ROOT
ATOM     12  C   UNL     1      47.425   3.531  16.464  0.00  0.00    +0.000 C 
ENDROOT
BRANCH  12  11
ATOM      8  C   UNL     1      49.169   5.558  19.869  0.00  0.00    +0.000 A 
ATOM      9  C   UNL     1      49.940   4.685  19.085  0.00  0.00    +0.000 A 
ATOM     10  C   UNL     1      49.381   4.036  17.981  0.00  0.00    +0.000 A 
ATOM     11  C   UNL     1      48.038   4.237  17.643  0.00  0.00    +0.000 A 
ATOM     26  C   UNL     1      47.256   5.072  18.451  0.00  0.00    +0.000 A 
ATOM     27  C   UNL     1      47.817   5.732  19.546  0.00  0.00    +0.000 A 
BRANCH   8   7
ATOM      7  C   UNL     1      49.774   6.275  21.056  0.00  0.00    +0.000 C 
BRANCH   7   6
ATOM      6  N   UNL     1      49.618   7.726  20.939  0.00  0.00    +0.000 NA
ATOM     28  H   UNL     1      48.673   7.938  20.627  0.00  0.00    +0.000 HD
BRANCH   6   5
ATOM      5  C   UNL     1      50.584   8.292  20.001  0.00  0.00    +0.000 C 
BRANCH   5   4
ATOM      4  C   UNL     1      49.835   8.942  18.836  0.00  0.00    +0.000 C 
BRANCH   4   3
ATOM      3  C   UNL     1      50.275   8.347  17.497  0.00  0.00    +0.000 C 
BRANCH   3   2
ATOM      1  C   UNL     1      49.545   6.906  15.568  0.00  0.00    +0.000 C 
ATOM      2  C   UNL     1      49.086   7.789  16.718  0.00  0.00    +0.000 C 
ENDBRANCH   3   2
ENDBRANCH   4   3
ENDBRANCH   5   4
ENDBRANCH   6   5
ENDBRANCH   7   6
ENDBRANCH   8   7
ENDBRANCH  12  11
BRANCH  12  13
ATOM     13  N   UNL     1      46.775   4.469  15.585  0.00  0.00    +0.000 N 
ATOM     14  C   UNL     1      46.843   4.333  14.224  0.00  0.00    +0.000 C 
ATOM     15  O   UNL     1      47.424   3.389  13.692  0.00  0.00    +0.000 OA
ATOM     29  H   UNL     1      46.488   5.354  15.990  0.00  0.00    +0.000 HD
BRANCH  14  16
ATOM     16  C   UNL     1      46.135   5.342  13.428  0.00  0.00    +0.000 A 
ATOM     17  C   UNL     1      46.725   6.579  13.210  0.00  0.00    +0.000 A 
ATOM     18  S   UNL     1      45.802   7.615  12.219  0.00  0.00    +0.000 S 
ATOM     19  C   UNL     1      44.556   6.465  12.085  0.00  0.00    +0.000 A 
ATOM     20  N   UNL     1      43.431   6.734  11.369  0.00  0.00    +0.000 NA
ATOM     21  C   UNL     1      42.555   5.785  11.373  0.00  0.00    +0.000 A 
ATOM     22  N   UNL     1      42.704   4.590  12.025  0.00  0.00    +0.000 N 
ATOM     23  C   UNL     1      43.833   4.264  12.740  0.00  0.00    +0.000 A 
ATOM     24  O   UNL     1      43.947   3.170  13.283  0.00  0.00    +0.000 OA
ATOM     25  C   UNL     1      44.846   5.301  12.775  0.00  0.00    +0.000 A 
ATOM     30  H   UNL     1      41.983   3.883  11.984  0.00  0.00    +0.000 HD
ENDBRANCH  14  16
ENDBRANCH  12  13
TORSDOF 9
ENDMDL
MODEL 7
REMARK VINA RESULT:    -6.389      4.735      9.885
REMARK INTER + INTRA:         -10.548
REMARK INTER:                  -9.255
REMARK INTRA:                  -1.293
REMARK UNBOUND:                -0.797
REMARK  Name = 
REMARK  10 active torsions:
REMARK  status: ('A' for Active; 'I' for Inactive)
REMARK    1  A    between atoms: C_1  and  C_2
REMARK    2  A    between atoms: C_2  and  C_3
REMARK    3  A    between atoms: C_3  and  C_4
REMARK    4  A    between atoms: C_4  and  C_5
REMARK    5  A    between atoms: C_5  and  N_6
REMARK    6  A    between atoms: N_6  and  C_7
REMARK    7  A    between atoms: C_7  and  C_8
REMARK    8  A    between atoms: C_11  and  C_12
REMARK    9  A    between atoms: C_12  and  N_13
REMARK   10  A    between atoms: C_14  and  C_16
REMARK                            x       y       z     vdW  Elec       q    Type
REMARK                         _______ _______ _______ _____ _____    ______ ____
ROOT
ATOM     12  C   UNL     1      47.258   3.502  17.000  0.00  0.00    +0.000 C 
ENDROOT
BRANCH  12  11
ATOM      8  C   UNL     1      51.516   3.092  17.668  0.00  0.00    +0.000 A 
ATOM      9  C   UNL     1      50.761   2.013  17.183  0.00  0.00    +0.000 A 
ATOM     10  C   UNL     1      49.388   2.145  16.960  0.00  0.00    +0.000 A 
ATOM     11  C   UNL     1      48.738   3.356  17.224  0.00  0.00    +0.000 A 
ATOM     26  C   UNL     1      49.482   4.420  17.750  0.00  0.00    +0.000 A 
ATOM     27  C   UNL     1      50.856   4.293  17.961  0.00  0.00    +0.000 A 
BRANCH   8   7
ATOM      7  C   UNL     1      53.005   2.959  17.896  0.00  0.00    +0.000 C 
BRANCH   7   6
ATOM      6  N   UNL     1      53.294   2.337  19.189  0.00  0.00    +0.000 NA
ATOM     28  H   UNL     1      52.468   1.839  19.514  0.00  0.00    +0.000 HD
BRANCH   6   5
ATOM      5  C   UNL     1      53.689   3.331  20.183  0.00  0.00    +0.000 C 
BRANCH   5   4
ATOM      4  C   UNL     1      54.455   4.461  19.491  0.00  0.00    +0.000 C 
BRANCH   4   3
ATOM      3  C   UNL     1      54.221   5.798  20.196  0.00  0.00    +0.000 C 
BRANCH   3   2
ATOM      1  C   UNL     1      53.751   6.606  17.859  0.00  0.00    +0.000 C 
ATOM      2  C   UNL     1      53.392   6.746  19.330  0.00  0.00    +0.000 C 
ENDBRANCH   3   2
ENDBRANCH   4   3
ENDBRANCH   5   4
ENDBRANCH   6   5
ENDBRANCH   7   6
ENDBRANCH   8   7
ENDBRANCH  12  11
BRANCH  12  13
ATOM     13  N   UNL     1      46.987   4.494  15.990  0.00  0.00    +0.000 N 
ATOM     14  C   UNL     1      47.043   4.185  14.658  0.00  0.00    +0.000 C 
ATOM     15  O   UNL     1      47.286   3.046  14.262  0.00  0.00    +0.000 OA
ATOM     29  H   UNL     1      47.005   5.465  16.285  0.00  0.00    +0.000 HD
BRANCH  14  16
ATOM     16  C   UNL     1      46.740   5.271  13.719  0.00  0.00    +0.000 A 
ATOM     17  C   UNL     1      47.703   6.235  13.454  0.00  0.00    +0.000 A 
ATOM     18  S   UNL     1      47.216   7.393  12.301  0.00  0.00    +0.000 S 
ATOM     19  C   UNL     1      45.681   6.676  12.150  0.00  0.00    +0.000 A 
ATOM     20  N   UNL     1      44.744   7.201  11.314  0.00  0.00    +0.000 NA
ATOM     21  C   UNL     1      43.614   6.576  11.318  0.00  0.00    +0.000 A 
ATOM     22  N   UNL     1      43.338   5.470  12.077  0.00  0.00    +0.000 N 
ATOM     23  C   UNL     1      44.261   4.890  12.917  0.00  0.00    +0.000 A 
ATOM     24  O   UNL     1      43.990   3.880  13.557  0.00  0.00    +0.000 OA
ATOM     25  C   UNL     1      45.546   5.560  12.957  0.00  0.00    +0.000 A 
ATOM     30  H   UNL     1      42.435   5.020  12.030  0.00  0.00    +0.000 HD
ENDBRANCH  14  16
ENDBRANCH  12  13
TORSDOF 9
ENDMDL
MODEL 8
REMARK VINA RESULT:    -6.343      4.024      5.685
REMARK INTER + INTRA:         -10.478
REMARK INTER:                  -9.659
REMARK INTRA:                  -0.820
REMARK UNBOUND:                -0.797
REMARK  Name = 
REMARK  10 active torsions:
REMARK  status: ('A' for Active; 'I' for Inactive)
REMARK    1  A    between atoms: C_1  and  C_2
REMARK    2  A    between atoms: C_2  and  C_3
REMARK    3  A    between atoms: C_3  and  C_4
REMARK    4  A    between atoms: C_4  and  C_5
REMARK    5  A    between atoms: C_5  and  N_6
REMARK    6  A    between atoms: N_6  and  C_7
REMARK    7  A    between atoms: C_7  and  C_8
REMARK    8  A    between atoms: C_11  and  C_12
REMARK    9  A    between atoms: C_12  and  N_13
REMARK   10  A    between atoms: C_14  and  C_16
REMARK                            x       y       z     vdW  Elec       q    Type
REMARK                         _______ _______ _______ _____ _____    ______ ____
ROOT
ATOM     12  C   UNL     1      47.626   6.230  14.211  0.00  0.00    +0.000 C 
ENDROOT
BRANCH  12  11
ATOM      8  C   UNL     1      44.600   3.793  12.299  0.00  0.00    +0.000 A 
ATOM      9  C   UNL     1      44.421   5.178  12.437  0.00  0.00    +0.000 A 
ATOM     10  C   UNL     1      45.399   5.968  13.047  0.00  0.00    +0.000 A 
ATOM     11  C   UNL     1      46.574   5.389  13.540  0.00  0.00    +0.000 A 
ATOM     26  C   UNL     1      46.735   4.001  13.443  0.00  0.00    +0.000 A 
ATOM     27  C   UNL     1      45.764   3.212  12.822  0.00  0.00    +0.000 A 
BRANCH   8   7
ATOM      7  C   UNL     1      43.551   2.937  11.625  0.00  0.00    +0.000 C 
BRANCH   7   6
ATOM      6  N   UNL     1      43.452   3.239  10.196  0.00  0.00    +0.000 NA
ATOM     28  H   UNL     1      42.659   2.739   9.801  0.00  0.00    +0.000 HD
BRANCH   6   5
ATOM      5  C   UNL     1      44.671   2.865   9.486  0.00  0.00    +0.000 C 
BRANCH   5   4
ATOM      4  C   UNL     1      44.935   3.874   8.367  0.00  0.00    +0.000 C 
BRANCH   4   3
ATOM      3  C   UNL     1      45.950   3.328   7.361  0.00  0.00    +0.000 C 
BRANCH   3   2
ATOM      1  C   UNL     1      47.694   1.548   7.015  0.00  0.00    +0.000 C 
ATOM      2  C   UNL     1      46.414   1.924   7.745  0.00  0.00    +0.000 C 
ENDBRANCH   3   2
ENDBRANCH   4   3
ENDBRANCH   5   4
ENDBRANCH   6   5
ENDBRANCH   7   6
ENDBRANCH   8   7
ENDBRANCH  12  11
BRANCH  12  13
ATOM     13  N   UNL     1      47.594   7.582  13.715  0.00  0.00    +0.000 N 
ATOM     14  C   UNL     1      48.292   7.945  12.594  0.00  0.00    +0.000 C 
ATOM     15  O   UNL     1      48.942   7.132  11.940  0.00  0.00    +0.000 OA
ATOM     29  H   UNL     1      47.255   8.296  14.352  0.00  0.00    +0.000 HD
BRANCH  14  16
ATOM     16  C   UNL     1      48.179   9.347  12.176  0.00  0.00    +0.000 A 
ATOM     17  C   UNL     1      49.326  10.060  11.856  0.00  0.00    +0.000 A 
ATOM     18  S   UNL     1      49.020  11.655  11.335  0.00  0.00    +0.000 S 
ATOM     19  C   UNL     1      47.346  11.466  11.566  0.00  0.00    +0.000 A 
ATOM     20  N   UNL     1      46.486  12.491  11.316  0.00  0.00    +0.000 NA
ATOM     21  C   UNL     1      45.248  12.222  11.561  0.00  0.00    +0.000 A 
ATOM     22  N   UNL     1      44.789  11.019  12.028  0.00  0.00    +0.000 N 
ATOM     23  C   UNL     1      45.617   9.947  12.271  0.00  0.00    +0.000 A 
ATOM     24  O   UNL     1      45.168   8.873  12.656  0.00  0.00    +0.000 OA
ATOM     25  C   UNL     1      47.023  10.200  12.021  0.00  0.00    +0.000 A 
ATOM     30  H   UNL     1      43.804  10.867  12.193  0.00  0.00    +0.000 HD
ENDBRANCH  14  16
ENDBRANCH  12  13
TORSDOF 9
ENDMDL
MODEL 9
REMARK VINA RESULT:    -6.098      2.391      3.986
REMARK INTER + INTRA:         -10.104
REMARK INTER:                  -9.083
REMARK INTRA:                  -1.021
REMARK UNBOUND:                -0.797
REMARK  Name = 
REMARK  10 active torsions:
REMARK  status: ('A' for Active; 'I' for Inactive)
REMARK    1  A    between atoms: C_1  and  C_2
REMARK    2  A    between atoms: C_2  and  C_3
REMARK    3  A    between atoms: C_3  and  C_4
REMARK    4  A    between atoms: C_4  and  C_5
REMARK    5  A    between atoms: C_5  and  N_6
REMARK    6  A    between atoms: N_6  and  C_7
REMARK    7  A    between atoms: C_7  and  C_8
REMARK    8  A    between atoms: C_11  and  C_12
REMARK    9  A    between atoms: C_12  and  N_13
REMARK   10  A    between atoms: C_14  and  C_16
REMARK                            x       y       z     vdW  Elec       q    Type
REMARK                         _______ _______ _______ _____ _____    ______ ____
ROOT
ATOM     12  C   UNL     1      48.061   7.248  13.277  0.00  0.00    +0.000 C 
ENDROOT
BRANCH  12  11
ATOM      8  C   UNL     1      44.988   4.367  12.274  0.00  0.00    +0.000 A 
ATOM      9  C   UNL     1      45.759   4.215  13.438  0.00  0.00    +0.000 A 
ATOM     10  C   UNL     1      46.746   5.147  13.767  0.00  0.00    +0.000 A 
ATOM     11  C   UNL     1      46.991   6.247  12.937  0.00  0.00    +0.000 A 
ATOM     26  C   UNL     1      46.253   6.376  11.753  0.00  0.00    +0.000 A 
ATOM     27  C   UNL     1      45.257   5.452  11.430  0.00  0.00    +0.000 A 
BRANCH   8   7
ATOM      7  C   UNL     1      43.907   3.369  11.922  0.00  0.00    +0.000 C 
BRANCH   7   6
ATOM      6  N   UNL     1      43.551   3.445  10.504  0.00  0.00    +0.000 NA
ATOM     28  H   UNL     1      42.562   3.234  10.394  0.00  0.00    +0.000 HD
BRANCH   6   5
ATOM      5  C   UNL     1      44.344   2.514   9.705  0.00  0.00    +0.000 C 
BRANCH   5   4
ATOM      4  C   UNL     1      44.861   3.233   8.457  0.00  0.00    +0.000 C 
BRANCH   4   3
ATOM      3  C   UNL     1      45.902   2.385   7.725  0.00  0.00    +0.000 C 
BRANCH   3   2
ATOM      1  C   UNL     1      48.134   2.445   6.564  0.00  0.00    +0.000 C 
ATOM      2  C   UNL     1      46.930   3.261   7.010  0.00  0.00    +0.000 C 
ENDBRANCH   3   2
ENDBRANCH   4   3
ENDBRANCH   5   4
ENDBRANCH   6   5
ENDBRANCH   7   6
ENDBRANCH   8   7
ENDBRANCH  12  11
BRANCH  12  13
ATOM     13  N   UNL     1      48.318   7.263  14.695  0.00  0.00    +0.000 N 
ATOM     14  C   UNL     1      49.582   7.447  15.186  0.00  0.00    +0.000 C 
ATOM     15  O   UNL     1      50.546   7.646  14.448  0.00  0.00    +0.000 OA
ATOM     29  H   UNL     1      47.592   6.887  15.296  0.00  0.00    +0.000 HD
BRANCH  14  16
ATOM     16  C   UNL     1      49.724   7.454  16.647  0.00  0.00    +0.000 A 
ATOM     17  C   UNL     1      50.152   8.609  17.287  0.00  0.00    +0.000 A 
ATOM     18  S   UNL     1      50.208   8.471  18.985  0.00  0.00    +0.000 S 
ATOM     19  C   UNL     1      49.711   6.846  18.924  0.00  0.00    +0.000 A 
ATOM     20  N   UNL     1      49.574   6.114  20.063  0.00  0.00    +0.000 NA
ATOM     21  C   UNL     1      49.218   4.888  19.870  0.00  0.00    +0.000 A 
ATOM     22  N   UNL     1      48.982   4.329  18.643  0.00  0.00    +0.000 N 
ATOM     23  C   UNL     1      49.084   5.036  17.467  0.00  0.00    +0.000 A 
ATOM     24  O   UNL     1      48.831   4.512  16.387  0.00  0.00    +0.000 OA
ATOM     25  C   UNL     1      49.490   6.418  17.627  0.00  0.00    +0.000 A 
ATOM     30  H   UNL     1      48.698   3.363  18.559  0.00  0.00    +0.000 HD
ENDBRANCH  14  16
ENDBRANCH  12  13
TORSDOF 9
ENDMDL
