MODEL 1
REMARK VINA RESULT:    -6.458      0.000      0.000
REMARK INTER + INTRA:          -6.898
REMARK INTER:                  -6.836
REMARK INTRA:                  -0.062
REMARK UNBOUND:                -0.062
REMARK  Name = 
REMARK  1 active torsions:
REMARK  status: ('A' for Active; 'I' for Inactive)
REMARK    1  A    between atoms: C_2  and  C_4
REMARK                            x       y       z     vdW  Elec       q    Type
REMARK                         _______ _______ _______ _____ _____    ______ ____
ROOT
ATOM      4  C   UNL     1      46.117   2.058   8.150  0.00  0.00    +0.000 A 
ATOM      5  C   UNL     1      46.180   3.368   7.665  0.00  0.00    +0.000 A 
ATOM      6  C   UNL     1      45.421   4.383   8.257  0.00  0.00    +0.000 A 
ATOM      7  C   UNL     1      44.605   4.090   9.368  0.00  0.00    +0.000 A 
ATOM      8  N   UNL     1      43.829   4.998  10.067  0.00  0.00    +0.000 NA
ATOM      9  C   UNL     1      43.241   4.406  11.074  0.00  0.00    +0.000 A 
ATOM     10  N   UNL     1      42.469   5.061  11.954  0.00  0.00    +0.000 N 
ATOM     11  S   UNL     1      43.513   2.720  11.207  0.00  0.00    +0.000 S 
ATOM     12  C   UNL     1      44.563   2.779   9.844  0.00  0.00    +0.000 A 
ATOM     13  C   UNL     1      45.304   1.740   9.249  0.00  0.00    +0.000 A 
ATOM     16  H   UNL     1      42.171   5.995  11.698  0.00  0.00    +0.000 HD
ATOM     17  H   UNL     1      41.829   4.543  12.543  0.00  0.00    +0.000 HD
ENDROOT
BRANCH   4   2
ATOM      1  N   UNL     1      47.935   1.468   6.639  0.00  0.00    +0.000 N 
ATOM      2  C   UNL     1      46.961   1.027   7.490  0.00  0.00    +0.000 C 
ATOM      3  O   UNL     1      46.815  -0.167   7.723  0.00  0.00    +0.000 OA
ATOM     14  H   UNL     1      48.567   0.760   6.286  0.00  0.00    +0.000 HD
ATOM     15  H   UNL     1      48.249   2.425   6.622  0.00  0.00    +0.000 HD
ENDBRANCH   4   2
TORSDOF 1
ENDMDL
MODEL 2
REMARK VINA RESULT:    -6.358      2.370      5.000
REMARK INTER + INTRA:          -6.791
REMARK INTER:                  -6.726
REMARK INTRA:                  -0.066
REMARK UNBOUND:                -0.062
REMARK  Name = 
REMARK  1 active torsions:
REMARK  status: ('A' for Active; 'I' for Inactive)
REMARK    1  A    between atoms: C_2  and  C_4
REMARK                            x       y       z     vdW  Elec       q    Type
REMARK                         _______ _______ _______ _____ _____    ______ ____
ROOT
ATOM      4  C   UNL     1      44.332   3.253  10.100  0.00  0.00    +0.000 A 
ATOM      5  C   UNL     1      44.693   4.508   9.603  0.00  0.00    +0.000 A 
ATOM      6  C   UNL     1      45.641   4.623   8.580  0.00  0.00    +0.000 A 
ATOM      7  C   UNL     1      46.218   3.463   8.027  0.00  0.00    +0.000 A 
ATOM      8  N   UNL     1      47.141   3.427   6.997  0.00  0.00    +0.000 NA
ATOM      9  C   UNL     1      47.428   2.188   6.692  0.00  0.00    +0.000 A 
ATOM     10  N   UNL     1      48.256   1.858   5.689  0.00  0.00    +0.000 N 
ATOM     11  S   UNL     1      46.679   0.991   7.662  0.00  0.00    +0.000 S 
ATOM     12  C   UNL     1      45.839   2.218   8.530  0.00  0.00    +0.000 A 
ATOM     13  C   UNL     1      44.901   2.084   9.572  0.00  0.00    +0.000 A 
ATOM     16  H   UNL     1      48.831   2.598   5.305  0.00  0.00    +0.000 HD
ATOM     17  H   UNL     1      48.658   0.929   5.656  0.00  0.00    +0.000 HD
ENDROOT
BRANCH   4   2
ATOM      1  N   UNL     1      42.746   4.378  11.568  0.00  0.00    +0.000 N 
ATOM      2  C   UNL     1      43.305   3.195  11.174  0.00  0.00    +0.000 C 
ATOM      3  O   UNL     1      42.950   2.131  11.665  0.00  0.00    +0.000 OA
ATOM     14  H   UNL     1      41.974   4.306  12.220  0.00  0.00    +0.000 HD
ATOM     15  H   UNL     1      42.820   5.223  11.023  0.00  0.00    +0.000 HD
ENDBRANCH   4   2
TORSDOF 1
ENDMDL
MODEL 3
REMARK VINA RESULT:    -6.002      1.957      2.370
REMARK INTER + INTRA:          -6.415
REMARK INTER:                  -6.360
REMARK INTRA:                  -0.055
REMARK UNBOUND:                -0.062
REMARK  Name = 
REMARK  1 active torsions:
REMARK  status: ('A' for Active; 'I' for Inactive)
REMARK    1  A    between atoms: C_2  and  C_4
REMARK                            x       y       z     vdW  Elec       q    Type
REMARK                         _______ _______ _______ _____ _____    ______ ____
ROOT
ATOM      4  C   UNL     1      45.796   3.382   8.316  0.00  0.00    +0.000 A 
ATOM      5  C   UNL     1      45.104   2.244   8.739  0.00  0.00    +0.000 A 
ATOM      6  C   UNL     1      44.282   2.290   9.871  0.00  0.00    +0.000 A 
ATOM      7  C   UNL     1      44.129   3.500  10.576  0.00  0.00    +0.000 A 
ATOM      8  N   UNL     1      43.329   3.696  11.688  0.00  0.00    +0.000 NA
ATOM      9  C   UNL     1      43.374   4.948  12.061  0.00  0.00    +0.000 A 
ATOM     10  N   UNL     1      42.650   5.432  13.081  0.00  0.00    +0.000 N 
ATOM     11  S   UNL     1      44.430   5.954  11.160  0.00  0.00    +0.000 S 
ATOM     12  C   UNL     1      44.820   4.628  10.133  0.00  0.00    +0.000 A 
ATOM     13  C   UNL     1      45.666   4.596   9.008  0.00  0.00    +0.000 A 
ATOM     16  H   UNL     1      42.225   4.755  13.703  0.00  0.00    +0.000 HD
ATOM     17  H   UNL     1      42.907   6.315  13.504  0.00  0.00    +0.000 HD
ENDROOT
BRANCH   4   2
ATOM      1  N   UNL     1      47.489   2.209   7.015  0.00  0.00    +0.000 N 
ATOM      2  C   UNL     1      46.639   3.276   7.096  0.00  0.00    +0.000 C 
ATOM      3  O   UNL     1      46.554   4.089   6.184  0.00  0.00    +0.000 OA
ATOM     14  H   UNL     1      47.973   2.095   6.133  0.00  0.00    +0.000 HD
ATOM     15  H   UNL     1      47.403   1.399   7.609  0.00  0.00    +0.000 HD
ENDBRANCH   4   2
TORSDOF 1
ENDMDL
MODEL 4
REMARK VINA RESULT:    -5.915      2.815      5.183
REMARK INTER + INTRA:          -6.322
REMARK INTER:                  -6.264
REMARK INTRA:                  -0.058
REMARK UNBOUND:                -0.062
REMARK  Name = 
REMARK  1 active torsions:
REMARK  status: ('A' for Active; 'I' for Inactive)
REMARK    1  A    between atoms: C_2  and  C_4
REMARK                            x       y       z     vdW  Elec       q    Type
REMARK                         _______ _______ _______ _____ _____    ______ ____
ROOT
ATOM      4  C   UNL     1      44.241   4.409  11.560  0.00  0.00    +0.000 A 
ATOM      5  C   UNL     1      44.757   5.655  11.194  0.00  0.00    +0.000 A 
ATOM      6  C   UNL     1      45.478   5.806  10.005  0.00  0.00    +0.000 A 
ATOM      7  C   UNL     1      45.664   4.699   9.154  0.00  0.00    +0.000 A 
ATOM      8  N   UNL     1      46.327   4.711   7.939  0.00  0.00    +0.000 NA
ATOM      9  C   UNL     1      46.270   3.529   7.383  0.00  0.00    +0.000 A 
ATOM     10  N   UNL     1      46.784   3.268   6.171  0.00  0.00    +0.000 N 
ATOM     11  S   UNL     1      45.492   2.311   8.304  0.00  0.00    +0.000 S 
ATOM     12  C   UNL     1      45.134   3.465   9.531  0.00  0.00    +0.000 A 
ATOM     13  C   UNL     1      44.422   3.289  10.733  0.00  0.00    +0.000 A 
ATOM     16  H   UNL     1      47.415   3.958   5.782  0.00  0.00    +0.000 HD
ATOM     17  H   UNL     1      46.959   2.310   5.897  0.00  0.00    +0.000 HD
ENDROOT
BRANCH   4   2
ATOM      1  N   UNL     1      42.703   5.395  13.172  0.00  0.00    +0.000 N 
ATOM      2  C   UNL     1      43.467   4.316  12.826  0.00  0.00    +0.000 C 
ATOM      3  O   UNL     1      43.486   3.304  13.517  0.00  0.00    +0.000 OA
ATOM     14  H   UNL     1      42.102   5.271  13.978  0.00  0.00    +0.000 HD
ATOM     15  H   UNL     1      42.464   6.124  12.518  0.00  0.00    +0.000 HD
ENDBRANCH   4   2
TORSDOF 1
ENDMDL
MODEL 5
REMARK VINA RESULT:    -5.795      2.726      5.387
REMARK INTER + INTRA:          -6.196
REMARK INTER:                  -6.132
REMARK INTRA:                  -0.064
REMARK UNBOUND:                -0.062
REMARK  Name = 
REMARK  1 active torsions:
REMARK  status: ('A' for Active; 'I' for Inactive)
REMARK    1  A    between atoms: C_2  and  C_4
REMARK                            x       y       z     vdW  Elec       q    Type
REMARK                         _______ _______ _______ _____ _____    ______ ____
ROOT
ATOM      4  C   UNL     1      44.370   3.941   9.817  0.00  0.00    +0.000 A 
ATOM      5  C   UNL     1      44.240   2.560   9.987  0.00  0.00    +0.000 A 
ATOM      6  C   UNL     1      44.977   1.673   9.196  0.00  0.00    +0.000 A 
ATOM      7  C   UNL     1      45.879   2.174   8.237  0.00  0.00    +0.000 A 
ATOM      8  N   UNL     1      46.690   1.416   7.410  0.00  0.00    +0.000 NA
ATOM      9  C   UNL     1      47.443   2.196   6.679  0.00  0.00    +0.000 A 
ATOM     10  N   UNL     1      48.365   1.727   5.826  0.00  0.00    +0.000 N 
ATOM     11  S   UNL     1      47.178   3.878   6.872  0.00  0.00    +0.000 S 
ATOM     12  C   UNL     1      46.002   3.556   8.088  0.00  0.00    +0.000 A 
ATOM     13  C   UNL     1      45.254   4.464   8.862  0.00  0.00    +0.000 A 
ATOM     16  H   UNL     1      48.319   0.742   5.596  0.00  0.00    +0.000 HD
ATOM     17  H   UNL     1      48.728   2.330   5.099  0.00  0.00    +0.000 HD
ENDROOT
BRANCH   4   2
ATOM      1  N   UNL     1      43.864   6.168  10.668  0.00  0.00    +0.000 N 
ATOM      2  C   UNL     1      43.573   4.833  10.702  0.00  0.00    +0.000 C 
ATOM      3  O   UNL     1      42.672   4.398  11.408  0.00  0.00    +0.000 OA
ATOM     14  H   UNL     1      43.241   6.770  11.193  0.00  0.00    +0.000 HD
ATOM     15  H   UNL     1      44.406   6.588   9.928  0.00  0.00    +0.000 HD
ENDBRANCH   4   2
TORSDOF 1
ENDMDL
MODEL 6
REMARK VINA RESULT:    -5.412      4.900      6.410
REMARK INTER + INTRA:          -5.790
REMARK INTER:                  -5.738
REMARK INTRA:                  -0.053
REMARK UNBOUND:                -0.062
REMARK  Name = 
REMARK  1 active torsions:
REMARK  status: ('A' for Active; 'I' for Inactive)
REMARK    1  A    between atoms: C_2  and  C_4
REMARK                            x       y       z     vdW  Elec       q    Type
REMARK                         _______ _______ _______ _____ _____    ______ ____
ROOT
ATOM      4  C   UNL     1      46.295   7.123  13.113  0.00  0.00    +0.000 A 
ATOM      5  C   UNL     1      47.168   6.135  13.577  0.00  0.00    +0.000 A 
ATOM      6  C   UNL     1      46.822   4.782  13.493  0.00  0.00    +0.000 A 
ATOM      7  C   UNL     1      45.595   4.409  12.912  0.00  0.00    +0.000 A 
ATOM      8  N   UNL     1      45.140   3.113  12.738  0.00  0.00    +0.000 NA
ATOM      9  C   UNL     1      43.989   3.119  12.118  0.00  0.00    +0.000 A 
ATOM     10  N   UNL     1      43.343   1.996  11.769  0.00  0.00    +0.000 N 
ATOM     11  S   UNL     1      43.339   4.667  11.773  0.00  0.00    +0.000 S 
ATOM     12  C   UNL     1      44.740   5.408  12.445  0.00  0.00    +0.000 A 
ATOM     13  C   UNL     1      45.063   6.775  12.539  0.00  0.00    +0.000 A 
ATOM     16  H   UNL     1      43.662   1.133  12.191  0.00  0.00    +0.000 HD
ATOM     17  H   UNL     1      42.357   2.035  11.543  0.00  0.00    +0.000 HD
ENDROOT
BRANCH   4   2
ATOM      1  N   UNL     1      47.064   9.007  14.452  0.00  0.00    +0.000 N 
ATOM      2  C   UNL     1      46.727   8.542  13.212  0.00  0.00    +0.000 C 
ATOM      3  O   UNL     1      46.810   9.258  12.222  0.00  0.00    +0.000 OA
ATOM     14  H   UNL     1      47.458   9.940  14.483  0.00  0.00    +0.000 HD
ATOM     15  H   UNL     1      47.254   8.394  15.230  0.00  0.00    +0.000 HD
ENDBRANCH   4   2
TORSDOF 1
ENDMDL
MODEL 7
REMARK VINA RESULT:    -5.356      4.453      5.712
REMARK INTER + INTRA:          -5.731
REMARK INTER:                  -5.666
REMARK INTRA:                  -0.066
REMARK UNBOUND:                -0.062
REMARK  Name = 
REMARK  1 active torsions:
REMARK  status: ('A' for Active; 'I' for Inactive)
REMARK    1  A    between atoms: C_2  and  C_4
REMARK                            x       y       z     vdW  Elec       q    Type
REMARK                         _______ _______ _______ _____ _____    ______ ____
ROOT
ATOM      4  C   UNL     1      46.766   4.862  13.982  0.00  0.00    +0.000 A 
ATOM      5  C   UNL     1      47.053   6.085  13.370  0.00  0.00    +0.000 A 
ATOM      6  C   UNL     1      46.624   6.345  12.065  0.00  0.00    +0.000 A 
ATOM      7  C   UNL     1      45.874   5.377  11.368  0.00  0.00    +0.000 A 
ATOM      8  N   UNL     1      45.362   5.513  10.089  0.00  0.00    +0.000 NA
ATOM      9  C   UNL     1      44.671   4.451   9.766  0.00  0.00    +0.000 A 
ATOM     10  N   UNL     1      44.016   4.335   8.601  0.00  0.00    +0.000 N 
ATOM     11  S   UNL     1      44.650   3.195  10.931  0.00  0.00    +0.000 S 
ATOM     12  C   UNL     1      45.589   4.166  11.999  0.00  0.00    +0.000 A 
ATOM     13  C   UNL     1      46.029   3.878  13.305  0.00  0.00    +0.000 A 
ATOM     16  H   UNL     1      44.246   5.003   7.877  0.00  0.00    +0.000 HD
ATOM     17  H   UNL     1      43.726   3.420   8.278  0.00  0.00    +0.000 HD
ENDROOT
BRANCH   4   2
ATOM      1  N   UNL     1      47.955   5.658  15.955  0.00  0.00    +0.000 N 
ATOM      2  C   UNL     1      47.233   4.651  15.379  0.00  0.00    +0.000 C 
ATOM      3  O   UNL     1      46.956   3.633  16.001  0.00  0.00    +0.000 OA
ATOM     14  H   UNL     1      48.169   5.543  16.938  0.00  0.00    +0.000 HD
ATOM     15  H   UNL     1      47.981   6.593  15.578  0.00  0.00    +0.000 HD
ENDBRANCH   4   2
TORSDOF 1
ENDMDL
MODEL 8
REMARK VINA RESULT:    -5.332      4.650      5.618
REMARK INTER + INTRA:          -5.706
REMARK INTER:                  -5.647
REMARK INTRA:                  -0.059
REMARK UNBOUND:                -0.062
REMARK  Name = 
REMARK  1 active torsions:
REMARK  status: ('A' for Active; 'I' for Inactive)
REMARK    1  A    between atoms: C_2  and  C_4
REMARK                            x       y       z     vdW  Elec       q    Type
REMARK                         _______ _______ _______ _____ _____    ______ ____
ROOT
ATOM      4  C   UNL     1      45.046   4.532  11.475  0.00  0.00    +0.000 A 
ATOM      5  C   UNL     1      45.405   3.739  12.569  0.00  0.00    +0.000 A 
ATOM      6  C   UNL     1      46.447   4.128  13.417  0.00  0.00    +0.000 A 
ATOM      7  C   UNL     1      47.124   5.342  13.185  0.00  0.00    +0.000 A 
ATOM      8  N   UNL     1      48.148   5.861  13.957  0.00  0.00    +0.000 NA
ATOM      9  C   UNL     1      48.513   7.028  13.495  0.00  0.00    +0.000 A 
ATOM     10  N   UNL     1      49.452   7.784  14.084  0.00  0.00    +0.000 N 
ATOM     11  S   UNL     1      47.717   7.545  12.068  0.00  0.00    +0.000 S 
ATOM     12  C   UNL     1      46.744   6.124  12.094  0.00  0.00    +0.000 A 
ATOM     13  C   UNL     1      45.711   5.740  11.218  0.00  0.00    +0.000 A 
ATOM     16  H   UNL     1      50.033   7.334  14.781  0.00  0.00    +0.000 HD
ATOM     17  H   UNL     1      49.892   8.533  13.564  0.00  0.00    +0.000 HD
ENDROOT
BRANCH   4   2
ATOM      1  N   UNL     1      43.870   4.552   9.341  0.00  0.00    +0.000 N 
ATOM      2  C   UNL     1      43.917   4.075  10.621  0.00  0.00    +0.000 C 
ATOM      3  O   UNL     1      43.081   3.280  11.033  0.00  0.00    +0.000 OA
ATOM     14  H   UNL     1      43.159   4.146   8.744  0.00  0.00    +0.000 HD
ATOM     15  H   UNL     1      44.661   4.990   8.894  0.00  0.00    +0.000 HD
ENDBRANCH   4   2
TORSDOF 1
ENDMDL
MODEL 9
REMARK VINA RESULT:    -5.178      4.101      6.033
REMARK INTER + INTRA:          -5.543
REMARK INTER:                  -5.493
REMARK INTRA:                  -0.049
REMARK UNBOUND:                -0.062
REMARK  Name = 
REMARK  1 active torsions:
REMARK  status: ('A' for Active; 'I' for Inactive)
REMARK    1  A    between atoms: C_2  and  C_4
REMARK                            x       y       z     vdW  Elec       q    Type
REMARK                         _______ _______ _______ _____ _____    ______ ____
ROOT
ATOM      4  C   UNL     1      45.253   6.804  12.245  0.00  0.00    +0.000 A 
ATOM      5  C   UNL     1      44.885   5.875  13.222  0.00  0.00    +0.000 A 
ATOM      6  C   UNL     1      44.616   4.546  12.877  0.00  0.00    +0.000 A 
ATOM      7  C   UNL     1      44.743   4.133  11.536  0.00  0.00    +0.000 A 
ATOM      8  N   UNL     1      44.539   2.849  11.059  0.00  0.00    +0.000 NA
ATOM      9  C   UNL     1      44.794   2.799   9.778  0.00  0.00    +0.000 A 
ATOM     10  N   UNL     1      44.731   1.663   9.066  0.00  0.00    +0.000 N 
ATOM     11  S   UNL     1      45.217   4.289   9.045  0.00  0.00    +0.000 S 
ATOM     12  C   UNL     1      45.121   5.072  10.576  0.00  0.00    +0.000 A 
ATOM     13  C   UNL     1      45.376   6.417  10.902  0.00  0.00    +0.000 A 
ATOM     16  H   UNL     1      44.267   0.875   9.501  0.00  0.00    +0.000 HD
ATOM     17  H   UNL     1      44.668   1.707   8.057  0.00  0.00    +0.000 HD
ENDROOT
BRANCH   4   2
ATOM      1  N   UNL     1      44.639   9.160  12.331  0.00  0.00    +0.000 N 
ATOM      2  C   UNL     1      45.544   8.196  12.678  0.00  0.00    +0.000 C 
ATOM      3  O   UNL     1      46.535   8.467  13.344  0.00  0.00    +0.000 OA
ATOM     14  H   UNL     1      44.798  10.079  12.726  0.00  0.00    +0.000 HD
ATOM     15  H   UNL     1      43.706   8.942  12.017  0.00  0.00    +0.000 HD
ENDBRANCH   4   2
TORSDOF 1
ENDMDL
