MODEL 1
REMARK VINA RESULT:    -5.728      0.000      0.000
REMARK INTER + INTRA:          -6.275
REMARK INTER:                  -6.231
REMARK INTRA:                  -0.044
REMARK UNBOUND:                -0.044
REMARK  Name = 
REMARK  2 active torsions:
REMARK  status: ('A' for Active; 'I' for Inactive)
REMARK    1  A    between atoms: C_2  and  C_4
REMARK    2  A    between atoms: C_7  and  N_8
REMARK                            x       y       z     vdW  Elec       q    Type
REMARK                         _______ _______ _______ _____ _____    ______ ____
ROOT
ATOM      4  C   UNL     1      45.358   2.938   8.568  0.00  0.00    +0.000 A 
ATOM      5  C   UNL     1      45.811   1.616   8.540  0.00  0.00    +0.000 A 
ATOM      6  C   UNL     1      46.817   1.243   7.644  0.00  0.00    +0.000 A 
ATOM      7  C   UNL     1      47.351   2.168   6.743  0.00  0.00    +0.000 A 
ATOM      9  C   UNL     1      46.912   3.494   6.799  0.00  0.00    +0.000 A 
ATOM     10  C   UNL     1      45.898   3.875   7.685  0.00  0.00    +0.000 A 
ENDROOT
BRANCH   4   2
ATOM      1  N   UNL     1      43.960   4.701   9.474  0.00  0.00    +0.000 N 
ATOM      2  C   UNL     1      44.328   3.386   9.539  0.00  0.00    +0.000 C 
ATOM      3  O   UNL     1      43.796   2.611  10.323  0.00  0.00    +0.000 OA
ATOM     11  H   UNL     1      43.164   4.969  10.038  0.00  0.00    +0.000 HD
ATOM     12  H   UNL     1      44.174   5.270   8.668  0.00  0.00    +0.000 HD
ENDBRANCH   4   2
BRANCH   7   8
ATOM      8  N   UNL     1      48.465   1.828   5.967  0.00  0.00    +0.000 N 
ATOM     13  H   UNL     1      49.181   2.545   5.935  0.00  0.00    +0.000 HD
ATOM     14  H   UNL     1      48.846   0.910   6.176  0.00  0.00    +0.000 HD
ENDBRANCH   7   8
TORSDOF 2
ENDMDL
MODEL 2
REMARK VINA RESULT:    -5.695      1.762      4.245
REMARK INTER + INTRA:          -6.239
REMARK INTER:                  -6.196
REMARK INTRA:                  -0.043
REMARK UNBOUND:                -0.044
REMARK  Name = 
REMARK  2 active torsions:
REMARK  status: ('A' for Active; 'I' for Inactive)
REMARK    1  A    between atoms: C_2  and  C_4
REMARK    2  A    between atoms: C_7  and  N_8
REMARK                            x       y       z     vdW  Elec       q    Type
REMARK                         _______ _______ _______ _____ _____    ______ ____
ROOT
ATOM      4  C   UNL     1      46.136   2.076   8.042  0.00  0.00    +0.000 A 
ATOM      5  C   UNL     1      46.290   3.414   7.667  0.00  0.00    +0.000 A 
ATOM      6  C   UNL     1      45.481   4.396   8.246  0.00  0.00    +0.000 A 
ATOM      7  C   UNL     1      44.487   4.054   9.167  0.00  0.00    +0.000 A 
ATOM      9  C   UNL     1      44.361   2.717   9.556  0.00  0.00    +0.000 A 
ATOM     10  C   UNL     1      45.159   1.725   8.976  0.00  0.00    +0.000 A 
ENDROOT
BRANCH   4   2
ATOM      1  N   UNL     1      48.052   1.420   6.707  0.00  0.00    +0.000 N 
ATOM      2  C   UNL     1      47.008   1.010   7.490  0.00  0.00    +0.000 C 
ATOM      3  O   UNL     1      46.839  -0.172   7.761  0.00  0.00    +0.000 OA
ATOM     11  H   UNL     1      48.723   0.707   6.450  0.00  0.00    +0.000 HD
ATOM     12  H   UNL     1      48.367   2.379   6.707  0.00  0.00    +0.000 HD
ENDBRANCH   4   2
BRANCH   7   8
ATOM      8  N   UNL     1      43.797   5.056   9.857  0.00  0.00    +0.000 N 
ATOM     13  H   UNL     1      44.204   5.981   9.761  0.00  0.00    +0.000 HD
ATOM     14  H   UNL     1      42.795   5.056   9.690  0.00  0.00    +0.000 HD
ENDBRANCH   7   8
TORSDOF 2
ENDMDL
MODEL 3
REMARK VINA RESULT:    -5.288      1.757      2.102
REMARK INTER + INTRA:          -5.796
REMARK INTER:                  -5.766
REMARK INTRA:                  -0.030
REMARK UNBOUND:                -0.044
REMARK  Name = 
REMARK  2 active torsions:
REMARK  status: ('A' for Active; 'I' for Inactive)
REMARK    1  A    between atoms: C_2  and  C_4
REMARK    2  A    between atoms: C_7  and  N_8
REMARK                            x       y       z     vdW  Elec       q    Type
REMARK                         _______ _______ _______ _____ _____    ______ ____
ROOT
ATOM      4  C   UNL     1      44.809   3.159   9.998  0.00  0.00    +0.000 A 
ATOM      5  C   UNL     1      45.175   2.078   9.190  0.00  0.00    +0.000 A 
ATOM      6  C   UNL     1      45.868   2.304   7.997  0.00  0.00    +0.000 A 
ATOM      7  C   UNL     1      46.167   3.604   7.578  0.00  0.00    +0.000 A 
ATOM      9  C   UNL     1      45.822   4.675   8.408  0.00  0.00    +0.000 A 
ATOM     10  C   UNL     1      45.120   4.461   9.598  0.00  0.00    +0.000 A 
ENDROOT
BRANCH   4   2
ATOM      1  N   UNL     1      44.917   2.834  12.399  0.00  0.00    +0.000 N 
ATOM      2  C   UNL     1      44.118   2.959  11.296  0.00  0.00    +0.000 C 
ATOM      3  O   UNL     1      42.897   2.957  11.387  0.00  0.00    +0.000 OA
ATOM     11  H   UNL     1      44.444   2.839  13.294  0.00  0.00    +0.000 HD
ATOM     12  H   UNL     1      45.887   3.112  12.383  0.00  0.00    +0.000 HD
ENDBRANCH   4   2
BRANCH   7   8
ATOM      8  N   UNL     1      46.999   3.809   6.472  0.00  0.00    +0.000 N 
ATOM     13  H   UNL     1      46.699   4.562   5.863  0.00  0.00    +0.000 HD
ATOM     14  H   UNL     1      47.986   3.871   6.706  0.00  0.00    +0.000 HD
ENDBRANCH   7   8
TORSDOF 2
ENDMDL
MODEL 4
REMARK VINA RESULT:    -4.977      4.051      5.116
REMARK INTER + INTRA:          -5.457
REMARK INTER:                  -5.418
REMARK INTRA:                  -0.039
REMARK UNBOUND:                -0.044
REMARK  Name = 
REMARK  2 active torsions:
REMARK  status: ('A' for Active; 'I' for Inactive)
REMARK    1  A    between atoms: C_2  and  C_4
REMARK    2  A    between atoms: C_7  and  N_8
REMARK                            x       y       z     vdW  Elec       q    Type
REMARK                         _______ _______ _______ _____ _____    ______ ____
ROOT
ATOM      4  C   UNL     1      46.039   4.298  12.777  0.00  0.00    +0.000 A 
ATOM      5  C   UNL     1      45.288   3.212  12.320  0.00  0.00    +0.000 A 
ATOM      6  C   UNL     1      44.569   3.316  11.126  0.00  0.00    +0.000 A 
ATOM      7  C   UNL     1      44.557   4.510  10.399  0.00  0.00    +0.000 A 
ATOM      9  C   UNL     1      45.336   5.580  10.850  0.00  0.00    +0.000 A 
ATOM     10  C   UNL     1      46.051   5.490  12.048  0.00  0.00    +0.000 A 
ENDROOT
BRANCH   4   2
ATOM      1  N   UNL     1      46.954   5.353  14.761  0.00  0.00    +0.000 N 
ATOM      2  C   UNL     1      46.857   4.212  14.012  0.00  0.00    +0.000 C 
ATOM      3  O   UNL     1      47.377   3.164  14.374  0.00  0.00    +0.000 OA
ATOM     11  H   UNL     1      47.392   5.254  15.668  0.00  0.00    +0.000 HD
ATOM     12  H   UNL     1      46.317   6.125  14.632  0.00  0.00    +0.000 HD
ENDBRANCH   4   2
BRANCH   7   8
ATOM      8  N   UNL     1      43.971   4.551   9.129  0.00  0.00    +0.000 N 
ATOM     13  H   UNL     1      44.035   5.455   8.673  0.00  0.00    +0.000 HD
ATOM     14  H   UNL     1      44.256   3.790   8.520  0.00  0.00    +0.000 HD
ENDBRANCH   7   8
TORSDOF 2
ENDMDL
MODEL 5
REMARK VINA RESULT:    -4.713      5.915      6.578
REMARK INTER + INTRA:          -5.170
REMARK INTER:                  -5.139
REMARK INTRA:                  -0.031
REMARK UNBOUND:                -0.044
REMARK  Name = 
REMARK  2 active torsions:
REMARK  status: ('A' for Active; 'I' for Inactive)
REMARK    1  A    between atoms: C_2  and  C_4
REMARK    2  A    between atoms: C_7  and  N_8
REMARK                            x       y       z     vdW  Elec       q    Type
REMARK                         _______ _______ _______ _____ _____    ______ ____
ROOT
ATOM      4  C   UNL     1      45.859   5.023  13.345  0.00  0.00    +0.000 A 
ATOM      5  C   UNL     1      46.178   6.153  12.588  0.00  0.00    +0.000 A 
ATOM      6  C   UNL     1      45.196   6.766  11.804  0.00  0.00    +0.000 A 
ATOM      7  C   UNL     1      43.904   6.238  11.734  0.00  0.00    +0.000 A 
ATOM      9  C   UNL     1      43.587   5.125  12.518  0.00  0.00    +0.000 A 
ATOM     10  C   UNL     1      44.565   4.498  13.298  0.00  0.00    +0.000 A 
ENDROOT
BRANCH   4   2
ATOM      1  N   UNL     1      47.239   5.077  15.339  0.00  0.00    +0.000 N 
ATOM      2  C   UNL     1      46.858   4.374  14.230  0.00  0.00    +0.000 C 
ATOM      3  O   UNL     1      47.282   3.246  14.011  0.00  0.00    +0.000 OA
ATOM     11  H   UNL     1      47.810   4.578  16.009  0.00  0.00    +0.000 HD
ATOM     12  H   UNL     1      46.702   5.863  15.677  0.00  0.00    +0.000 HD
ENDBRANCH   4   2
BRANCH   7   8
ATOM      8  N   UNL     1      42.892   6.948  11.079  0.00  0.00    +0.000 N 
ATOM     13  H   UNL     1      42.170   6.362  10.673  0.00  0.00    +0.000 HD
ATOM     14  H   UNL     1      42.505   7.712  11.626  0.00  0.00    +0.000 HD
ENDBRANCH   7   8
TORSDOF 2
ENDMDL
MODEL 6
REMARK VINA RESULT:    -4.655      3.621      5.203
REMARK INTER + INTRA:          -5.107
REMARK INTER:                  -5.064
REMARK INTRA:                  -0.044
REMARK UNBOUND:                -0.044
REMARK  Name = 
REMARK  2 active torsions:
REMARK  status: ('A' for Active; 'I' for Inactive)
REMARK    1  A    between atoms: C_2  and  C_4
REMARK    2  A    between atoms: C_7  and  N_8
REMARK                            x       y       z     vdW  Elec       q    Type
REMARK                         _______ _______ _______ _____ _____    ______ ____
ROOT
ATOM      4  C   UNL     1      45.037   4.521  11.279  0.00  0.00    +0.000 A 
ATOM      5  C   UNL     1      45.335   3.929  12.509  0.00  0.00    +0.000 A 
ATOM      6  C   UNL     1      46.154   4.598  13.424  0.00  0.00    +0.000 A 
ATOM      7  C   UNL     1      46.716   5.838  13.107  0.00  0.00    +0.000 A 
ATOM      9  C   UNL     1      46.388   6.434  11.886  0.00  0.00    +0.000 A 
ATOM     10  C   UNL     1      45.577   5.769  10.960  0.00  0.00    +0.000 A 
ENDROOT
BRANCH   4   2
ATOM      1  N   UNL     1      44.025   4.462   9.075  0.00  0.00    +0.000 N 
ATOM      2  C   UNL     1      44.130   3.868  10.302  0.00  0.00    +0.000 C 
ATOM      3  O   UNL     1      43.545   2.824  10.559  0.00  0.00    +0.000 OA
ATOM     11  H   UNL     1      43.520   3.942   8.370  0.00  0.00    +0.000 HD
ATOM     12  H   UNL     1      44.700   5.143   8.758  0.00  0.00    +0.000 HD
ENDBRANCH   4   2
BRANCH   7   8
ATOM      8  N   UNL     1      47.397   6.569  14.087  0.00  0.00    +0.000 N 
ATOM     13  H   UNL     1      47.925   5.997  14.737  0.00  0.00    +0.000 HD
ATOM     14  H   UNL     1      47.945   7.340  13.718  0.00  0.00    +0.000 HD
ENDBRANCH   7   8
TORSDOF 2
ENDMDL
MODEL 7
REMARK VINA RESULT:    -4.563      2.632      3.376
REMARK INTER + INTRA:          -5.007
REMARK INTER:                  -4.973
REMARK INTRA:                  -0.034
REMARK UNBOUND:                -0.044
REMARK  Name = 
REMARK  2 active torsions:
REMARK  status: ('A' for Active; 'I' for Inactive)
REMARK    1  A    between atoms: C_2  and  C_4
REMARK    2  A    between atoms: C_7  and  N_8
REMARK                            x       y       z     vdW  Elec       q    Type
REMARK                         _______ _______ _______ _____ _____    ______ ____
ROOT
ATOM      4  C   UNL     1      44.795   4.504  11.277  0.00  0.00    +0.000 A 
ATOM      5  C   UNL     1      44.362   3.270  10.783  0.00  0.00    +0.000 A 
ATOM      6  C   UNL     1      44.604   2.931   9.448  0.00  0.00    +0.000 A 
ATOM      7  C   UNL     1      45.239   3.829   8.586  0.00  0.00    +0.000 A 
ATOM      9  C   UNL     1      45.695   5.047   9.098  0.00  0.00    +0.000 A 
ATOM     10  C   UNL     1      45.449   5.400  10.429  0.00  0.00    +0.000 A 
ENDROOT
BRANCH   4   2
ATOM      1  N   UNL     1      43.943   6.054  12.937  0.00  0.00    +0.000 N 
ATOM      2  C   UNL     1      44.605   4.880  12.700  0.00  0.00    +0.000 C 
ATOM      3  O   UNL     1      44.972   4.157  13.617  0.00  0.00    +0.000 OA
ATOM     11  H   UNL     1      43.693   6.237  13.900  0.00  0.00    +0.000 HD
ATOM     12  H   UNL     1      43.398   6.507  12.218  0.00  0.00    +0.000 HD
ENDBRANCH   4   2
BRANCH   7   8
ATOM      8  N   UNL     1      45.620   3.418   7.304  0.00  0.00    +0.000 N 
ATOM     13  H   UNL     1      46.504   2.922   7.273  0.00  0.00    +0.000 HD
ATOM     14  H   UNL     1      44.888   2.933   6.793  0.00  0.00    +0.000 HD
ENDBRANCH   7   8
TORSDOF 2
ENDMDL
MODEL 8
REMARK VINA RESULT:    -4.343      3.352      4.584
REMARK INTER + INTRA:          -4.767
REMARK INTER:                  -4.731
REMARK INTRA:                  -0.036
REMARK UNBOUND:                -0.044
REMARK  Name = 
REMARK  2 active torsions:
REMARK  status: ('A' for Active; 'I' for Inactive)
REMARK    1  A    between atoms: C_2  and  C_4
REMARK    2  A    between atoms: C_7  and  N_8
REMARK                            x       y       z     vdW  Elec       q    Type
REMARK                         _______ _______ _______ _____ _____    ______ ____
ROOT
ATOM      4  C   UNL     1      45.374   5.275  11.676  0.00  0.00    +0.000 A 
ATOM      5  C   UNL     1      45.825   5.769  10.448  0.00  0.00    +0.000 A 
ATOM      6  C   UNL     1      45.518   5.085   9.268  0.00  0.00    +0.000 A 
ATOM      7  C   UNL     1      44.799   3.887   9.301  0.00  0.00    +0.000 A 
ATOM      9  C   UNL     1      44.328   3.418  10.531  0.00  0.00    +0.000 A 
ATOM     10  C   UNL     1      44.638   4.090  11.719  0.00  0.00    +0.000 A 
ENDROOT
BRANCH   4   2
ATOM      1  N   UNL     1      46.069   5.243  14.000  0.00  0.00    +0.000 N 
ATOM      2  C   UNL     1      45.634   5.998  12.946  0.00  0.00    +0.000 C 
ATOM      3  O   UNL     1      45.516   7.214  13.036  0.00  0.00    +0.000 OA
ATOM     11  H   UNL     1      46.377   5.754  14.816  0.00  0.00    +0.000 HD
ATOM     12  H   UNL     1      46.435   4.311  13.866  0.00  0.00    +0.000 HD
ENDBRANCH   4   2
BRANCH   7   8
ATOM      8  N   UNL     1      44.360   3.301   8.109  0.00  0.00    +0.000 N 
ATOM     13  H   UNL     1      43.698   2.543   8.240  0.00  0.00    +0.000 HD
ATOM     14  H   UNL     1      44.047   3.970   7.412  0.00  0.00    +0.000 HD
ENDBRANCH   7   8
TORSDOF 2
ENDMDL
MODEL 9
REMARK VINA RESULT:    -4.215      4.796      5.622
REMARK INTER + INTRA:          -4.628
REMARK INTER:                  -4.586
REMARK INTRA:                  -0.042
REMARK UNBOUND:                -0.044
REMARK  Name = 
REMARK  2 active torsions:
REMARK  status: ('A' for Active; 'I' for Inactive)
REMARK    1  A    between atoms: C_2  and  C_4
REMARK    2  A    between atoms: C_7  and  N_8
REMARK                            x       y       z     vdW  Elec       q    Type
REMARK                         _______ _______ _______ _____ _____    ______ ____
ROOT
ATOM      4  C   UNL     1      45.240   4.654  12.194  0.00  0.00    +0.000 A 
ATOM      5  C   UNL     1      45.627   5.681  11.328  0.00  0.00    +0.000 A 
ATOM      6  C   UNL     1      46.763   6.444  11.617  0.00  0.00    +0.000 A 
ATOM      7  C   UNL     1      47.496   6.221  12.786  0.00  0.00    +0.000 A 
ATOM      9  C   UNL     1      47.116   5.173  13.630  0.00  0.00    +0.000 A 
ATOM     10  C   UNL     1      45.976   4.410  13.355  0.00  0.00    +0.000 A 
ENDROOT
BRANCH   4   2
ATOM      1  N   UNL     1      44.061   2.554  12.487  0.00  0.00    +0.000 N 
ATOM      2  C   UNL     1      44.072   3.788  11.897  0.00  0.00    +0.000 C 
ATOM      3  O   UNL     1      43.140   4.172  11.202  0.00  0.00    +0.000 OA
ATOM     11  H   UNL     1      43.204   2.025  12.397  0.00  0.00    +0.000 HD
ATOM     12  H   UNL     1      44.664   2.337  13.268  0.00  0.00    +0.000 HD
ENDBRANCH   4   2
BRANCH   7   8
ATOM      8  N   UNL     1      48.715   6.877  12.983  0.00  0.00    +0.000 N 
ATOM     13  H   UNL     1      48.672   7.882  12.846  0.00  0.00    +0.000 HD
ATOM     14  H   UNL     1      49.183   6.625  13.850  0.00  0.00    +0.000 HD
ENDBRANCH   7   8
TORSDOF 2
ENDMDL
