MODEL 1
REMARK VINA RESULT:    -7.166      0.000      0.000
REMARK INTER + INTRA:         -11.630
REMARK INTER:                 -10.518
REMARK INTRA:                  -1.112
REMARK UNBOUND:                -1.112
REMARK  Name = 
REMARK  9 active torsions:
REMARK  status: ('A' for Active; 'I' for Inactive)
REMARK    1  A    between atoms: C_1  and  C_2
REMARK    2  A    between atoms: C_2  and  C_3
REMARK    3  A    between atoms: C_3  and  O_4
REMARK    4  A    between atoms: O_4  and  C_5
REMARK    5  A    between atoms: C_12  and  C_13
REMARK    6  A    between atoms: N_15  and  C_16
REMARK    7  A    between atoms: C_16  and  C_17
REMARK    8  A    between atoms: C_20  and  C_21
REMARK    9  A    between atoms: C_21  and  N_22
REMARK                            x       y       z     vdW  Elec       q    Type
REMARK                         _______ _______ _______ _____ _____    ______ ____
ROOT
ATOM     13  C   UNL     1      47.128   5.310  13.627  0.00  0.00    +0.000 C 
ATOM     14  O   UNL     1      47.308   4.099  13.673  0.00  0.00    +0.000 OA
ATOM     15  N   UNL     1      45.901   5.832  13.319  0.00  0.00    +0.000 N 
ATOM     31  H   UNL     1      45.802   6.834  13.223  0.00  0.00    +0.000 HD
ENDROOT
BRANCH  13  12
ATOM      5  C   UNL     1      48.933   6.022  16.472  0.00  0.00    +0.000 A 
ATOM      6  N   UNL     1      49.873   6.358  17.376  0.00  0.00    +0.000 NA
ATOM      7  C   UNL     1      50.822   7.220  17.002  0.00  0.00    +0.000 A 
ATOM      8  N   UNL     1      50.935   7.814  15.818  0.00  0.00    +0.000 NA
ATOM      9  C   UNL     1      49.997   7.422  14.936  0.00  0.00    +0.000 A 
ATOM     10  S   UNL     1      49.973   8.093  13.376  0.00  0.00    +0.000 S 
ATOM     11  C   UNL     1      48.647   7.127  12.928  0.00  0.00    +0.000 A 
ATOM     12  C   UNL     1      48.204   6.273  13.931  0.00  0.00    +0.000 A 
ATOM     30  C   UNL     1      48.976   6.501  15.154  0.00  0.00    +0.000 A 
BRANCH   5   4
ATOM      4  O   UNL     1      47.893   5.222  16.897  0.00  0.00    +0.000 OA
BRANCH   4   3
ATOM      3  C   UNL     1      48.312   4.077  17.651  0.00  0.00    +0.000 C 
BRANCH   3   2
ATOM      1  C   UNL     1      49.538   2.028  16.831  0.00  0.00    +0.000 C 
ATOM      2  C   UNL     1      48.229   2.794  16.822  0.00  0.00    +0.000 C 
ENDBRANCH   3   2
ENDBRANCH   4   3
ENDBRANCH   5   4
ENDBRANCH  13  12
BRANCH  15  16
ATOM     16  C   UNL     1      44.704   5.045  13.112  0.00  0.00    +0.000 C 
BRANCH  16  17
ATOM     17  C   UNL     1      44.641   4.627  11.660  0.00  0.00    +0.000 A 
ATOM     18  C   UNL     1      44.132   3.368  11.327  0.00  0.00    +0.000 A 
ATOM     19  C   UNL     1      44.305   2.841  10.043  0.00  0.00    +0.000 A 
ATOM     20  C   UNL     1      44.990   3.560   9.051  0.00  0.00    +0.000 A 
ATOM     28  C   UNL     1      45.419   4.862   9.358  0.00  0.00    +0.000 A 
ATOM     29  C   UNL     1      45.256   5.387  10.651  0.00  0.00    +0.000 A 
BRANCH  20  21
ATOM     21  C   UNL     1      45.465   2.855   7.793  0.00  0.00    +0.000 C 
BRANCH  21  22
ATOM     22  N   UNL     1      46.840   2.391   7.647  0.00  0.00    +0.000 NA
ATOM     23  C   UNL     1      47.701   3.131   6.726  0.00  0.00    +0.000 C 
ATOM     24  C   UNL     1      47.717   2.575   5.294  0.00  0.00    +0.000 C 
ATOM     25  O   UNL     1      47.983   1.166   5.266  0.00  0.00    +0.000 OA
ATOM     26  C   UNL     1      47.051   0.442   6.077  0.00  0.00    +0.000 C 
ATOM     27  C   UNL     1      47.057   0.950   7.525  0.00  0.00    +0.000 C 
ENDBRANCH  21  22
ENDBRANCH  20  21
ENDBRANCH  16  17
ENDBRANCH  15  16
TORSDOF 8
ENDMDL
MODEL 2
REMARK VINA RESULT:    -6.743      3.330      9.249
REMARK INTER + INTRA:         -11.008
REMARK INTER:                  -9.888
REMARK INTRA:                  -1.120
REMARK UNBOUND:                -1.112
REMARK  Name = 
REMARK  9 active torsions:
REMARK  status: ('A' for Active; 'I' for Inactive)
REMARK    1  A    between atoms: C_1  and  C_2
REMARK    2  A    between atoms: C_2  and  C_3
REMARK    3  A    between atoms: C_3  and  O_4
REMARK    4  A    between atoms: O_4  and  C_5
REMARK    5  A    between atoms: C_12  and  C_13
REMARK    6  A    between atoms: N_15  and  C_16
REMARK    7  A    between atoms: C_16  and  C_17
REMARK    8  A    between atoms: C_20  and  C_21
REMARK    9  A    between atoms: C_21  and  N_22
REMARK                            x       y       z     vdW  Elec       q    Type
REMARK                         _______ _______ _______ _____ _____    ______ ____
ROOT
ATOM     13  C   UNL     1      46.955   4.218  14.494  0.00  0.00    +0.000 C 
ATOM     14  O   UNL     1      47.306   3.122  14.076  0.00  0.00    +0.000 OA
ATOM     15  N   UNL     1      46.869   4.470  15.836  0.00  0.00    +0.000 N 
ATOM     31  H   UNL     1      46.513   5.363  16.149  0.00  0.00    +0.000 HD
ENDROOT
BRANCH  13  12
ATOM      5  C   UNL     1      44.163   5.059  12.661  0.00  0.00    +0.000 A 
ATOM      6  N   UNL     1      43.165   5.687  12.009  0.00  0.00    +0.000 NA
ATOM      7  C   UNL     1      43.412   6.896  11.501  0.00  0.00    +0.000 A 
ATOM      8  N   UNL     1      44.563   7.559  11.547  0.00  0.00    +0.000 NA
ATOM      9  C   UNL     1      45.520   6.912  12.237  0.00  0.00    +0.000 A 
ATOM     10  S   UNL     1      47.066   7.599  12.383  0.00  0.00    +0.000 S 
ATOM     11  C   UNL     1      47.606   6.304  13.343  0.00  0.00    +0.000 A 
ATOM     12  C   UNL     1      46.638   5.338  13.585  0.00  0.00    +0.000 A 
ATOM     30  C   UNL     1      45.408   5.675  12.866  0.00  0.00    +0.000 A 
BRANCH   5   4
ATOM      4  O   UNL     1      43.939   3.766  13.084  0.00  0.00    +0.000 OA
BRANCH   4   3
ATOM      3  C   UNL     1      43.668   2.845  12.019  0.00  0.00    +0.000 C 
BRANCH   3   2
ATOM      1  C   UNL     1      44.307   3.104   9.590  0.00  0.00    +0.000 C 
ATOM      2  C   UNL     1      44.804   2.817  10.995  0.00  0.00    +0.000 C 
ENDBRANCH   3   2
ENDBRANCH   4   3
ENDBRANCH   5   4
ENDBRANCH  13  12
BRANCH  15  16
ATOM     16  C   UNL     1      47.258   3.535  16.872  0.00  0.00    +0.000 C 
BRANCH  16  17
ATOM     17  C   UNL     1      48.673   3.847  17.302  0.00  0.00    +0.000 A 
ATOM     18  C   UNL     1      49.079   5.180  17.424  0.00  0.00    +0.000 A 
ATOM     19  C   UNL     1      50.432   5.509  17.552  0.00  0.00    +0.000 A 
ATOM     20  C   UNL     1      51.422   4.515  17.565  0.00  0.00    +0.000 A 
ATOM     28  C   UNL     1      51.009   3.172  17.536  0.00  0.00    +0.000 A 
ATOM     29  C   UNL     1      49.650   2.841  17.396  0.00  0.00    +0.000 A 
BRANCH  20  21
ATOM     21  C   UNL     1      52.879   4.890  17.360  0.00  0.00    +0.000 C 
BRANCH  21  22
ATOM     22  N   UNL     1      53.843   4.845  18.453  0.00  0.00    +0.000 NA
ATOM     23  C   UNL     1      54.677   3.649  18.561  0.00  0.00    +0.000 C 
ATOM     24  C   UNL     1      54.099   2.556  19.472  0.00  0.00    +0.000 C 
ATOM     25  O   UNL     1      53.725   3.069  20.758  0.00  0.00    +0.000 OA
ATOM     26  C   UNL     1      52.808   4.162  20.638  0.00  0.00    +0.000 C 
ATOM     27  C   UNL     1      53.389   5.287  19.771  0.00  0.00    +0.000 C 
ENDBRANCH  21  22
ENDBRANCH  20  21
ENDBRANCH  16  17
ENDBRANCH  15  16
TORSDOF 8
ENDMDL
MODEL 3
REMARK VINA RESULT:    -6.577      3.578      5.178
REMARK INTER + INTRA:         -10.765
REMARK INTER:                  -9.382
REMARK INTRA:                  -1.383
REMARK UNBOUND:                -1.112
REMARK  Name = 
REMARK  9 active torsions:
REMARK  status: ('A' for Active; 'I' for Inactive)
REMARK    1  A    between atoms: C_1  and  C_2
REMARK    2  A    between atoms: C_2  and  C_3
REMARK    3  A    between atoms: C_3  and  O_4
REMARK    4  A    between atoms: O_4  and  C_5
REMARK    5  A    between atoms: C_12  and  C_13
REMARK    6  A    between atoms: N_15  and  C_16
REMARK    7  A    between atoms: C_16  and  C_17
REMARK    8  A    between atoms: C_20  and  C_21
REMARK    9  A    between atoms: C_21  and  N_22
REMARK                            x       y       z     vdW  Elec       q    Type
REMARK                         _______ _______ _______ _____ _____    ______ ____
ROOT
ATOM     13  C   UNL     1      48.653   8.898  16.525  0.00  0.00    +0.000 C 
ATOM     14  O   UNL     1      49.836   8.733  16.254  0.00  0.00    +0.000 OA
ATOM     15  N   UNL     1      47.740   9.202  15.552  0.00  0.00    +0.000 N 
ATOM     31  H   UNL     1      46.783   9.397  15.818  0.00  0.00    +0.000 HD
ENDROOT
BRANCH  13  12
ATOM      5  C   UNL     1      48.201   6.185  18.599  0.00  0.00    +0.000 A 
ATOM      6  N   UNL     1      48.098   5.335  19.639  0.00  0.00    +0.000 NA
ATOM      7  C   UNL     1      47.742   5.836  20.824  0.00  0.00    +0.000 A 
ATOM      8  N   UNL     1      47.452   7.104  21.097  0.00  0.00    +0.000 NA
ATOM      9  C   UNL     1      47.603   7.922  20.040  0.00  0.00    +0.000 A 
ATOM     10  S   UNL     1      47.255   9.577  20.197  0.00  0.00    +0.000 S 
ATOM     11  C   UNL     1      47.704   9.875  18.585  0.00  0.00    +0.000 A 
ATOM     12  C   UNL     1      48.136   8.747  17.900  0.00  0.00    +0.000 A 
ATOM     30  C   UNL     1      48.012   7.567  18.758  0.00  0.00    +0.000 A 
BRANCH   5   4
ATOM      4  O   UNL     1      48.457   5.648  17.355  0.00  0.00    +0.000 OA
BRANCH   4   3
ATOM      3  C   UNL     1      48.821   4.261  17.385  0.00  0.00    +0.000 C 
BRANCH   3   2
ATOM      1  C   UNL     1      47.109   4.235  15.529  0.00  0.00    +0.000 C 
ATOM      2  C   UNL     1      47.859   3.408  16.555  0.00  0.00    +0.000 C 
ENDBRANCH   3   2
ENDBRANCH   4   3
ENDBRANCH   5   4
ENDBRANCH  13  12
BRANCH  15  16
ATOM     16  C   UNL     1      48.041   9.269  14.138  0.00  0.00    +0.000 C 
BRANCH  16  17
ATOM     17  C   UNL     1      47.159   8.282  13.406  0.00  0.00    +0.000 A 
ATOM     18  C   UNL     1      47.629   6.987  13.163  0.00  0.00    +0.000 A 
ATOM     19  C   UNL     1      46.968   6.142  12.266  0.00  0.00    +0.000 A 
ATOM     20  C   UNL     1      45.815   6.564  11.586  0.00  0.00    +0.000 A 
ATOM     28  C   UNL     1      45.291   7.830  11.899  0.00  0.00    +0.000 A 
ATOM     29  C   UNL     1      45.961   8.684  12.792  0.00  0.00    +0.000 A 
BRANCH  20  21
ATOM     21  C   UNL     1      45.314   5.786  10.383  0.00  0.00    +0.000 C 
BRANCH  21  22
ATOM     22  N   UNL     1      44.354   4.697  10.521  0.00  0.00    +0.000 NA
ATOM     23  C   UNL     1      43.141   4.968  11.291  0.00  0.00    +0.000 C 
ATOM     24  C   UNL     1      43.247   4.615  12.782  0.00  0.00    +0.000 C 
ATOM     25  O   UNL     1      43.727   3.279  12.986  0.00  0.00    +0.000 OA
ATOM     26  C   UNL     1      44.981   3.068  12.327  0.00  0.00    +0.000 C 
ATOM     27  C   UNL     1      44.881   3.367  10.825  0.00  0.00    +0.000 C 
ENDBRANCH  21  22
ENDBRANCH  20  21
ENDBRANCH  16  17
ENDBRANCH  15  16
TORSDOF 8
ENDMDL
MODEL 4
REMARK VINA RESULT:    -6.529      3.229      5.238
REMARK INTER + INTRA:         -10.695
REMARK INTER:                  -8.946
REMARK INTRA:                  -1.750
REMARK UNBOUND:                -1.112
REMARK  Name = 
REMARK  9 active torsions:
REMARK  status: ('A' for Active; 'I' for Inactive)
REMARK    1  A    between atoms: C_1  and  C_2
REMARK    2  A    between atoms: C_2  and  C_3
REMARK    3  A    between atoms: C_3  and  O_4
REMARK    4  A    between atoms: O_4  and  C_5
REMARK    5  A    between atoms: C_12  and  C_13
REMARK    6  A    between atoms: N_15  and  C_16
REMARK    7  A    between atoms: C_16  and  C_17
REMARK    8  A    between atoms: C_20  and  C_21
REMARK    9  A    between atoms: C_21  and  N_22
REMARK                            x       y       z     vdW  Elec       q    Type
REMARK                         _______ _______ _______ _____ _____    ______ ____
ROOT
ATOM     13  C   UNL     1      50.201   6.895  17.124  0.00  0.00    +0.000 C 
ATOM     14  O   UNL     1      49.885   7.787  17.901  0.00  0.00    +0.000 OA
ATOM     15  N   UNL     1      49.798   6.918  15.817  0.00  0.00    +0.000 N 
ATOM     31  H   UNL     1      50.020   6.134  15.218  0.00  0.00    +0.000 HD
ENDROOT
BRANCH  13  12
ATOM      5  C   UNL     1      49.835   3.473  16.988  0.00  0.00    +0.000 A 
ATOM      6  N   UNL     1      50.007   2.141  16.888  0.00  0.00    +0.000 NA
ATOM      7  C   UNL     1      51.182   1.631  17.266  0.00  0.00    +0.000 A 
ATOM      8  N   UNL     1      52.218   2.302  17.759  0.00  0.00    +0.000 NA
ATOM      9  C   UNL     1      52.016   3.632  17.807  0.00  0.00    +0.000 A 
ATOM     10  S   UNL     1      53.225   4.648  18.431  0.00  0.00    +0.000 S 
ATOM     11  C   UNL     1      52.289   6.033  18.124  0.00  0.00    +0.000 A 
ATOM     12  C   UNL     1      51.059   5.766  17.536  0.00  0.00    +0.000 A 
ATOM     30  C   UNL     1      50.873   4.319  17.408  0.00  0.00    +0.000 A 
BRANCH   5   4
ATOM      4  O   UNL     1      48.584   3.981  16.706  0.00  0.00    +0.000 OA
BRANCH   4   3
ATOM      3  C   UNL     1      47.687   3.970  17.825  0.00  0.00    +0.000 C 
BRANCH   3   2
ATOM      1  C   UNL     1      47.391   5.838  19.498  0.00  0.00    +0.000 C 
ATOM      2  C   UNL     1      47.099   5.358  18.089  0.00  0.00    +0.000 C 
ENDBRANCH   3   2
ENDBRANCH   4   3
ENDBRANCH   5   4
ENDBRANCH  13  12
BRANCH  15  16
ATOM     16  C   UNL     1      49.059   8.004  15.207  0.00  0.00    +0.000 C 
BRANCH  16  17
ATOM     17  C   UNL     1      47.984   7.421  14.318  0.00  0.00    +0.000 A 
ATOM     18  C   UNL     1      47.883   6.033  14.179  0.00  0.00    +0.000 A 
ATOM     19  C   UNL     1      47.092   5.469  13.172  0.00  0.00    +0.000 A 
ATOM     20  C   UNL     1      46.376   6.276  12.274  0.00  0.00    +0.000 A 
ATOM     28  C   UNL     1      46.404   7.667  12.472  0.00  0.00    +0.000 A 
ATOM     29  C   UNL     1      47.207   8.234  13.476  0.00  0.00    +0.000 A 
BRANCH  20  21
ATOM     21  C   UNL     1      45.810   5.678  10.999  0.00  0.00    +0.000 C 
BRANCH  21  22
ATOM     22  N   UNL     1      44.399   5.331  10.876  0.00  0.00    +0.000 NA
ATOM     23  C   UNL     1      43.661   5.082  12.113  0.00  0.00    +0.000 C 
ATOM     24  C   UNL     1      43.638   3.610  12.549  0.00  0.00    +0.000 C 
ATOM     25  O   UNL     1      43.220   2.740  11.488  0.00  0.00    +0.000 OA
ATOM     26  C   UNL     1      44.034   2.909  10.322  0.00  0.00    +0.000 C 
ATOM     27  C   UNL     1      44.029   4.366   9.841  0.00  0.00    +0.000 C 
ENDBRANCH  21  22
ENDBRANCH  20  21
ENDBRANCH  16  17
ENDBRANCH  15  16
TORSDOF 8
ENDMDL
MODEL 5
REMARK VINA RESULT:    -6.476      3.022      8.743
REMARK INTER + INTRA:         -10.616
REMARK INTER:                  -9.431
REMARK INTRA:                  -1.185
REMARK UNBOUND:                -1.112
REMARK  Name = 
REMARK  9 active torsions:
REMARK  status: ('A' for Active; 'I' for Inactive)
REMARK    1  A    between atoms: C_1  and  C_2
REMARK    2  A    between atoms: C_2  and  C_3
REMARK    3  A    between atoms: C_3  and  O_4
REMARK    4  A    between atoms: O_4  and  C_5
REMARK    5  A    between atoms: C_12  and  C_13
REMARK    6  A    between atoms: N_15  and  C_16
REMARK    7  A    between atoms: C_16  and  C_17
REMARK    8  A    between atoms: C_20  and  C_21
REMARK    9  A    between atoms: C_21  and  N_22
REMARK                            x       y       z     vdW  Elec       q    Type
REMARK                         _______ _______ _______ _____ _____    ______ ____
ROOT
ATOM     13  C   UNL     1      47.120   4.253  14.767  0.00  0.00    +0.000 C 
ATOM     14  O   UNL     1      47.348   3.163  14.257  0.00  0.00    +0.000 OA
ATOM     15  N   UNL     1      46.964   4.384  16.120  0.00  0.00    +0.000 N 
ATOM     31  H   UNL     1      46.710   5.285  16.502  0.00  0.00    +0.000 HD
ENDROOT
BRANCH  13  12
ATOM      5  C   UNL     1      44.799   5.462  12.527  0.00  0.00    +0.000 A 
ATOM      6  N   UNL     1      43.978   6.218  11.773  0.00  0.00    +0.000 NA
ATOM      7  C   UNL     1      44.361   7.464  11.485  0.00  0.00    +0.000 A 
ATOM      8  N   UNL     1      45.496   8.051  11.850  0.00  0.00    +0.000 NA
ATOM      9  C   UNL     1      46.269   7.274  12.631  0.00  0.00    +0.000 A 
ATOM     10  S   UNL     1      47.770   7.852  13.176  0.00  0.00    +0.000 S 
ATOM     11  C   UNL     1      48.058   6.423  14.051  0.00  0.00    +0.000 A 
ATOM     12  C   UNL     1      47.032   5.489  13.964  0.00  0.00    +0.000 A 
ATOM     30  C   UNL     1      45.991   5.979  13.060  0.00  0.00    +0.000 A 
BRANCH   5   4
ATOM      4  O   UNL     1      44.453   4.142  12.726  0.00  0.00    +0.000 OA
BRANCH   4   3
ATOM      3  C   UNL     1      44.984   3.248  11.739  0.00  0.00    +0.000 C 
BRANCH   3   2
ATOM      1  C   UNL     1      44.563   2.792   9.292  0.00  0.00    +0.000 C 
ATOM      2  C   UNL     1      43.944   2.903  10.672  0.00  0.00    +0.000 C 
ENDBRANCH   3   2
ENDBRANCH   4   3
ENDBRANCH   5   4
ENDBRANCH  13  12
BRANCH  15  16
ATOM     16  C   UNL     1      47.136   3.307  17.072  0.00  0.00    +0.000 C 
BRANCH  16  17
ATOM     17  C   UNL     1      48.491   3.451  17.729  0.00  0.00    +0.000 A 
ATOM     18  C   UNL     1      48.668   4.401  18.740  0.00  0.00    +0.000 A 
ATOM     19  C   UNL     1      49.949   4.751  19.178  0.00  0.00    +0.000 A 
ATOM     20  C   UNL     1      51.094   4.160  18.620  0.00  0.00    +0.000 A 
ATOM     28  C   UNL     1      50.912   3.140  17.671  0.00  0.00    +0.000 A 
ATOM     29  C   UNL     1      49.625   2.795  17.222  0.00  0.00    +0.000 A 
BRANCH  20  21
ATOM     21  C   UNL     1      52.460   4.781  18.850  0.00  0.00    +0.000 C 
BRANCH  21  22
ATOM     22  N   UNL     1      52.893   5.968  18.123  0.00  0.00    +0.000 NA
ATOM     23  C   UNL     1      52.672   7.263  18.763  0.00  0.00    +0.000 C 
ATOM     24  C   UNL     1      51.341   7.932  18.389  0.00  0.00    +0.000 C 
ATOM     25  O   UNL     1      51.148   7.994  16.970  0.00  0.00    +0.000 OA
ATOM     26  C   UNL     1      51.245   6.696  16.373  0.00  0.00    +0.000 C 
ATOM     27  C   UNL     1      52.591   6.032  16.693  0.00  0.00    +0.000 C 
ENDBRANCH  21  22
ENDBRANCH  20  21
ENDBRANCH  16  17
ENDBRANCH  15  16
TORSDOF 8
ENDMDL
MODEL 6
REMARK VINA RESULT:    -6.431      2.378      3.006
REMARK INTER + INTRA:         -10.551
REMARK INTER:                  -9.955
REMARK INTRA:                  -0.595
REMARK UNBOUND:                -1.112
REMARK  Name = 
REMARK  9 active torsions:
REMARK  status: ('A' for Active; 'I' for Inactive)
REMARK    1  A    between atoms: C_1  and  C_2
REMARK    2  A    between atoms: C_2  and  C_3
REMARK    3  A    between atoms: C_3  and  O_4
REMARK    4  A    between atoms: O_4  and  C_5
REMARK    5  A    between atoms: C_12  and  C_13
REMARK    6  A    between atoms: N_15  and  C_16
REMARK    7  A    between atoms: C_16  and  C_17
REMARK    8  A    between atoms: C_20  and  C_21
REMARK    9  A    between atoms: C_21  and  N_22
REMARK                            x       y       z     vdW  Elec       q    Type
REMARK                         _______ _______ _______ _____ _____    ______ ____
ROOT
ATOM     13  C   UNL     1      44.975   6.970  12.475  0.00  0.00    +0.000 C 
ATOM     14  O   UNL     1      44.825   6.351  13.521  0.00  0.00    +0.000 OA
ATOM     15  N   UNL     1      44.216   6.691  11.372  0.00  0.00    +0.000 N 
ATOM     31  H   UNL     1      44.410   7.174  10.504  0.00  0.00    +0.000 HD
ENDROOT
BRANCH  13  12
ATOM      5  C   UNL     1      48.415   7.102  12.594  0.00  0.00    +0.000 A 
ATOM      6  N   UNL     1      49.721   7.387  12.426  0.00  0.00    +0.000 NA
ATOM      7  C   UNL     1      50.051   8.636  12.090  0.00  0.00    +0.000 A 
ATOM      8  N   UNL     1      49.221   9.660  11.918  0.00  0.00    +0.000 NA
ATOM      9  C   UNL     1      47.926   9.322  12.059  0.00  0.00    +0.000 A 
ATOM     10  S   UNL     1      46.721  10.508  11.896  0.00  0.00    +0.000 S 
ATOM     11  C   UNL     1      45.490   9.364  12.151  0.00  0.00    +0.000 A 
ATOM     12  C   UNL     1      45.953   8.069  12.350  0.00  0.00    +0.000 A 
ATOM     30  C   UNL     1      47.417   8.061  12.358  0.00  0.00    +0.000 A 
BRANCH   5   4
ATOM      4  O   UNL     1      48.087   5.843  13.052  0.00  0.00    +0.000 OA
BRANCH   4   3
ATOM      3  C   UNL     1      48.001   5.749  14.480  0.00  0.00    +0.000 C 
BRANCH   3   2
ATOM      1  C   UNL     1      46.929   3.581  13.755  0.00  0.00    +0.000 C 
ATOM      2  C   UNL     1      47.209   4.515  14.917  0.00  0.00    +0.000 C 
ENDBRANCH   3   2
ENDBRANCH   4   3
ENDBRANCH   5   4
ENDBRANCH  13  12
BRANCH  15  16
ATOM     16  C   UNL     1      43.129   5.735  11.345  0.00  0.00    +0.000 C 
BRANCH  16  17
ATOM     17  C   UNL     1      43.516   4.584  10.444  0.00  0.00    +0.000 A 
ATOM     18  C   UNL     1      43.605   3.293  10.976  0.00  0.00    +0.000 A 
ATOM     19  C   UNL     1      44.214   2.261  10.254  0.00  0.00    +0.000 A 
ATOM     20  C   UNL     1      44.750   2.488   8.977  0.00  0.00    +0.000 A 
ATOM     28  C   UNL     1      44.578   3.760   8.406  0.00  0.00    +0.000 A 
ATOM     29  C   UNL     1      43.977   4.800   9.135  0.00  0.00    +0.000 A 
BRANCH  20  21
ATOM     21  C   UNL     1      45.695   1.473   8.358  0.00  0.00    +0.000 C 
BRANCH  21  22
ATOM     22  N   UNL     1      46.968   1.872   7.768  0.00  0.00    +0.000 NA
ATOM     23  C   UNL     1      47.017   3.172   7.101  0.00  0.00    +0.000 C 
ATOM     24  C   UNL     1      46.719   3.120   5.595  0.00  0.00    +0.000 C 
ATOM     25  O   UNL     1      47.518   2.139   4.921  0.00  0.00    +0.000 OA
ATOM     26  C   UNL     1      47.361   0.843   5.511  0.00  0.00    +0.000 C 
ATOM     27  C   UNL     1      47.704   0.864   7.006  0.00  0.00    +0.000 C 
ENDBRANCH  21  22
ENDBRANCH  20  21
ENDBRANCH  16  17
ENDBRANCH  15  16
TORSDOF 8
ENDMDL
MODEL 7
REMARK VINA RESULT:    -6.384      3.661      5.313
REMARK INTER + INTRA:         -10.481
REMARK INTER:                  -9.684
REMARK INTRA:                  -0.797
REMARK UNBOUND:                -1.112
REMARK  Name = 
REMARK  9 active torsions:
REMARK  status: ('A' for Active; 'I' for Inactive)
REMARK    1  A    between atoms: C_1  and  C_2
REMARK    2  A    between atoms: C_2  and  C_3
REMARK    3  A    between atoms: C_3  and  O_4
REMARK    4  A    between atoms: O_4  and  C_5
REMARK    5  A    between atoms: C_12  and  C_13
REMARK    6  A    between atoms: N_15  and  C_16
REMARK    7  A    between atoms: C_16  and  C_17
REMARK    8  A    between atoms: C_20  and  C_21
REMARK    9  A    between atoms: C_21  and  N_22
REMARK                            x       y       z     vdW  Elec       q    Type
REMARK                         _______ _______ _______ _____ _____    ______ ____
ROOT
ATOM     13  C   UNL     1      45.523   6.947  12.397  0.00  0.00    +0.000 C 
ATOM     14  O   UNL     1      45.728   6.109  13.267  0.00  0.00    +0.000 OA
ATOM     15  N   UNL     1      44.421   6.875  11.589  0.00  0.00    +0.000 N 
ATOM     31  H   UNL     1      44.316   7.543  10.837  0.00  0.00    +0.000 HD
ENDROOT
BRANCH  13  12
ATOM      5  C   UNL     1      44.993  10.308  11.866  0.00  0.00    +0.000 A 
ATOM      6  N   UNL     1      45.056  11.653  11.825  0.00  0.00    +0.000 NA
ATOM      7  C   UNL     1      46.262  12.225  11.866  0.00  0.00    +0.000 A 
ATOM      8  N   UNL     1      47.436  11.604  11.923  0.00  0.00    +0.000 NA
ATOM      9  C   UNL     1      47.324  10.265  11.998  0.00  0.00    +0.000 A 
ATOM     10  S   UNL     1      48.723   9.303  12.057  0.00  0.00    +0.000 S 
ATOM     11  C   UNL     1      47.799   7.881  12.177  0.00  0.00    +0.000 A 
ATOM     12  C   UNL     1      46.427   8.096  12.189  0.00  0.00    +0.000 A 
ATOM     30  C   UNL     1      46.146   9.523  12.017  0.00  0.00    +0.000 A 
BRANCH   5   4
ATOM      4  O   UNL     1      43.756   9.720  11.709  0.00  0.00    +0.000 OA
BRANCH   4   3
ATOM      3  C   UNL     1      43.146   9.981  10.438  0.00  0.00    +0.000 C 
BRANCH   3   2
ATOM      1  C   UNL     1      41.350  11.062  11.846  0.00  0.00    +0.000 C 
ATOM      2  C   UNL     1      41.652  10.283  10.580  0.00  0.00    +0.000 C 
ENDBRANCH   3   2
ENDBRANCH   4   3
ENDBRANCH   5   4
ENDBRANCH  13  12
BRANCH  15  16
ATOM     16  C   UNL     1      43.367   5.892  11.727  0.00  0.00    +0.000 C 
BRANCH  16  17
ATOM     17  C   UNL     1      43.630   4.758  10.762  0.00  0.00    +0.000 A 
ATOM     18  C   UNL     1      43.719   3.449  11.245  0.00  0.00    +0.000 A 
ATOM     19  C   UNL     1      44.222   2.421  10.442  0.00  0.00    +0.000 A 
ATOM     20  C   UNL     1      44.651   2.670   9.128  0.00  0.00    +0.000 A 
ATOM     28  C   UNL     1      44.476   3.965   8.613  0.00  0.00    +0.000 A 
ATOM     29  C   UNL     1      43.980   5.001   9.423  0.00  0.00    +0.000 A 
BRANCH  20  21
ATOM     21  C   UNL     1      45.499   1.644   8.398  0.00  0.00    +0.000 C 
BRANCH  21  22
ATOM     22  N   UNL     1      46.816   1.978   7.868  0.00  0.00    +0.000 NA
ATOM     23  C   UNL     1      46.948   3.245   7.150  0.00  0.00    +0.000 C 
ATOM     24  C   UNL     1      46.736   3.136   5.633  0.00  0.00    +0.000 C 
ATOM     25  O   UNL     1      47.539   2.101   5.049  0.00  0.00    +0.000 OA
ATOM     26  C   UNL     1      47.305   0.838   5.683  0.00  0.00    +0.000 C 
ATOM     27  C   UNL     1      47.562   0.915   7.195  0.00  0.00    +0.000 C 
ENDBRANCH  21  22
ENDBRANCH  20  21
ENDBRANCH  16  17
ENDBRANCH  15  16
TORSDOF 8
ENDMDL
MODEL 8
REMARK VINA RESULT:    -6.344      3.334      9.282
REMARK INTER + INTRA:         -10.423
REMARK INTER:                  -9.421
REMARK INTRA:                  -1.001
REMARK UNBOUND:                -1.112
REMARK  Name = 
REMARK  9 active torsions:
REMARK  status: ('A' for Active; 'I' for Inactive)
REMARK    1  A    between atoms: C_1  and  C_2
REMARK    2  A    between atoms: C_2  and  C_3
REMARK    3  A    between atoms: C_3  and  O_4
REMARK    4  A    between atoms: O_4  and  C_5
REMARK    5  A    between atoms: C_12  and  C_13
REMARK    6  A    between atoms: N_15  and  C_16
REMARK    7  A    between atoms: C_16  and  C_17
REMARK    8  A    between atoms: C_20  and  C_21
REMARK    9  A    between atoms: C_21  and  N_22
REMARK                            x       y       z     vdW  Elec       q    Type
REMARK                         _______ _______ _______ _____ _____    ______ ____
ROOT
ATOM     13  C   UNL     1      46.896   4.269  14.460  0.00  0.00    +0.000 C 
ATOM     14  O   UNL     1      47.276   3.172  14.072  0.00  0.00    +0.000 OA
ATOM     15  N   UNL     1      46.788   4.551  15.795  0.00  0.00    +0.000 N 
ATOM     31  H   UNL     1      46.407   5.443  16.082  0.00  0.00    +0.000 HD
ENDROOT
BRANCH  13  12
ATOM      5  C   UNL     1      44.087   5.032  12.619  0.00  0.00    +0.000 A 
ATOM      6  N   UNL     1      43.079   5.632  11.956  0.00  0.00    +0.000 NA
ATOM      7  C   UNL     1      43.312   6.828  11.410  0.00  0.00    +0.000 A 
ATOM      8  N   UNL     1      44.458   7.502  11.431  0.00  0.00    +0.000 NA
ATOM      9  C   UNL     1      45.425   6.884  12.134  0.00  0.00    +0.000 A 
ATOM     10  S   UNL     1      46.965   7.589  12.251  0.00  0.00    +0.000 S 
ATOM     11  C   UNL     1      47.522   6.327  13.245  0.00  0.00    +0.000 A 
ATOM     12  C   UNL     1      46.563   5.359  13.521  0.00  0.00    +0.000 A 
ATOM     30  C   UNL     1      45.327   5.665  12.800  0.00  0.00    +0.000 A 
BRANCH   5   4
ATOM      4  O   UNL     1      43.876   3.750  13.081  0.00  0.00    +0.000 OA
BRANCH   4   3
ATOM      3  C   UNL     1      43.713   2.778  12.040  0.00  0.00    +0.000 C 
BRANCH   3   2
ATOM      1  C   UNL     1      44.390   2.506   9.624  0.00  0.00    +0.000 C 
ATOM      2  C   UNL     1      44.858   2.836  11.028  0.00  0.00    +0.000 C 
ENDBRANCH   3   2
ENDBRANCH   4   3
ENDBRANCH   5   4
ENDBRANCH  13  12
BRANCH  15  16
ATOM     16  C   UNL     1      47.186   3.650  16.857  0.00  0.00    +0.000 C 
BRANCH  16  17
ATOM     17  C   UNL     1      47.749   4.465  18.000  0.00  0.00    +0.000 A 
ATOM     18  C   UNL     1      46.936   5.403  18.644  0.00  0.00    +0.000 A 
ATOM     19  C   UNL     1      47.486   6.354  19.509  0.00  0.00    +0.000 A 
ATOM     20  C   UNL     1      48.866   6.395  19.760  0.00  0.00    +0.000 A 
ATOM     28  C   UNL     1      49.670   5.395  19.186  0.00  0.00    +0.000 A 
ATOM     29  C   UNL     1      49.120   4.446  18.307  0.00  0.00    +0.000 A 
BRANCH  20  21
ATOM     21  C   UNL     1      49.485   7.618  20.413  0.00  0.00    +0.000 C 
BRANCH  21  22
ATOM     22  N   UNL     1      49.693   8.857  19.675  0.00  0.00    +0.000 NA
ATOM     23  C   UNL     1      48.702   9.918  19.855  0.00  0.00    +0.000 C 
ATOM     24  C   UNL     1      47.558   9.894  18.832  0.00  0.00    +0.000 C 
ATOM     25  O   UNL     1      48.042   9.834  17.483  0.00  0.00    +0.000 OA
ATOM     26  C   UNL     1      48.915   8.715  17.291  0.00  0.00    +0.000 C 
ATOM     27  C   UNL     1      50.094   8.749  18.273  0.00  0.00    +0.000 C 
ENDBRANCH  21  22
ENDBRANCH  20  21
ENDBRANCH  16  17
ENDBRANCH  15  16
TORSDOF 8
ENDMDL
MODEL 9
REMARK VINA RESULT:    -6.301      4.206      6.449
REMARK INTER + INTRA:         -10.359
REMARK INTER:                  -8.838
REMARK INTRA:                  -1.521
REMARK UNBOUND:                -1.112
REMARK  Name = 
REMARK  9 active torsions:
REMARK  status: ('A' for Active; 'I' for Inactive)
REMARK    1  A    between atoms: C_1  and  C_2
REMARK    2  A    between atoms: C_2  and  C_3
REMARK    3  A    between atoms: C_3  and  O_4
REMARK    4  A    between atoms: O_4  and  C_5
REMARK    5  A    between atoms: C_12  and  C_13
REMARK    6  A    between atoms: N_15  and  C_16
REMARK    7  A    between atoms: C_16  and  C_17
REMARK    8  A    between atoms: C_20  and  C_21
REMARK    9  A    between atoms: C_21  and  N_22
REMARK                            x       y       z     vdW  Elec       q    Type
REMARK                         _______ _______ _______ _____ _____    ______ ____
ROOT
ATOM     13  C   UNL     1      47.363   4.146  15.240  0.00  0.00    +0.000 C 
ATOM     14  O   UNL     1      47.488   2.990  14.856  0.00  0.00    +0.000 OA
ATOM     15  N   UNL     1      46.573   5.035  14.563  0.00  0.00    +0.000 N 
ATOM     31  H   UNL     1      46.544   5.999  14.868  0.00  0.00    +0.000 HD
ENDROOT
BRANCH  13  12
ATOM      5  C   UNL     1      49.484   6.781  15.886  0.00  0.00    +0.000 A 
ATOM      6  N   UNL     1      50.160   7.817  16.420  0.00  0.00    +0.000 NA
ATOM      7  C   UNL     1      50.302   7.856  17.747  0.00  0.00    +0.000 A 
ATOM      8  N   UNL     1      49.859   6.958  18.621  0.00  0.00    +0.000 NA
ATOM      9  C   UNL     1      49.159   5.961  18.049  0.00  0.00    +0.000 A 
ATOM     10  S   UNL     1      48.533   4.709  19.010  0.00  0.00    +0.000 S 
ATOM     11  C   UNL     1      47.820   3.962  17.660  0.00  0.00    +0.000 A 
ATOM     12  C   UNL     1      48.023   4.640  16.464  0.00  0.00    +0.000 A 
ATOM     30  C   UNL     1      48.882   5.803  16.694  0.00  0.00    +0.000 A 
BRANCH   5   4
ATOM      4  O   UNL     1      49.439   6.685  14.511  0.00  0.00    +0.000 OA
BRANCH   4   3
ATOM      3  C   UNL     1      49.851   7.879  13.832  0.00  0.00    +0.000 C 
BRANCH   3   2
ATOM      1  C   UNL     1      49.420   9.038  11.631  0.00  0.00    +0.000 C 
ATOM      2  C   UNL     1      49.755   7.725  12.313  0.00  0.00    +0.000 C 
ENDBRANCH   3   2
ENDBRANCH   4   3
ENDBRANCH   5   4
ENDBRANCH  13  12
BRANCH  15  16
ATOM     16  C   UNL     1      45.756   4.698  13.417  0.00  0.00    +0.000 C 
BRANCH  16  17
ATOM     17  C   UNL     1      45.513   5.952  12.607  0.00  0.00    +0.000 A 
ATOM     18  C   UNL     1      46.180   7.133  12.949  0.00  0.00    +0.000 A 
ATOM     19  C   UNL     1      45.786   8.361  12.408  0.00  0.00    +0.000 A 
ATOM     20  C   UNL     1      44.714   8.446  11.507  0.00  0.00    +0.000 A 
ATOM     28  C   UNL     1      44.104   7.250  11.092  0.00  0.00    +0.000 A 
ATOM     29  C   UNL     1      44.492   6.017  11.644  0.00  0.00    +0.000 A 
BRANCH  20  21
ATOM     21  C   UNL     1      44.084   9.793  11.199  0.00  0.00    +0.000 C 
BRANCH  21  22
ATOM     22  N   UNL     1      42.988   9.926  10.247  0.00  0.00    +0.000 NA
ATOM     23  C   UNL     1      43.237  10.723   9.047  0.00  0.00    +0.000 C 
ATOM     24  C   UNL     1      42.854  12.204   9.182  0.00  0.00    +0.000 C 
ATOM     25  O   UNL     1      41.517  12.373   9.671  0.00  0.00    +0.000 OA
ATOM     26  C   UNL     1      41.325  11.686  10.913  0.00  0.00    +0.000 C 
ATOM     27  C   UNL     1      41.654  10.193  10.785  0.00  0.00    +0.000 C 
ENDBRANCH  21  22
ENDBRANCH  20  21
ENDBRANCH  16  17
ENDBRANCH  15  16
TORSDOF 8
ENDMDL
