MODEL 1
REMARK VINA RESULT:    -7.961      0.000      0.000
REMARK INTER + INTRA:          -9.923
REMARK INTER:                  -9.357
REMARK INTRA:                  -0.566
REMARK UNBOUND:                -0.566
REMARK  Name = 
REMARK  3 active torsions:
REMARK  status: ('A' for Active; 'I' for Inactive)
REMARK    1  A    between atoms: C_2  and  C_4
REMARK    2  A    between atoms: N_8  and  C_9
REMARK    3  A    between atoms: C_9  and  C_10
REMARK                            x       y       z     vdW  Elec       q    Type
REMARK                         _______ _______ _______ _____ _____    ______ ____
ROOT
ATOM      4  C   UNL     1      46.573   2.472   7.540  0.00  0.00    +0.000 A 
ATOM      5  C   UNL     1      46.362   3.838   7.728  0.00  0.00    +0.000 A 
ATOM      6  C   UNL     1      45.492   4.262   8.734  0.00  0.00    +0.000 A 
ATOM      7  C   UNL     1      44.848   3.328   9.531  0.00  0.00    +0.000 A 
ATOM      8  N   UNL     1      43.898   3.662  10.499  0.00  0.00    +0.000 N 
ATOM     18  N   UNL     1      45.035   2.000   9.351  0.00  0.00    +0.000 NA
ATOM     19  C   UNL     1      45.882   1.601   8.364  0.00  0.00    +0.000 A 
ATOM     22  H   UNL     1      43.655   2.795  10.975  0.00  0.00    +0.000 HD
ENDROOT
BRANCH   4   2
ATOM      1  N   UNL     1      48.628   2.605   6.252  0.00  0.00    +0.000 N 
ATOM      2  C   UNL     1      47.459   1.932   6.488  0.00  0.00    +0.000 C 
ATOM      3  O   UNL     1      47.179   0.913   5.876  0.00  0.00    +0.000 OA
ATOM     20  H   UNL     1      49.269   2.180   5.598  0.00  0.00    +0.000 HD
ATOM     21  H   UNL     1      48.999   3.295   6.892  0.00  0.00    +0.000 HD
ENDBRANCH   4   2
BRANCH   8   9
ATOM      9  C   UNL     1      43.894   4.888  11.312  0.00  0.00    +0.000 C 
ATOM     16  C   UNL     1      42.628   5.088  12.142  0.00  0.00    +0.000 C 
ATOM     17  C   UNL     1      42.959   6.060  11.063  0.00  0.00    +0.000 C 
BRANCH   9  10
ATOM     10  C   UNL     1      45.232   5.211  11.977  0.00  0.00    +0.000 A 
ATOM     11  C   UNL     1      45.962   6.359  11.622  0.00  0.00    +0.000 A 
ATOM     12  C   UNL     1      47.139   6.712  12.288  0.00  0.00    +0.000 A 
ATOM     13  C   UNL     1      47.620   5.914  13.322  0.00  0.00    +0.000 A 
ATOM     14  C   UNL     1      46.938   4.753  13.670  0.00  0.00    +0.000 A 
ATOM     15  C   UNL     1      45.766   4.402  12.997  0.00  0.00    +0.000 A 
ENDBRANCH   9  10
ENDBRANCH   8   9
TORSDOF 3
ENDMDL
MODEL 2
REMARK VINA RESULT:    -6.383      3.673      6.003
REMARK INTER + INTRA:          -8.069
REMARK INTER:                  -7.566
REMARK INTRA:                  -0.502
REMARK UNBOUND:                -0.566
REMARK  Name = 
REMARK  3 active torsions:
REMARK  status: ('A' for Active; 'I' for Inactive)
REMARK    1  A    between atoms: C_2  and  C_4
REMARK    2  A    between atoms: N_8  and  C_9
REMARK    3  A    between atoms: C_9  and  C_10
REMARK                            x       y       z     vdW  Elec       q    Type
REMARK                         _______ _______ _______ _____ _____    ______ ____
ROOT
ATOM      4  C   UNL     1      48.459   6.916  13.407  0.00  0.00    +0.000 A 
ATOM      5  C   UNL     1      47.704   5.816  13.811  0.00  0.00    +0.000 A 
ATOM      6  C   UNL     1      46.492   5.549  13.174  0.00  0.00    +0.000 A 
ATOM      7  C   UNL     1      46.050   6.376  12.152  0.00  0.00    +0.000 A 
ATOM      8  N   UNL     1      44.811   6.232  11.522  0.00  0.00    +0.000 N 
ATOM     18  N   UNL     1      46.767   7.453  11.758  0.00  0.00    +0.000 NA
ATOM     19  C   UNL     1      47.946   7.703  12.391  0.00  0.00    +0.000 A 
ATOM     22  H   UNL     1      44.789   6.919  10.770  0.00  0.00    +0.000 HD
ENDROOT
BRANCH   4   2
ATOM      1  N   UNL     1      50.712   7.804  13.218  0.00  0.00    +0.000 N 
ATOM      2  C   UNL     1      49.743   7.287  14.037  0.00  0.00    +0.000 C 
ATOM      3  O   UNL     1      49.926   7.166  15.238  0.00  0.00    +0.000 OA
ATOM     20  H   UNL     1      51.551   8.139  13.669  0.00  0.00    +0.000 HD
ATOM     21  H   UNL     1      50.516   8.139  12.284  0.00  0.00    +0.000 HD
ENDBRANCH   4   2
BRANCH   8   9
ATOM      9  C   UNL     1      44.113   4.960  11.278  0.00  0.00    +0.000 C 
ATOM     16  C   UNL     1      42.596   5.036  11.432  0.00  0.00    +0.000 C 
ATOM     17  C   UNL     1      43.386   4.179  12.361  0.00  0.00    +0.000 C 
BRANCH   9  10
ATOM     10  C   UNL     1      44.665   4.149  10.106  0.00  0.00    +0.000 A 
ATOM     11  C   UNL     1      45.358   4.772   9.053  0.00  0.00    +0.000 A 
ATOM     12  C   UNL     1      45.945   4.030   8.025  0.00  0.00    +0.000 A 
ATOM     13  C   UNL     1      45.841   2.642   8.020  0.00  0.00    +0.000 A 
ATOM     14  C   UNL     1      45.129   2.002   9.029  0.00  0.00    +0.000 A 
ATOM     15  C   UNL     1      44.540   2.749  10.051  0.00  0.00    +0.000 A 
ENDBRANCH   9  10
ENDBRANCH   8   9
TORSDOF 3
ENDMDL
MODEL 3
REMARK VINA RESULT:    -6.294      3.651      6.302
REMARK INTER + INTRA:          -7.963
REMARK INTER:                  -7.627
REMARK INTRA:                  -0.337
REMARK UNBOUND:                -0.566
REMARK  Name = 
REMARK  3 active torsions:
REMARK  status: ('A' for Active; 'I' for Inactive)
REMARK    1  A    between atoms: C_2  and  C_4
REMARK    2  A    between atoms: N_8  and  C_9
REMARK    3  A    between atoms: C_9  and  C_10
REMARK                            x       y       z     vdW  Elec       q    Type
REMARK                         _______ _______ _______ _____ _____    ______ ____
ROOT
ATOM      4  C   UNL     1      47.986   6.163  14.403  0.00  0.00    +0.000 A 
ATOM      5  C   UNL     1      47.148   5.059  14.554  0.00  0.00    +0.000 A 
ATOM      6  C   UNL     1      46.164   4.812  13.595  0.00  0.00    +0.000 A 
ATOM      7  C   UNL     1      46.027   5.664  12.509  0.00  0.00    +0.000 A 
ATOM      8  N   UNL     1      45.015   5.541  11.553  0.00  0.00    +0.000 N 
ATOM     18  N   UNL     1      46.825   6.745  12.357  0.00  0.00    +0.000 NA
ATOM     19  C   UNL     1      47.778   6.975  13.302  0.00  0.00    +0.000 A 
ATOM     22  H   UNL     1      45.205   6.244  10.841  0.00  0.00    +0.000 HD
ENDROOT
BRANCH   4   2
ATOM      1  N   UNL     1      49.543   7.785  15.320  0.00  0.00    +0.000 N 
ATOM      2  C   UNL     1      49.040   6.513  15.377  0.00  0.00    +0.000 C 
ATOM      3  O   UNL     1      49.428   5.714  16.216  0.00  0.00    +0.000 OA
ATOM     20  H   UNL     1      50.197   8.045  16.045  0.00  0.00    +0.000 HD
ATOM     21  H   UNL     1      49.085   8.531  14.812  0.00  0.00    +0.000 HD
ENDBRANCH   4   2
BRANCH   8   9
ATOM      9  C   UNL     1      44.415   4.278  11.095  0.00  0.00    +0.000 C 
ATOM     16  C   UNL     1      42.896   4.214  11.240  0.00  0.00    +0.000 C 
ATOM     17  C   UNL     1      43.749   3.277  12.024  0.00  0.00    +0.000 C 
BRANCH   9  10
ATOM     10  C   UNL     1      45.026   3.716   9.811  0.00  0.00    +0.000 A 
ATOM     11  C   UNL     1      45.546   4.566   8.820  0.00  0.00    +0.000 A 
ATOM     12  C   UNL     1      46.189   4.060   7.687  0.00  0.00    +0.000 A 
ATOM     13  C   UNL     1      46.316   2.685   7.513  0.00  0.00    +0.000 A 
ATOM     14  C   UNL     1      45.778   1.819   8.460  0.00  0.00    +0.000 A 
ATOM     15  C   UNL     1      45.132   2.331   9.587  0.00  0.00    +0.000 A 
ENDBRANCH   9  10
ENDBRANCH   8   9
TORSDOF 3
ENDMDL
MODEL 4
REMARK VINA RESULT:    -5.762      3.717      6.394
REMARK INTER + INTRA:          -7.338
REMARK INTER:                  -7.343
REMARK INTRA:                   0.005
REMARK UNBOUND:                -0.566
REMARK  Name = 
REMARK  3 active torsions:
REMARK  status: ('A' for Active; 'I' for Inactive)
REMARK    1  A    between atoms: C_2  and  C_4
REMARK    2  A    between atoms: N_8  and  C_9
REMARK    3  A    between atoms: C_9  and  C_10
REMARK                            x       y       z     vdW  Elec       q    Type
REMARK                         _______ _______ _______ _____ _____    ______ ____
ROOT
ATOM      4  C   UNL     1      45.503   8.933  11.951  0.00  0.00    +0.000 A 
ATOM      5  C   UNL     1      46.034   7.786  12.539  0.00  0.00    +0.000 A 
ATOM      6  C   UNL     1      45.438   6.550  12.286  0.00  0.00    +0.000 A 
ATOM      7  C   UNL     1      44.327   6.474  11.460  0.00  0.00    +0.000 A 
ATOM      8  N   UNL     1      43.617   5.293  11.224  0.00  0.00    +0.000 N 
ATOM     18  N   UNL     1      43.794   7.581  10.893  0.00  0.00    +0.000 NA
ATOM     19  C   UNL     1      44.384   8.780  11.152  0.00  0.00    +0.000 A 
ATOM     22  H   UNL     1      42.909   5.517  10.528  0.00  0.00    +0.000 HD
ENDROOT
BRANCH   4   2
ATOM      1  N   UNL     1      45.175  11.333  12.137  0.00  0.00    +0.000 N 
ATOM      2  C   UNL     1      46.056  10.284  12.178  0.00  0.00    +0.000 C 
ATOM      3  O   UNL     1      47.240  10.459  12.422  0.00  0.00    +0.000 OA
ATOM     20  H   UNL     1      45.544  12.240  12.382  0.00  0.00    +0.000 HD
ATOM     21  H   UNL     1      44.173  11.205  12.180  0.00  0.00    +0.000 HD
ENDBRANCH   4   2
BRANCH   8   9
ATOM      9  C   UNL     1      44.193   3.941  11.173  0.00  0.00    +0.000 C 
ATOM     16  C   UNL     1      43.281   2.847  11.725  0.00  0.00    +0.000 C 
ATOM     17  C   UNL     1      44.573   3.140  12.408  0.00  0.00    +0.000 C 
BRANCH   9  10
ATOM     10  C   UNL     1      44.971   3.632   9.894  0.00  0.00    +0.000 A 
ATOM     11  C   UNL     1      45.201   2.306   9.485  0.00  0.00    +0.000 A 
ATOM     12  C   UNL     1      45.830   2.015   8.271  0.00  0.00    +0.000 A 
ATOM     13  C   UNL     1      46.256   3.048   7.441  0.00  0.00    +0.000 A 
ATOM     14  C   UNL     1      46.075   4.369   7.838  0.00  0.00    +0.000 A 
ATOM     15  C   UNL     1      45.451   4.654   9.054  0.00  0.00    +0.000 A 
ENDBRANCH   9  10
ENDBRANCH   8   9
TORSDOF 3
ENDMDL
MODEL 5
REMARK VINA RESULT:    -5.439      3.453      5.461
REMARK INTER + INTRA:          -6.958
REMARK INTER:                  -7.228
REMARK INTRA:                   0.270
REMARK UNBOUND:                -0.566
REMARK  Name = 
REMARK  3 active torsions:
REMARK  status: ('A' for Active; 'I' for Inactive)
REMARK    1  A    between atoms: C_2  and  C_4
REMARK    2  A    between atoms: N_8  and  C_9
REMARK    3  A    between atoms: C_9  and  C_10
REMARK                            x       y       z     vdW  Elec       q    Type
REMARK                         _______ _______ _______ _____ _____    ______ ____
ROOT
ATOM      4  C   UNL     1      44.653   3.980  11.489  0.00  0.00    +0.000 A 
ATOM      5  C   UNL     1      44.918   5.102  10.705  0.00  0.00    +0.000 A 
ATOM      6  C   UNL     1      45.570   6.195  11.278  0.00  0.00    +0.000 A 
ATOM      7  C   UNL     1      45.944   6.157  12.612  0.00  0.00    +0.000 A 
ATOM      8  N   UNL     1      46.520   7.238  13.285  0.00  0.00    +0.000 N 
ATOM     18  N   UNL     1      45.682   5.079  13.386  0.00  0.00    +0.000 NA
ATOM     19  C   UNL     1      45.042   4.022  12.816  0.00  0.00    +0.000 A 
ATOM     22  H   UNL     1      46.757   6.903  14.217  0.00  0.00    +0.000 HD
ENDROOT
BRANCH   4   2
ATOM      1  N   UNL     1      44.493   2.169   9.878  0.00  0.00    +0.000 N 
ATOM      2  C   UNL     1      43.951   2.786  10.973  0.00  0.00    +0.000 C 
ATOM      3  O   UNL     1      42.948   2.348  11.517  0.00  0.00    +0.000 OA
ATOM     20  H   UNL     1      44.060   1.304   9.587  0.00  0.00    +0.000 HD
ATOM     21  H   UNL     1      45.435   2.353   9.558  0.00  0.00    +0.000 HD
ENDBRANCH   4   2
BRANCH   8   9
ATOM      9  C   UNL     1      47.420   8.239  12.691  0.00  0.00    +0.000 C 
ATOM     16  C   UNL     1      48.538   7.649  11.834  0.00  0.00    +0.000 C 
ATOM     17  C   UNL     1      48.881   8.392  13.080  0.00  0.00    +0.000 C 
BRANCH   9  10
ATOM     10  C   UNL     1      46.717   9.492  12.170  0.00  0.00    +0.000 A 
ATOM     11  C   UNL     1      45.315   9.580  12.137  0.00  0.00    +0.000 A 
ATOM     12  C   UNL     1      44.665  10.755  11.749  0.00  0.00    +0.000 A 
ATOM     13  C   UNL     1      45.407  11.870  11.373  0.00  0.00    +0.000 A 
ATOM     14  C   UNL     1      46.796  11.801  11.361  0.00  0.00    +0.000 A 
ATOM     15  C   UNL     1      47.440  10.622  11.744  0.00  0.00    +0.000 A 
ENDBRANCH   9  10
ENDBRANCH   8   9
TORSDOF 3
ENDMDL
MODEL 6
REMARK VINA RESULT:    -5.421      3.269      5.309
REMARK INTER + INTRA:          -6.937
REMARK INTER:                  -6.938
REMARK INTRA:                   0.000
REMARK UNBOUND:                -0.566
REMARK  Name = 
REMARK  3 active torsions:
REMARK  status: ('A' for Active; 'I' for Inactive)
REMARK    1  A    between atoms: C_2  and  C_4
REMARK    2  A    between atoms: N_8  and  C_9
REMARK    3  A    between atoms: C_9  and  C_10
REMARK                            x       y       z     vdW  Elec       q    Type
REMARK                         _______ _______ _______ _____ _____    ______ ____
ROOT
ATOM      4  C   UNL     1      44.875   4.888  11.031  0.00  0.00    +0.000 A 
ATOM      5  C   UNL     1      45.816   5.806  10.565  0.00  0.00    +0.000 A 
ATOM      6  C   UNL     1      46.496   6.611  11.480  0.00  0.00    +0.000 A 
ATOM      7  C   UNL     1      46.230   6.493  12.836  0.00  0.00    +0.000 A 
ATOM      8  N   UNL     1      46.799   7.318  13.810  0.00  0.00    +0.000 N 
ATOM     18  N   UNL     1      45.312   5.615  13.300  0.00  0.00    +0.000 NA
ATOM     19  C   UNL     1      44.654   4.839  12.396  0.00  0.00    +0.000 A 
ATOM     22  H   UNL     1      46.489   6.958  14.710  0.00  0.00    +0.000 HD
ENDROOT
BRANCH   4   2
ATOM      1  N   UNL     1      44.101   4.318   8.800  0.00  0.00    +0.000 N 
ATOM      2  C   UNL     1      44.095   4.010  10.135  0.00  0.00    +0.000 C 
ATOM      3  O   UNL     1      43.494   3.034  10.558  0.00  0.00    +0.000 OA
ATOM     20  H   UNL     1      43.641   3.663   8.184  0.00  0.00    +0.000 HD
ATOM     21  H   UNL     1      44.769   4.958   8.391  0.00  0.00    +0.000 HD
ENDBRANCH   4   2
BRANCH   8   9
ATOM      9  C   UNL     1      48.149   7.901  13.760  0.00  0.00    +0.000 C 
ATOM     16  C   UNL     1      48.173   9.416  13.568  0.00  0.00    +0.000 C 
ATOM     17  C   UNL     1      48.747   8.533  12.513  0.00  0.00    +0.000 C 
BRANCH   9  10
ATOM     10  C   UNL     1      49.137   7.301  14.760  0.00  0.00    +0.000 A 
ATOM     11  C   UNL     1      50.502   7.634  14.725  0.00  0.00    +0.000 A 
ATOM     12  C   UNL     1      51.394   7.163  15.691  0.00  0.00    +0.000 A 
ATOM     13  C   UNL     1      50.942   6.334  16.713  0.00  0.00    +0.000 A 
ATOM     14  C   UNL     1      49.603   5.957  16.752  0.00  0.00    +0.000 A 
ATOM     15  C   UNL     1      48.717   6.427  15.780  0.00  0.00    +0.000 A 
ENDBRANCH   9  10
ENDBRANCH   8   9
TORSDOF 3
ENDMDL
MODEL 7
REMARK VINA RESULT:    -5.383      3.912      6.155
REMARK INTER + INTRA:          -6.893
REMARK INTER:                  -7.150
REMARK INTRA:                   0.257
REMARK UNBOUND:                -0.566
REMARK  Name = 
REMARK  3 active torsions:
REMARK  status: ('A' for Active; 'I' for Inactive)
REMARK    1  A    between atoms: C_2  and  C_4
REMARK    2  A    between atoms: N_8  and  C_9
REMARK    3  A    between atoms: C_9  and  C_10
REMARK                            x       y       z     vdW  Elec       q    Type
REMARK                         _______ _______ _______ _____ _____    ______ ____
ROOT
ATOM      4  C   UNL     1      48.977   7.704  13.091  0.00  0.00    +0.000 A 
ATOM      5  C   UNL     1      48.169   7.615  11.958  0.00  0.00    +0.000 A 
ATOM      6  C   UNL     1      47.187   6.625  11.896  0.00  0.00    +0.000 A 
ATOM      7  C   UNL     1      47.027   5.742  12.954  0.00  0.00    +0.000 A 
ATOM      8  N   UNL     1      46.132   4.670  12.937  0.00  0.00    +0.000 N 
ATOM     18  N   UNL     1      47.812   5.811  14.053  0.00  0.00    +0.000 NA
ATOM     19  C   UNL     1      48.768   6.779  14.098  0.00  0.00    +0.000 A 
ATOM     22  H   UNL     1      46.171   4.247  13.862  0.00  0.00    +0.000 HD
ENDROOT
BRANCH   4   2
ATOM      1  N   UNL     1      49.685  10.026  13.195  0.00  0.00    +0.000 N 
ATOM      2  C   UNL     1      50.053   8.707  13.235  0.00  0.00    +0.000 C 
ATOM      3  O   UNL     1      51.215   8.378  13.413  0.00  0.00    +0.000 OA
ATOM     20  H   UNL     1      50.410  10.702  13.385  0.00  0.00    +0.000 HD
ATOM     21  H   UNL     1      48.724  10.327  13.292  0.00  0.00    +0.000 HD
ENDBRANCH   4   2
BRANCH   8   9
ATOM      9  C   UNL     1      44.828   4.650  12.255  0.00  0.00    +0.000 C 
ATOM     16  C   UNL     1      43.953   5.869  12.536  0.00  0.00    +0.000 C 
ATOM     17  C   UNL     1      43.500   4.522  12.983  0.00  0.00    +0.000 C 
BRANCH   9  10
ATOM     10  C   UNL     1      44.872   4.128  10.819  0.00  0.00    +0.000 A 
ATOM     11  C   UNL     1      45.380   4.919   9.773  0.00  0.00    +0.000 A 
ATOM     12  C   UNL     1      45.510   4.417   8.475  0.00  0.00    +0.000 A 
ATOM     13  C   UNL     1      45.122   3.112   8.190  0.00  0.00    +0.000 A 
ATOM     14  C   UNL     1      44.581   2.319   9.197  0.00  0.00    +0.000 A 
ATOM     15  C   UNL     1      44.448   2.827  10.491  0.00  0.00    +0.000 A 
ENDBRANCH   9  10
ENDBRANCH   8   9
TORSDOF 3
ENDMDL
MODEL 8
REMARK VINA RESULT:    -5.279      3.362      5.544
REMARK INTER + INTRA:          -6.771
REMARK INTER:                  -6.960
REMARK INTRA:                   0.189
REMARK UNBOUND:                -0.566
REMARK  Name = 
REMARK  3 active torsions:
REMARK  status: ('A' for Active; 'I' for Inactive)
REMARK    1  A    between atoms: C_2  and  C_4
REMARK    2  A    between atoms: N_8  and  C_9
REMARK    3  A    between atoms: C_9  and  C_10
REMARK                            x       y       z     vdW  Elec       q    Type
REMARK                         _______ _______ _______ _____ _____    ______ ____
ROOT
ATOM      4  C   UNL     1      44.779   5.002  10.949  0.00  0.00    +0.000 A 
ATOM      5  C   UNL     1      45.834   5.795  10.497  0.00  0.00    +0.000 A 
ATOM      6  C   UNL     1      46.442   6.689  11.379  0.00  0.00    +0.000 A 
ATOM      7  C   UNL     1      45.994   6.783  12.688  0.00  0.00    +0.000 A 
ATOM      8  N   UNL     1      46.487   7.711  13.609  0.00  0.00    +0.000 N 
ATOM     18  N   UNL     1      44.964   6.029  13.136  0.00  0.00    +0.000 NA
ATOM     19  C   UNL     1      44.378   5.164  12.264  0.00  0.00    +0.000 A 
ATOM     22  H   UNL     1      46.037   7.501  14.498  0.00  0.00    +0.000 HD
ENDROOT
BRANCH   4   2
ATOM      1  N   UNL     1      44.063   4.301   8.737  0.00  0.00    +0.000 N 
ATOM      2  C   UNL     1      44.063   4.044  10.082  0.00  0.00    +0.000 C 
ATOM      3  O   UNL     1      43.520   3.049  10.538  0.00  0.00    +0.000 OA
ATOM     20  H   UNL     1      43.651   3.595   8.143  0.00  0.00    +0.000 HD
ATOM     21  H   UNL     1      44.694   4.965   8.308  0.00  0.00    +0.000 HD
ENDBRANCH   4   2
BRANCH   8   9
ATOM      9  C   UNL     1      47.869   8.212  13.668  0.00  0.00    +0.000 C 
ATOM     16  C   UNL     1      48.922   7.128  13.889  0.00  0.00    +0.000 C 
ATOM     17  C   UNL     1      48.723   8.179  14.926  0.00  0.00    +0.000 C 
BRANCH   9  10
ATOM     10  C   UNL     1      48.189   9.310  12.654  0.00  0.00    +0.000 A 
ATOM     11  C   UNL     1      49.467   9.419  12.079  0.00  0.00    +0.000 A 
ATOM     12  C   UNL     1      49.742  10.360  11.083  0.00  0.00    +0.000 A 
ATOM     13  C   UNL     1      48.744  11.227  10.648  0.00  0.00    +0.000 A 
ATOM     14  C   UNL     1      47.481  11.167  11.227  0.00  0.00    +0.000 A 
ATOM     15  C   UNL     1      47.213  10.227  12.225  0.00  0.00    +0.000 A 
ENDBRANCH   9  10
ENDBRANCH   8   9
TORSDOF 3
ENDMDL
MODEL 9
REMARK VINA RESULT:    -5.185      4.766      7.123
REMARK INTER + INTRA:          -6.660
REMARK INTER:                  -6.845
REMARK INTRA:                   0.184
REMARK UNBOUND:                -0.566
REMARK  Name = 
REMARK  3 active torsions:
REMARK  status: ('A' for Active; 'I' for Inactive)
REMARK    1  A    between atoms: C_2  and  C_4
REMARK    2  A    between atoms: N_8  and  C_9
REMARK    3  A    between atoms: C_9  and  C_10
REMARK                            x       y       z     vdW  Elec       q    Type
REMARK                         _______ _______ _______ _____ _____    ______ ____
ROOT
ATOM      4  C   UNL     1      48.420   3.941  17.168  0.00  0.00    +0.000 A 
ATOM      5  C   UNL     1      47.989   5.151  16.626  0.00  0.00    +0.000 A 
ATOM      6  C   UNL     1      47.425   5.165  15.349  0.00  0.00    +0.000 A 
ATOM      7  C   UNL     1      47.301   3.984  14.634  0.00  0.00    +0.000 A 
ATOM      8  N   UNL     1      46.830   3.921  13.320  0.00  0.00    +0.000 N 
ATOM     18  N   UNL     1      47.725   2.805  15.144  0.00  0.00    +0.000 NA
ATOM     19  C   UNL     1      48.277   2.806  16.388  0.00  0.00    +0.000 A 
ATOM     22  H   UNL     1      46.773   2.933  13.082  0.00  0.00    +0.000 HD
ENDROOT
BRANCH   4   2
ATOM      1  N   UNL     1      48.359   3.134  19.458  0.00  0.00    +0.000 N 
ATOM      2  C   UNL     1      49.046   3.833  18.501  0.00  0.00    +0.000 C 
ATOM      3  O   UNL     1      50.142   4.319  18.736  0.00  0.00    +0.000 OA
ATOM     20  H   UNL     1      48.833   2.987  20.337  0.00  0.00    +0.000 HD
ATOM     21  H   UNL     1      47.582   2.525  19.236  0.00  0.00    +0.000 HD
ENDBRANCH   4   2
BRANCH   8   9
ATOM      9  C   UNL     1      45.813   4.805  12.729  0.00  0.00    +0.000 C 
ATOM     16  C   UNL     1      44.395   4.565  13.245  0.00  0.00    +0.000 C 
ATOM     17  C   UNL     1      44.706   4.316  11.809  0.00  0.00    +0.000 C 
BRANCH   9  10
ATOM     10  C   UNL     1      46.262   6.255  12.546  0.00  0.00    +0.000 A 
ATOM     11  C   UNL     1      45.425   7.326  12.905  0.00  0.00    +0.000 A 
ATOM     12  C   UNL     1      45.861   8.651  12.828  0.00  0.00    +0.000 A 
ATOM     13  C   UNL     1      47.146   8.937  12.377  0.00  0.00    +0.000 A 
ATOM     14  C   UNL     1      47.983   7.899  11.981  0.00  0.00    +0.000 A 
ATOM     15  C   UNL     1      47.540   6.577  12.055  0.00  0.00    +0.000 A 
ENDBRANCH   9  10
ENDBRANCH   8   9
TORSDOF 3
ENDMDL
