MODEL 1
REMARK VINA RESULT:    -8.047      0.000      0.000
REMARK INTER + INTRA:         -10.974
REMARK INTER:                 -10.399
REMARK INTRA:                  -0.575
REMARK UNBOUND:                -0.575
REMARK  Name = 
REMARK  5 active torsions:
REMARK  status: ('A' for Active; 'I' for Inactive)
REMARK    1  A    between atoms: C_2  and  C_18
REMARK    2  A    between atoms: N_3  and  C_4
REMARK    3  A    between atoms: C_4  and  C_5
REMARK    4  A    between atoms: C_8  and  C_9
REMARK    5  A    between atoms: C_9  and  N_10
REMARK                            x       y       z     vdW  Elec       q    Type
REMARK                         _______ _______ _______ _____ _____    ______ ____
ROOT
ATOM      1  O   UNL     1      46.553   3.141  13.518  0.00  0.00    +0.000 OA
ATOM      2  C   UNL     1      46.293   4.310  13.785  0.00  0.00    +0.000 C 
ATOM      3  N   UNL     1      45.070   4.873  13.526  0.00  0.00    +0.000 N 
ATOM     28  H   UNL     1      44.952   5.873  13.637  0.00  0.00    +0.000 HD
ENDROOT
BRANCH   2  18
ATOM     18  C   UNL     1      47.275   5.183  14.447  0.00  0.00    +0.000 A 
ATOM     19  C   UNL     1      47.910   6.184  13.726  0.00  0.00    +0.000 A 
ATOM     20  S   UNL     1      49.020   7.094  14.649  0.00  0.00    +0.000 S 
ATOM     21  C   UNL     1      48.658   6.208  16.058  0.00  0.00    +0.000 A 
ATOM     22  N   UNL     1      49.251   6.503  17.243  0.00  0.00    +0.000 NA
ATOM     23  C   UNL     1      48.846   5.791  18.239  0.00  0.00    +0.000 A 
ATOM     24  N   UNL     1      47.910   4.795  18.157  0.00  0.00    +0.000 N 
ATOM     25  C   UNL     1      47.350   4.404  16.965  0.00  0.00    +0.000 A 
ATOM     26  O   UNL     1      46.630   3.411  16.908  0.00  0.00    +0.000 OA
ATOM     27  C   UNL     1      47.726   5.216  15.820  0.00  0.00    +0.000 A 
ATOM     29  H   UNL     1      47.658   4.248  18.967  0.00  0.00    +0.000 HD
ENDBRANCH   2  18
BRANCH   3   4
ATOM      4  C   UNL     1      44.036   4.205  12.779  0.00  0.00    +0.000 C 
BRANCH   4   5
ATOM      5  C   UNL     1      44.421   4.019  11.332  0.00  0.00    +0.000 A 
ATOM      6  C   UNL     1      44.167   2.796  10.698  0.00  0.00    +0.000 A 
ATOM      7  C   UNL     1      44.478   2.611   9.349  0.00  0.00    +0.000 A 
ATOM      8  C   UNL     1      45.052   3.640   8.594  0.00  0.00    +0.000 A 
ATOM     16  C   UNL     1      45.354   4.850   9.243  0.00  0.00    +0.000 A 
ATOM     17  C   UNL     1      45.049   5.035  10.599  0.00  0.00    +0.000 A 
BRANCH   8   9
ATOM      9  C   UNL     1      45.416   3.417   7.143  0.00  0.00    +0.000 C 
BRANCH   9  10
ATOM     10  N   UNL     1      46.788   3.050   6.797  0.00  0.00    +0.000 NA
ATOM     11  C   UNL     1      47.164   3.141   5.384  0.00  0.00    +0.000 C 
ATOM     12  C   UNL     1      46.996   1.833   4.595  0.00  0.00    +0.000 C 
ATOM     13  O   UNL     1      47.680   0.747   5.231  0.00  0.00    +0.000 OA
ATOM     14  C   UNL     1      47.208   0.557   6.569  0.00  0.00    +0.000 C 
ATOM     15  C   UNL     1      47.334   1.836   7.412  0.00  0.00    +0.000 C 
ENDBRANCH   9  10
ENDBRANCH   8   9
ENDBRANCH   4   5
ENDBRANCH   3   4
TORSDOF 5
ENDMDL
MODEL 2
REMARK VINA RESULT:    -7.598      1.850      2.716
REMARK INTER + INTRA:         -10.394
REMARK INTER:                  -9.591
REMARK INTRA:                  -0.803
REMARK UNBOUND:                -0.575
REMARK  Name = 
REMARK  5 active torsions:
REMARK  status: ('A' for Active; 'I' for Inactive)
REMARK    1  A    between atoms: C_2  and  C_18
REMARK    2  A    between atoms: N_3  and  C_4
REMARK    3  A    between atoms: C_4  and  C_5
REMARK    4  A    between atoms: C_8  and  C_9
REMARK    5  A    between atoms: C_9  and  N_10
REMARK                            x       y       z     vdW  Elec       q    Type
REMARK                         _______ _______ _______ _____ _____    ______ ____
ROOT
ATOM      1  O   UNL     1      46.598   3.755  14.187  0.00  0.00    +0.000 OA
ATOM      2  C   UNL     1      46.615   4.974  14.049  0.00  0.00    +0.000 C 
ATOM      3  N   UNL     1      45.561   5.671  13.517  0.00  0.00    +0.000 N 
ATOM     28  H   UNL     1      45.678   6.653  13.298  0.00  0.00    +0.000 HD
ENDROOT
BRANCH   2  18
ATOM     18  C   UNL     1      47.762   5.781  14.492  0.00  0.00    +0.000 A 
ATOM     19  C   UNL     1      48.235   5.659  15.790  0.00  0.00    +0.000 A 
ATOM     20  S   UNL     1      49.565   6.672  16.133  0.00  0.00    +0.000 S 
ATOM     21  C   UNL     1      49.582   7.279  14.541  0.00  0.00    +0.000 A 
ATOM     22  N   UNL     1      50.514   8.184  14.146  0.00  0.00    +0.000 NA
ATOM     23  C   UNL     1      50.446   8.517  12.902  0.00  0.00    +0.000 A 
ATOM     24  N   UNL     1      49.517   8.040  12.016  0.00  0.00    +0.000 N 
ATOM     25  C   UNL     1      48.503   7.193  12.393  0.00  0.00    +0.000 A 
ATOM     26  O   UNL     1      47.604   6.906  11.608  0.00  0.00    +0.000 OA
ATOM     27  C   UNL     1      48.571   6.738  13.771  0.00  0.00    +0.000 A 
ATOM     29  H   UNL     1      49.493   8.366  11.060  0.00  0.00    +0.000 HD
ENDBRANCH   2  18
BRANCH   3   4
ATOM      4  C   UNL     1      44.413   5.036  12.925  0.00  0.00    +0.000 C 
BRANCH   4   5
ATOM      5  C   UNL     1      44.689   4.579  11.514  0.00  0.00    +0.000 A 
ATOM      6  C   UNL     1      44.434   3.250  11.154  0.00  0.00    +0.000 A 
ATOM      7  C   UNL     1      44.645   2.811   9.844  0.00  0.00    +0.000 A 
ATOM      8  C   UNL     1      45.118   3.685   8.859  0.00  0.00    +0.000 A 
ATOM     16  C   UNL     1      45.422   5.005   9.233  0.00  0.00    +0.000 A 
ATOM     17  C   UNL     1      45.218   5.446  10.548  0.00  0.00    +0.000 A 
BRANCH   8   9
ATOM      9  C   UNL     1      45.374   3.190   7.452  0.00  0.00    +0.000 C 
BRANCH   9  10
ATOM     10  N   UNL     1      46.745   2.902   7.034  0.00  0.00    +0.000 NA
ATOM     11  C   UNL     1      47.099   3.228   5.650  0.00  0.00    +0.000 C 
ATOM     12  C   UNL     1      46.934   2.064   4.661  0.00  0.00    +0.000 C 
ATOM     13  O   UNL     1      47.640   0.897   5.102  0.00  0.00    +0.000 OA
ATOM     14  C   UNL     1      47.189   0.485   6.397  0.00  0.00    +0.000 C 
ATOM     15  C   UNL     1      47.314   1.612   7.435  0.00  0.00    +0.000 C 
ENDBRANCH   9  10
ENDBRANCH   8   9
ENDBRANCH   4   5
ENDBRANCH   3   4
TORSDOF 5
ENDMDL
MODEL 3
REMARK VINA RESULT:    -6.938      3.699      5.327
REMARK INTER + INTRA:          -9.541
REMARK INTER:                  -8.319
REMARK INTRA:                  -1.222
REMARK UNBOUND:                -0.575
REMARK  Name = 
REMARK  5 active torsions:
REMARK  status: ('A' for Active; 'I' for Inactive)
REMARK    1  A    between atoms: C_2  and  C_18
REMARK    2  A    between atoms: N_3  and  C_4
REMARK    3  A    between atoms: C_4  and  C_5
REMARK    4  A    between atoms: C_8  and  C_9
REMARK    5  A    between atoms: C_9  and  N_10
REMARK                            x       y       z     vdW  Elec       q    Type
REMARK                         _______ _______ _______ _____ _____    ______ ____
ROOT
ATOM      1  O   UNL     1      48.799   8.633  16.340  0.00  0.00    +0.000 OA
ATOM      2  C   UNL     1      49.135   7.505  15.993  0.00  0.00    +0.000 C 
ATOM      3  N   UNL     1      49.398   7.182  14.687  0.00  0.00    +0.000 N 
ATOM     28  H   UNL     1      49.535   6.210  14.435  0.00  0.00    +0.000 HD
ENDROOT
BRANCH   2  18
ATOM     18  C   UNL     1      49.322   6.424  16.973  0.00  0.00    +0.000 A 
ATOM     19  C   UNL     1      50.220   6.585  18.018  0.00  0.00    +0.000 A 
ATOM     20  S   UNL     1      50.314   5.232  19.054  0.00  0.00    +0.000 S 
ATOM     21  C   UNL     1      49.124   4.399  18.164  0.00  0.00    +0.000 A 
ATOM     22  N   UNL     1      48.702   3.165  18.541  0.00  0.00    +0.000 NA
ATOM     23  C   UNL     1      47.759   2.673  17.812  0.00  0.00    +0.000 A 
ATOM     24  N   UNL     1      47.207   3.297  16.725  0.00  0.00    +0.000 N 
ATOM     25  C   UNL     1      47.663   4.505  16.256  0.00  0.00    +0.000 A 
ATOM     26  O   UNL     1      47.247   4.961  15.194  0.00  0.00    +0.000 OA
ATOM     27  C   UNL     1      48.684   5.132  17.078  0.00  0.00    +0.000 A 
ATOM     29  H   UNL     1      46.494   2.845  16.170  0.00  0.00    +0.000 HD
ENDBRANCH   2  18
BRANCH   3   4
ATOM      4  C   UNL     1      49.153   8.077  13.587  0.00  0.00    +0.000 C 
BRANCH   4   5
ATOM      5  C   UNL     1      47.815   7.818  12.940  0.00  0.00    +0.000 A 
ATOM      6  C   UNL     1      47.708   6.853  11.930  0.00  0.00    +0.000 A 
ATOM      7  C   UNL     1      46.473   6.566  11.343  0.00  0.00    +0.000 A 
ATOM      8  C   UNL     1      45.311   7.235  11.744  0.00  0.00    +0.000 A 
ATOM     16  C   UNL     1      45.428   8.239  12.721  0.00  0.00    +0.000 A 
ATOM     17  C   UNL     1      46.667   8.533  13.307  0.00  0.00    +0.000 A 
BRANCH   8   9
ATOM      9  C   UNL     1      43.986   6.940  11.077  0.00  0.00    +0.000 C 
BRANCH   9  10
ATOM     10  N   UNL     1      43.267   5.715  11.424  0.00  0.00    +0.000 NA
ATOM     11  C   UNL     1      43.212   5.357  12.844  0.00  0.00    +0.000 C 
ATOM     12  C   UNL     1      44.328   4.406  13.303  0.00  0.00    +0.000 C 
ATOM     13  O   UNL     1      44.383   3.229  12.487  0.00  0.00    +0.000 OA
ATOM     14  C   UNL     1      44.587   3.570  11.112  0.00  0.00    +0.000 C 
ATOM     15  C   UNL     1      43.510   4.534  10.590  0.00  0.00    +0.000 C 
ENDBRANCH   9  10
ENDBRANCH   8   9
ENDBRANCH   4   5
ENDBRANCH   3   4
TORSDOF 5
ENDMDL
MODEL 4
REMARK VINA RESULT:    -6.907      4.439      9.805
REMARK INTER + INTRA:          -9.501
REMARK INTER:                  -8.846
REMARK INTRA:                  -0.655
REMARK UNBOUND:                -0.575
REMARK  Name = 
REMARK  5 active torsions:
REMARK  status: ('A' for Active; 'I' for Inactive)
REMARK    1  A    between atoms: C_2  and  C_18
REMARK    2  A    between atoms: N_3  and  C_4
REMARK    3  A    between atoms: C_4  and  C_5
REMARK    4  A    between atoms: C_8  and  C_9
REMARK    5  A    between atoms: C_9  and  N_10
REMARK                            x       y       z     vdW  Elec       q    Type
REMARK                         _______ _______ _______ _____ _____    ______ ____
ROOT
ATOM      1  O   UNL     1      47.182   3.177  13.993  0.00  0.00    +0.000 OA
ATOM      2  C   UNL     1      46.829   4.271  14.423  0.00  0.00    +0.000 C 
ATOM      3  N   UNL     1      46.969   4.628  15.739  0.00  0.00    +0.000 N 
ATOM     28  H   UNL     1      46.536   5.483  16.068  0.00  0.00    +0.000 HD
ENDROOT
BRANCH   2  18
ATOM     18  C   UNL     1      46.264   5.298  13.534  0.00  0.00    +0.000 A 
ATOM     19  C   UNL     1      47.012   6.420  13.208  0.00  0.00    +0.000 A 
ATOM     20  S   UNL     1      46.201   7.508  12.174  0.00  0.00    +0.000 S 
ATOM     21  C   UNL     1      44.833   6.495  12.091  0.00  0.00    +0.000 A 
ATOM     22  N   UNL     1      43.760   6.826  11.330  0.00  0.00    +0.000 NA
ATOM     23  C   UNL     1      42.819   5.946  11.314  0.00  0.00    +0.000 A 
ATOM     24  N   UNL     1      42.844   4.764  12.005  0.00  0.00    +0.000 N 
ATOM     25  C   UNL     1      43.869   4.428  12.856  0.00  0.00    +0.000 A 
ATOM     26  O   UNL     1      43.787   3.434  13.573  0.00  0.00    +0.000 OA
ATOM     27  C   UNL     1      44.985   5.359  12.864  0.00  0.00    +0.000 A 
ATOM     29  H   UNL     1      42.059   4.129  11.982  0.00  0.00    +0.000 HD
ENDBRANCH   2  18
BRANCH   3   4
ATOM      4  C   UNL     1      47.389   3.711  16.766  0.00  0.00    +0.000 C 
BRANCH   4   5
ATOM      5  C   UNL     1      48.868   3.820  17.044  0.00  0.00    +0.000 A 
ATOM      6  C   UNL     1      49.480   5.080  17.058  0.00  0.00    +0.000 A 
ATOM      7  C   UNL     1      50.840   5.212  17.351  0.00  0.00    +0.000 A 
ATOM      8  C   UNL     1      51.627   4.091  17.636  0.00  0.00    +0.000 A 
ATOM     16  C   UNL     1      51.024   2.823  17.572  0.00  0.00    +0.000 A 
ATOM     17  C   UNL     1      49.661   2.688  17.271  0.00  0.00    +0.000 A 
BRANCH   8   9
ATOM      9  C   UNL     1      53.105   4.243  17.919  0.00  0.00    +0.000 C 
BRANCH   9  10
ATOM     10  N   UNL     1      53.539   4.677  19.246  0.00  0.00    +0.000 NA
ATOM     11  C   UNL     1      52.847   4.089  20.396  0.00  0.00    +0.000 C 
ATOM     12  C   UNL     1      51.656   4.913  20.910  0.00  0.00    +0.000 C 
ATOM     13  O   UNL     1      52.035   6.267  21.186  0.00  0.00    +0.000 OA
ATOM     14  C   UNL     1      52.577   6.895  20.019  0.00  0.00    +0.000 C 
ATOM     15  C   UNL     1      53.767   6.111  19.443  0.00  0.00    +0.000 C 
ENDBRANCH   9  10
ENDBRANCH   8   9
ENDBRANCH   4   5
ENDBRANCH   3   4
TORSDOF 5
ENDMDL
MODEL 5
REMARK VINA RESULT:    -6.626      4.483     10.254
REMARK INTER + INTRA:          -9.138
REMARK INTER:                  -8.491
REMARK INTRA:                  -0.648
REMARK UNBOUND:                -0.575
REMARK  Name = 
REMARK  5 active torsions:
REMARK  status: ('A' for Active; 'I' for Inactive)
REMARK    1  A    between atoms: C_2  and  C_18
REMARK    2  A    between atoms: N_3  and  C_4
REMARK    3  A    between atoms: C_4  and  C_5
REMARK    4  A    between atoms: C_8  and  C_9
REMARK    5  A    between atoms: C_9  and  N_10
REMARK                            x       y       z     vdW  Elec       q    Type
REMARK                         _______ _______ _______ _____ _____    ______ ____
ROOT
ATOM      1  O   UNL     1      47.181   3.164  14.015  0.00  0.00    +0.000 OA
ATOM      2  C   UNL     1      46.841   4.263  14.442  0.00  0.00    +0.000 C 
ATOM      3  N   UNL     1      46.977   4.618  15.759  0.00  0.00    +0.000 N 
ATOM     28  H   UNL     1      46.556   5.480  16.085  0.00  0.00    +0.000 HD
ENDROOT
BRANCH   2  18
ATOM     18  C   UNL     1      46.301   5.300  13.548  0.00  0.00    +0.000 A 
ATOM     19  C   UNL     1      47.081   6.394  13.206  0.00  0.00    +0.000 A 
ATOM     20  S   UNL     1      46.294   7.498  12.169  0.00  0.00    +0.000 S 
ATOM     21  C   UNL     1      44.896   6.527  12.106  0.00  0.00    +0.000 A 
ATOM     22  N   UNL     1      43.826   6.884  11.351  0.00  0.00    +0.000 NA
ATOM     23  C   UNL     1      42.859   6.033  11.351  0.00  0.00    +0.000 A 
ATOM     24  N   UNL     1      42.853   4.857  12.053  0.00  0.00    +0.000 N 
ATOM     25  C   UNL     1      43.875   4.497  12.898  0.00  0.00    +0.000 A 
ATOM     26  O   UNL     1      43.769   3.513  13.624  0.00  0.00    +0.000 OA
ATOM     27  C   UNL     1      45.018   5.393  12.888  0.00  0.00    +0.000 A 
ATOM     29  H   UNL     1      42.049   4.246  12.041  0.00  0.00    +0.000 HD
ENDBRANCH   2  18
BRANCH   3   4
ATOM      4  C   UNL     1      47.374   3.695  16.789  0.00  0.00    +0.000 C 
BRANCH   4   5
ATOM      5  C   UNL     1      47.717   4.403  18.076  0.00  0.00    +0.000 A 
ATOM      6  C   UNL     1      48.807   3.966  18.839  0.00  0.00    +0.000 A 
ATOM      7  C   UNL     1      49.170   4.629  20.014  0.00  0.00    +0.000 A 
ATOM      8  C   UNL     1      48.454   5.746  20.462  0.00  0.00    +0.000 A 
ATOM     16  C   UNL     1      47.330   6.153  19.723  0.00  0.00    +0.000 A 
ATOM     17  C   UNL     1      46.960   5.485  18.547  0.00  0.00    +0.000 A 
BRANCH   8   9
ATOM      9  C   UNL     1      48.836   6.435  21.753  0.00  0.00    +0.000 C 
BRANCH   9  10
ATOM     10  N   UNL     1      49.578   7.693  21.700  0.00  0.00    +0.000 NA
ATOM     11  C   UNL     1      48.802   8.928  21.840  0.00  0.00    +0.000 C 
ATOM     12  C   UNL     1      48.354   9.552  20.509  0.00  0.00    +0.000 C 
ATOM     13  O   UNL     1      49.463   9.749  19.624  0.00  0.00    +0.000 OA
ATOM     14  C   UNL     1      50.138   8.514  19.364  0.00  0.00    +0.000 C 
ATOM     15  C   UNL     1      50.601   7.827  20.659  0.00  0.00    +0.000 C 
ENDBRANCH   9  10
ENDBRANCH   8   9
ENDBRANCH   4   5
ENDBRANCH   3   4
TORSDOF 5
ENDMDL
MODEL 6
REMARK VINA RESULT:    -6.594      4.861      7.803
REMARK INTER + INTRA:          -9.097
REMARK INTER:                  -8.306
REMARK INTRA:                  -0.791
REMARK UNBOUND:                -0.575
REMARK  Name = 
REMARK  5 active torsions:
REMARK  status: ('A' for Active; 'I' for Inactive)
REMARK    1  A    between atoms: C_2  and  C_18
REMARK    2  A    between atoms: N_3  and  C_4
REMARK    3  A    between atoms: C_4  and  C_5
REMARK    4  A    between atoms: C_8  and  C_9
REMARK    5  A    between atoms: C_9  and  N_10
REMARK                            x       y       z     vdW  Elec       q    Type
REMARK                         _______ _______ _______ _____ _____    ______ ____
ROOT
ATOM      1  O   UNL     1      44.718   7.687  11.076  0.00  0.00    +0.000 OA
ATOM      2  C   UNL     1      45.044   6.793  11.850  0.00  0.00    +0.000 C 
ATOM      3  N   UNL     1      45.799   7.025  12.970  0.00  0.00    +0.000 N 
ATOM     28  H   UNL     1      46.156   6.238  13.498  0.00  0.00    +0.000 HD
ENDROOT
BRANCH   2  18
ATOM     18  C   UNL     1      44.604   5.404  11.647  0.00  0.00    +0.000 A 
ATOM     19  C   UNL     1      43.876   4.757  12.635  0.00  0.00    +0.000 A 
ATOM     20  S   UNL     1      43.455   3.152  12.235  0.00  0.00    +0.000 S 
ATOM     21  C   UNL     1      44.197   3.281  10.707  0.00  0.00    +0.000 A 
ATOM     22  N   UNL     1      44.173   2.248   9.827  0.00  0.00    +0.000 NA
ATOM     23  C   UNL     1      44.723   2.499   8.688  0.00  0.00    +0.000 A 
ATOM     24  N   UNL     1      45.313   3.687   8.351  0.00  0.00    +0.000 N 
ATOM     25  C   UNL     1      45.438   4.728   9.240  0.00  0.00    +0.000 A 
ATOM     26  O   UNL     1      46.104   5.719   8.952  0.00  0.00    +0.000 OA
ATOM     27  C   UNL     1      44.780   4.519  10.518  0.00  0.00    +0.000 A 
ATOM     29  H   UNL     1      45.759   3.812   7.454  0.00  0.00    +0.000 HD
ENDBRANCH   2  18
BRANCH   3   4
ATOM      4  C   UNL     1      46.413   8.295  13.260  0.00  0.00    +0.000 C 
BRANCH   4   5
ATOM      5  C   UNL     1      47.770   8.423  12.613  0.00  0.00    +0.000 A 
ATOM      6  C   UNL     1      48.143   9.635  12.018  0.00  0.00    +0.000 A 
ATOM      7  C   UNL     1      49.408   9.792  11.446  0.00  0.00    +0.000 A 
ATOM      8  C   UNL     1      50.336   8.743  11.451  0.00  0.00    +0.000 A 
ATOM     16  C   UNL     1      49.942   7.512  12.002  0.00  0.00    +0.000 A 
ATOM     17  C   UNL     1      48.671   7.350  12.570  0.00  0.00    +0.000 A 
BRANCH   8   9
ATOM      9  C   UNL     1      51.690   8.914  10.799  0.00  0.00    +0.000 C 
BRANCH   9  10
ATOM     10  N   UNL     1      52.520   7.736  10.555  0.00  0.00    +0.000 NA
ATOM     11  C   UNL     1      53.907   7.792  11.024  0.00  0.00    +0.000 C 
ATOM     12  C   UNL     1      54.915   8.277   9.970  0.00  0.00    +0.000 C 
ATOM     13  O   UNL     1      54.820   7.511   8.763  0.00  0.00    +0.000 OA
ATOM     14  C   UNL     1      53.498   7.575   8.218  0.00  0.00    +0.000 C 
ATOM     15  C   UNL     1      52.435   7.116   9.229  0.00  0.00    +0.000 C 
ENDBRANCH   9  10
ENDBRANCH   8   9
ENDBRANCH   4   5
ENDBRANCH   3   4
TORSDOF 5
ENDMDL
MODEL 7
REMARK VINA RESULT:    -6.588      3.711      9.953
REMARK INTER + INTRA:          -9.089
REMARK INTER:                  -8.191
REMARK INTRA:                  -0.898
REMARK UNBOUND:                -0.575
REMARK  Name = 
REMARK  5 active torsions:
REMARK  status: ('A' for Active; 'I' for Inactive)
REMARK    1  A    between atoms: C_2  and  C_18
REMARK    2  A    between atoms: N_3  and  C_4
REMARK    3  A    between atoms: C_4  and  C_5
REMARK    4  A    between atoms: C_8  and  C_9
REMARK    5  A    between atoms: C_9  and  N_10
REMARK                            x       y       z     vdW  Elec       q    Type
REMARK                         _______ _______ _______ _____ _____    ______ ____
ROOT
ATOM      1  O   UNL     1      48.555   5.966  14.007  0.00  0.00    +0.000 OA
ATOM      2  C   UNL     1      47.409   5.548  14.140  0.00  0.00    +0.000 C 
ATOM      3  N   UNL     1      47.018   4.796  15.217  0.00  0.00    +0.000 N 
ATOM     28  H   UNL     1      46.103   4.361  15.211  0.00  0.00    +0.000 HD
ENDROOT
BRANCH   2  18
ATOM     18  C   UNL     1      46.358   5.867  13.162  0.00  0.00    +0.000 A 
ATOM     19  C   UNL     1      46.092   7.189  12.837  0.00  0.00    +0.000 A 
ATOM     20  S   UNL     1      44.839   7.374  11.693  0.00  0.00    +0.000 S 
ATOM     21  C   UNL     1      44.638   5.688  11.560  0.00  0.00    +0.000 A 
ATOM     22  N   UNL     1      43.727   5.156  10.705  0.00  0.00    +0.000 NA
ATOM     23  C   UNL     1      43.717   3.867  10.664  0.00  0.00    +0.000 A 
ATOM     24  N   UNL     1      44.526   3.056  11.413  0.00  0.00    +0.000 N 
ATOM     25  C   UNL     1      45.399   3.548  12.353  0.00  0.00    +0.000 A 
ATOM     26  O   UNL     1      45.997   2.788  13.110  0.00  0.00    +0.000 OA
ATOM     27  C   UNL     1      45.493   4.997  12.397  0.00  0.00    +0.000 A 
ATOM     29  H   UNL     1      44.447   2.050  11.362  0.00  0.00    +0.000 HD
ENDBRANCH   2  18
BRANCH   3   4
ATOM      4  C   UNL     1      47.937   4.292  16.204  0.00  0.00    +0.000 C 
BRANCH   4   5
ATOM      5  C   UNL     1      48.098   5.247  17.361  0.00  0.00    +0.000 A 
ATOM      6  C   UNL     1      49.250   6.040  17.450  0.00  0.00    +0.000 A 
ATOM      7  C   UNL     1      49.406   6.961  18.489  0.00  0.00    +0.000 A 
ATOM      8  C   UNL     1      48.418   7.115  19.469  0.00  0.00    +0.000 A 
ATOM     16  C   UNL     1      47.287   6.284  19.407  0.00  0.00    +0.000 A 
ATOM     17  C   UNL     1      47.131   5.354  18.369  0.00  0.00    +0.000 A 
BRANCH   8   9
ATOM      9  C   UNL     1      48.613   8.092  20.608  0.00  0.00    +0.000 C 
BRANCH   9  10
ATOM     10  N   UNL     1      48.380   9.516  20.377  0.00  0.00    +0.000 NA
ATOM     11  C   UNL     1      47.321   9.870  19.429  0.00  0.00    +0.000 C 
ATOM     12  C   UNL     1      47.804  10.083  17.986  0.00  0.00    +0.000 C 
ATOM     13  O   UNL     1      48.874  11.034  17.926  0.00  0.00    +0.000 OA
ATOM     14  C   UNL     1      49.977  10.615  18.738  0.00  0.00    +0.000 C 
ATOM     15  C   UNL     1      49.558  10.370  20.196  0.00  0.00    +0.000 C 
ENDBRANCH   9  10
ENDBRANCH   8   9
ENDBRANCH   4   5
ENDBRANCH   3   4
TORSDOF 5
ENDMDL
MODEL 8
REMARK VINA RESULT:    -6.452      3.712      8.683
REMARK INTER + INTRA:          -8.913
REMARK INTER:                  -8.066
REMARK INTRA:                  -0.847
REMARK UNBOUND:                -0.575
REMARK  Name = 
REMARK  5 active torsions:
REMARK  status: ('A' for Active; 'I' for Inactive)
REMARK    1  A    between atoms: C_2  and  C_18
REMARK    2  A    between atoms: N_3  and  C_4
REMARK    3  A    between atoms: C_4  and  C_5
REMARK    4  A    between atoms: C_8  and  C_9
REMARK    5  A    between atoms: C_9  and  N_10
REMARK                            x       y       z     vdW  Elec       q    Type
REMARK                         _______ _______ _______ _____ _____    ______ ____
ROOT
ATOM      1  O   UNL     1      45.348   7.779  12.401  0.00  0.00    +0.000 OA
ATOM      2  C   UNL     1      46.106   7.022  11.803  0.00  0.00    +0.000 C 
ATOM      3  N   UNL     1      47.469   7.164  11.837  0.00  0.00    +0.000 N 
ATOM     28  H   UNL     1      48.040   6.602  11.218  0.00  0.00    +0.000 HD
ENDROOT
BRANCH   2  18
ATOM     18  C   UNL     1      45.597   5.874  11.037  0.00  0.00    +0.000 A 
ATOM     19  C   UNL     1      45.912   5.746   9.692  0.00  0.00    +0.000 A 
ATOM     20  S   UNL     1      45.234   4.361   8.959  0.00  0.00    +0.000 S 
ATOM     21  C   UNL     1      44.531   3.861  10.429  0.00  0.00    +0.000 A 
ATOM     22  N   UNL     1      43.822   2.707  10.510  0.00  0.00    +0.000 NA
ATOM     23  C   UNL     1      43.393   2.421  11.691  0.00  0.00    +0.000 A 
ATOM     24  N   UNL     1      43.595   3.194  12.803  0.00  0.00    +0.000 N 
ATOM     25  C   UNL     1      44.230   4.411  12.751  0.00  0.00    +0.000 A 
ATOM     26  O   UNL     1      44.260   5.144  13.736  0.00  0.00    +0.000 OA
ATOM     27  C   UNL     1      44.787   4.752  11.453  0.00  0.00    +0.000 A 
ATOM     29  H   UNL     1      43.203   2.934  13.697  0.00  0.00    +0.000 HD
ENDBRANCH   2  18
BRANCH   3   4
ATOM      4  C   UNL     1      48.131   8.294  12.436  0.00  0.00    +0.000 C 
BRANCH   4   5
ATOM      5  C   UNL     1      48.521   8.021  13.867  0.00  0.00    +0.000 A 
ATOM      6  C   UNL     1      48.005   8.825  14.892  0.00  0.00    +0.000 A 
ATOM      7  C   UNL     1      48.319   8.570  16.229  0.00  0.00    +0.000 A 
ATOM      8  C   UNL     1      49.158   7.507  16.581  0.00  0.00    +0.000 A 
ATOM     16  C   UNL     1      49.717   6.732  15.550  0.00  0.00    +0.000 A 
ATOM     17  C   UNL     1      49.408   6.991  14.207  0.00  0.00    +0.000 A 
BRANCH   8   9
ATOM      9  C   UNL     1      49.519   7.260  18.029  0.00  0.00    +0.000 C 
BRANCH   9  10
ATOM     10  N   UNL     1      48.929   6.120  18.730  0.00  0.00    +0.000 NA
ATOM     11  C   UNL     1      49.765   4.926  18.876  0.00  0.00    +0.000 C 
ATOM     12  C   UNL     1      49.580   3.881  17.764  0.00  0.00    +0.000 C 
ATOM     13  O   UNL     1      48.203   3.518  17.610  0.00  0.00    +0.000 OA
ATOM     14  C   UNL     1      47.400   4.667  17.318  0.00  0.00    +0.000 C 
ATOM     15  C   UNL     1      47.550   5.761  18.387  0.00  0.00    +0.000 C 
ENDBRANCH   9  10
ENDBRANCH   8   9
ENDBRANCH   4   5
ENDBRANCH   3   4
TORSDOF 5
ENDMDL
MODEL 9
REMARK VINA RESULT:    -6.391      4.537      6.440
REMARK INTER + INTRA:          -8.835
REMARK INTER:                  -7.954
REMARK INTRA:                  -0.881
REMARK UNBOUND:                -0.575
REMARK  Name = 
REMARK  5 active torsions:
REMARK  status: ('A' for Active; 'I' for Inactive)
REMARK    1  A    between atoms: C_2  and  C_18
REMARK    2  A    between atoms: N_3  and  C_4
REMARK    3  A    between atoms: C_4  and  C_5
REMARK    4  A    between atoms: C_8  and  C_9
REMARK    5  A    between atoms: C_9  and  N_10
REMARK                            x       y       z     vdW  Elec       q    Type
REMARK                         _______ _______ _______ _____ _____    ______ ____
ROOT
ATOM      1  O   UNL     1      47.368   3.132  14.537  0.00  0.00    +0.000 OA
ATOM      2  C   UNL     1      47.255   4.261  15.005  0.00  0.00    +0.000 C 
ATOM      3  N   UNL     1      46.543   5.252  14.381  0.00  0.00    +0.000 N 
ATOM     28  H   UNL     1      46.596   6.199  14.737  0.00  0.00    +0.000 HD
ENDROOT
BRANCH   2  18
ATOM     18  C   UNL     1      47.848   4.616  16.304  0.00  0.00    +0.000 A 
ATOM     19  C   UNL     1      47.484   3.916  17.446  0.00  0.00    +0.000 A 
ATOM     20  S   UNL     1      48.263   4.464  18.862  0.00  0.00    +0.000 S 
ATOM     21  C   UNL     1      49.148   5.630  17.990  0.00  0.00    +0.000 A 
ATOM     22  N   UNL     1      50.046   6.437  18.610  0.00  0.00    +0.000 NA
ATOM     23  C   UNL     1      50.685   7.235  17.824  0.00  0.00    +0.000 A 
ATOM     24  N   UNL     1      50.497   7.312  16.470  0.00  0.00    +0.000 N 
ATOM     25  C   UNL     1      49.538   6.578  15.814  0.00  0.00    +0.000 A 
ATOM     26  O   UNL     1      49.296   6.784  14.627  0.00  0.00    +0.000 OA
ATOM     27  C   UNL     1      48.831   5.619  16.644  0.00  0.00    +0.000 A 
ATOM     29  H   UNL     1      51.003   7.984  15.910  0.00  0.00    +0.000 HD
ENDBRANCH   2  18
BRANCH   3   4
ATOM      4  C   UNL     1      46.000   5.118  13.054  0.00  0.00    +0.000 C 
BRANCH   4   5
ATOM      5  C   UNL     1      45.495   6.435  12.519  0.00  0.00    +0.000 A 
ATOM      6  C   UNL     1      44.465   6.449  11.570  0.00  0.00    +0.000 A 
ATOM      7  C   UNL     1      43.953   7.656  11.088  0.00  0.00    +0.000 A 
ATOM      8  C   UNL     1      44.455   8.883  11.538  0.00  0.00    +0.000 A 
ATOM     16  C   UNL     1      45.523   8.868  12.452  0.00  0.00    +0.000 A 
ATOM     17  C   UNL     1      46.043   7.657  12.932  0.00  0.00    +0.000 A 
BRANCH   8   9
ATOM      9  C   UNL     1      43.916  10.183  10.984  0.00  0.00    +0.000 C 
BRANCH   9  10
ATOM     10  N   UNL     1      42.806  10.150  10.034  0.00  0.00    +0.000 NA
ATOM     11  C   UNL     1      43.005  10.836   8.755  0.00  0.00    +0.000 C 
ATOM     12  C   UNL     1      42.511  12.291   8.731  0.00  0.00    +0.000 C 
ATOM     13  O   UNL     1      41.144  12.388   9.149  0.00  0.00    +0.000 OA
ATOM     14  C   UNL     1      40.971  11.851  10.465  0.00  0.00    +0.000 C 
ATOM     15  C   UNL     1      41.461  10.397  10.562  0.00  0.00    +0.000 C 
ENDBRANCH   9  10
ENDBRANCH   8   9
ENDBRANCH   4   5
ENDBRANCH   3   4
TORSDOF 5
ENDMDL
