MODEL 1
REMARK VINA RESULT:    -7.885      0.000      0.000
REMARK INTER + INTRA:         -10.218
REMARK INTER:                  -9.959
REMARK INTRA:                  -0.259
REMARK UNBOUND:                -0.259
REMARK  Name = 
REMARK  5 active torsions:
REMARK  status: ('A' for Active; 'I' for Inactive)
REMARK    1  A    between atoms: N_1  and  C_2
REMARK    2  A    between atoms: C_2  and  C_3
REMARK    3  A    between atoms: C_6  and  C_7
REMARK    4  A    between atoms: C_7  and  N_8
REMARK    5  A    between atoms: C_12  and  C_13
REMARK                            x       y       z     vdW  Elec       q    Type
REMARK                         _______ _______ _______ _____ _____    ______ ____
ROOT
ATOM      8  N   UNL     1      44.683   5.609  10.473  0.00  0.00    +0.000 N 
ATOM      9  C   UNL     1      45.351   5.277  11.661  0.00  0.00    +0.000 A 
ATOM     10  C   UNL     1      46.086   6.264  12.313  0.00  0.00    +0.000 A 
ATOM     11  C   UNL     1      46.750   5.951  13.502  0.00  0.00    +0.000 A 
ATOM     12  C   UNL     1      46.668   4.660  14.020  0.00  0.00    +0.000 A 
ATOM     16  C   UNL     1      45.929   3.740  13.298  0.00  0.00    +0.000 A 
ATOM     17  N   UNL     1      45.285   4.019  12.139  0.00  0.00    +0.000 NA
ATOM     22  H   UNL     1      44.051   6.383  10.652  0.00  0.00    +0.000 HD
ENDROOT
BRANCH  12  13
ATOM     13  C   UNL     1      47.355   4.335  15.292  0.00  0.00    +0.000 C 
ATOM     14  N   UNL     1      47.630   5.343  16.174  0.00  0.00    +0.000 N 
ATOM     15  O   UNL     1      47.683   3.183  15.558  0.00  0.00    +0.000 OA
ATOM     23  H   UNL     1      47.404   6.318  16.059  0.00  0.00    +0.000 HD
ATOM     24  H   UNL     1      48.100   5.075  17.027  0.00  0.00    +0.000 HD
ENDBRANCH  12  13
BRANCH   8   7
ATOM      7  C   UNL     1      43.980   4.481   9.866  0.00  0.00    +0.000 C 
BRANCH   7   6
ATOM      3  C   UNL     1      46.690   2.155   7.399  0.00  0.00    +0.000 A 
ATOM      4  C   UNL     1      46.613   3.546   7.247  0.00  0.00    +0.000 A 
ATOM      5  C   UNL     1      45.736   4.302   8.028  0.00  0.00    +0.000 A 
ATOM      6  C   UNL     1      44.892   3.683   8.958  0.00  0.00    +0.000 A 
ATOM     18  C   UNL     1      44.967   2.289   9.106  0.00  0.00    +0.000 A 
ATOM     19  C   UNL     1      45.853   1.533   8.332  0.00  0.00    +0.000 A 
BRANCH   3   2
ATOM      2  C   UNL     1      47.657   1.351   6.566  0.00  0.00    +0.000 C 
BRANCH   2   1
ATOM      1  N   UNL     1      48.543   2.212   5.788  0.00  0.00    +0.000 NA
ATOM     20  H   UNL     1      49.019   2.856   6.415  0.00  0.00    +0.000 HD
ATOM     21  H   UNL     1      47.976   2.781   5.159  0.00  0.00    +0.000 HD
ENDBRANCH   2   1
ENDBRANCH   3   2
ENDBRANCH   7   6
ENDBRANCH   8   7
TORSDOF 5
ENDMDL
MODEL 2
REMARK VINA RESULT:    -7.510      1.390      1.835
REMARK INTER + INTRA:          -9.744
REMARK INTER:                  -9.400
REMARK INTRA:                  -0.344
REMARK UNBOUND:                -0.259
REMARK  Name = 
REMARK  5 active torsions:
REMARK  status: ('A' for Active; 'I' for Inactive)
REMARK    1  A    between atoms: N_1  and  C_2
REMARK    2  A    between atoms: C_2  and  C_3
REMARK    3  A    between atoms: C_6  and  C_7
REMARK    4  A    between atoms: C_7  and  N_8
REMARK    5  A    between atoms: C_12  and  C_13
REMARK                            x       y       z     vdW  Elec       q    Type
REMARK                         _______ _______ _______ _____ _____    ______ ____
ROOT
ATOM      8  N   UNL     1      44.348   3.717  11.301  0.00  0.00    +0.000 N 
ATOM      9  C   UNL     1      45.271   4.540  11.961  0.00  0.00    +0.000 A 
ATOM     10  C   UNL     1      45.587   4.262  13.289  0.00  0.00    +0.000 A 
ATOM     11  C   UNL     1      46.510   5.068  13.959  0.00  0.00    +0.000 A 
ATOM     12  C   UNL     1      47.106   6.137  13.292  0.00  0.00    +0.000 A 
ATOM     16  C   UNL     1      46.722   6.350  11.979  0.00  0.00    +0.000 A 
ATOM     17  N   UNL     1      45.821   5.586  11.314  0.00  0.00    +0.000 NA
ATOM     22  H   UNL     1      44.676   2.756  11.335  0.00  0.00    +0.000 HD
ENDROOT
BRANCH  12  13
ATOM     13  C   UNL     1      48.101   6.978  13.996  0.00  0.00    +0.000 C 
ATOM     14  N   UNL     1      47.704   8.175  14.524  0.00  0.00    +0.000 N 
ATOM     15  O   UNL     1      49.270   6.620  14.103  0.00  0.00    +0.000 OA
ATOM     23  H   UNL     1      46.775   8.563  14.497  0.00  0.00    +0.000 HD
ATOM     24  H   UNL     1      48.417   8.715  14.994  0.00  0.00    +0.000 HD
ENDBRANCH  12  13
BRANCH   8   7
ATOM      7  C   UNL     1      44.074   4.135   9.928  0.00  0.00    +0.000 C 
BRANCH   7   6
ATOM      3  C   UNL     1      46.761   2.057   7.225  0.00  0.00    +0.000 A 
ATOM      4  C   UNL     1      46.542   3.434   7.085  0.00  0.00    +0.000 A 
ATOM      5  C   UNL     1      45.672   4.110   7.942  0.00  0.00    +0.000 A 
ATOM      6  C   UNL     1      44.973   3.420   8.941  0.00  0.00    +0.000 A 
ATOM     18  C   UNL     1      45.188   2.039   9.077  0.00  0.00    +0.000 A 
ATOM     19  C   UNL     1      46.069   1.364   8.227  0.00  0.00    +0.000 A 
BRANCH   3   2
ATOM      2  C   UNL     1      47.721   1.341   6.309  0.00  0.00    +0.000 C 
BRANCH   2   1
ATOM      1  N   UNL     1      48.395   2.269   5.405  0.00  0.00    +0.000 NA
ATOM     20  H   UNL     1      47.736   2.584   4.697  0.00  0.00    +0.000 HD
ATOM     21  H   UNL     1      49.134   1.767   4.913  0.00  0.00    +0.000 HD
ENDBRANCH   2   1
ENDBRANCH   3   2
ENDBRANCH   7   6
ENDBRANCH   8   7
TORSDOF 5
ENDMDL
MODEL 3
REMARK VINA RESULT:    -7.405      2.292      3.003
REMARK INTER + INTRA:          -9.612
REMARK INTER:                  -9.294
REMARK INTRA:                  -0.318
REMARK UNBOUND:                -0.259
REMARK  Name = 
REMARK  5 active torsions:
REMARK  status: ('A' for Active; 'I' for Inactive)
REMARK    1  A    between atoms: N_1  and  C_2
REMARK    2  A    between atoms: C_2  and  C_3
REMARK    3  A    between atoms: C_6  and  C_7
REMARK    4  A    between atoms: C_7  and  N_8
REMARK    5  A    between atoms: C_12  and  C_13
REMARK                            x       y       z     vdW  Elec       q    Type
REMARK                         _______ _______ _______ _____ _____    ______ ____
ROOT
ATOM      8  N   UNL     1      45.022   3.067  11.212  0.00  0.00    +0.000 N 
ATOM      9  C   UNL     1      45.165   4.398  11.632  0.00  0.00    +0.000 A 
ATOM     10  C   UNL     1      45.779   4.651  12.856  0.00  0.00    +0.000 A 
ATOM     11  C   UNL     1      45.936   5.971  13.285  0.00  0.00    +0.000 A 
ATOM     12  C   UNL     1      45.481   7.017  12.484  0.00  0.00    +0.000 A 
ATOM     16  C   UNL     1      44.870   6.673  11.291  0.00  0.00    +0.000 A 
ATOM     17  N   UNL     1      44.698   5.399  10.861  0.00  0.00    +0.000 NA
ATOM     22  H   UNL     1      45.937   2.627  11.184  0.00  0.00    +0.000 HD
ENDROOT
BRANCH  12  13
ATOM     13  C   UNL     1      45.668   8.417  12.930  0.00  0.00    +0.000 C 
ATOM     14  N   UNL     1      46.571   8.683  13.920  0.00  0.00    +0.000 N 
ATOM     15  O   UNL     1      45.022   9.332  12.429  0.00  0.00    +0.000 OA
ATOM     23  H   UNL     1      47.155   8.012  14.396  0.00  0.00    +0.000 HD
ATOM     24  H   UNL     1      46.665   9.651  14.192  0.00  0.00    +0.000 HD
ENDBRANCH  12  13
BRANCH   8   7
ATOM      7  C   UNL     1      44.330   2.933   9.931  0.00  0.00    +0.000 C 
BRANCH   7   6
ATOM      3  C   UNL     1      46.994   2.266   6.570  0.00  0.00    +0.000 A 
ATOM      4  C   UNL     1      46.725   1.231   7.476  0.00  0.00    +0.000 A 
ATOM      5  C   UNL     1      45.878   1.438   8.567  0.00  0.00    +0.000 A 
ATOM      6  C   UNL     1      45.305   2.695   8.797  0.00  0.00    +0.000 A 
ATOM     18  C   UNL     1      45.578   3.733   7.892  0.00  0.00    +0.000 A 
ATOM     19  C   UNL     1      46.416   3.522   6.793  0.00  0.00    +0.000 A 
BRANCH   3   2
ATOM      2  C   UNL     1      47.891   2.024   5.382  0.00  0.00    +0.000 C 
BRANCH   2   1
ATOM      1  N   UNL     1      47.242   1.188   4.378  0.00  0.00    +0.000 NA
ATOM     20  H   UNL     1      47.279   1.656   3.476  0.00  0.00    +0.000 HD
ATOM     21  H   UNL     1      46.255   1.095   4.618  0.00  0.00    +0.000 HD
ENDBRANCH   2   1
ENDBRANCH   3   2
ENDBRANCH   7   6
ENDBRANCH   8   7
TORSDOF 5
ENDMDL
MODEL 4
REMARK VINA RESULT:    -7.154      2.796      6.771
REMARK INTER + INTRA:          -9.295
REMARK INTER:                  -9.011
REMARK INTRA:                  -0.284
REMARK UNBOUND:                -0.259
REMARK  Name = 
REMARK  5 active torsions:
REMARK  status: ('A' for Active; 'I' for Inactive)
REMARK    1  A    between atoms: N_1  and  C_2
REMARK    2  A    between atoms: C_2  and  C_3
REMARK    3  A    between atoms: C_6  and  C_7
REMARK    4  A    between atoms: C_7  and  N_8
REMARK    5  A    between atoms: C_12  and  C_13
REMARK                            x       y       z     vdW  Elec       q    Type
REMARK                         _______ _______ _______ _____ _____    ______ ____
ROOT
ATOM      8  N   UNL     1      44.071   3.592  10.533  0.00  0.00    +0.000 N 
ATOM      9  C   UNL     1      44.911   3.330   9.441  0.00  0.00    +0.000 A 
ATOM     10  C   UNL     1      45.158   2.005   9.089  0.00  0.00    +0.000 A 
ATOM     11  C   UNL     1      45.985   1.727   7.999  0.00  0.00    +0.000 A 
ATOM     12  C   UNL     1      46.550   2.776   7.275  0.00  0.00    +0.000 A 
ATOM     16  C   UNL     1      46.263   4.060   7.704  0.00  0.00    +0.000 A 
ATOM     17  N   UNL     1      45.471   4.351   8.765  0.00  0.00    +0.000 NA
ATOM     22  H   UNL     1      43.170   3.152  10.373  0.00  0.00    +0.000 HD
ENDROOT
BRANCH  12  13
ATOM     13  C   UNL     1      47.410   2.482   6.105  0.00  0.00    +0.000 C 
ATOM     14  N   UNL     1      48.767   2.490   6.261  0.00  0.00    +0.000 N 
ATOM     15  O   UNL     1      46.921   2.239   5.006  0.00  0.00    +0.000 OA
ATOM     23  H   UNL     1      49.272   2.672   7.114  0.00  0.00    +0.000 HD
ATOM     24  H   UNL     1      49.313   2.284   5.436  0.00  0.00    +0.000 HD
ENDBRANCH  12  13
BRANCH   8   7
ATOM      7  C   UNL     1      43.922   5.016  10.823  0.00  0.00    +0.000 C 
BRANCH   7   6
ATOM      3  C   UNL     1      47.150   6.401  13.372  0.00  0.00    +0.000 A 
ATOM      4  C   UNL     1      46.462   5.220  13.681  0.00  0.00    +0.000 A 
ATOM      5  C   UNL     1      45.415   4.771  12.874  0.00  0.00    +0.000 A 
ATOM      6  C   UNL     1      45.008   5.510  11.755  0.00  0.00    +0.000 A 
ATOM     18  C   UNL     1      45.694   6.696  11.450  0.00  0.00    +0.000 A 
ATOM     19  C   UNL     1      46.751   7.139  12.251  0.00  0.00    +0.000 A 
BRANCH   3   2
ATOM      2  C   UNL     1      48.295   6.864  14.238  0.00  0.00    +0.000 C 
BRANCH   2   1
ATOM      1  N   UNL     1      49.559   6.856  13.508  0.00  0.00    +0.000 NA
ATOM     20  H   UNL     1      49.370   6.908  12.510  0.00  0.00    +0.000 HD
ATOM     21  H   UNL     1      50.025   5.965  13.671  0.00  0.00    +0.000 HD
ENDBRANCH   2   1
ENDBRANCH   3   2
ENDBRANCH   7   6
ENDBRANCH   8   7
TORSDOF 5
ENDMDL
MODEL 5
REMARK VINA RESULT:    -6.536      3.378      7.772
REMARK INTER + INTRA:          -8.515
REMARK INTER:                  -8.162
REMARK INTRA:                  -0.353
REMARK UNBOUND:                -0.259
REMARK  Name = 
REMARK  5 active torsions:
REMARK  status: ('A' for Active; 'I' for Inactive)
REMARK    1  A    between atoms: N_1  and  C_2
REMARK    2  A    between atoms: C_2  and  C_3
REMARK    3  A    between atoms: C_6  and  C_7
REMARK    4  A    between atoms: C_7  and  N_8
REMARK    5  A    between atoms: C_12  and  C_13
REMARK                            x       y       z     vdW  Elec       q    Type
REMARK                         _______ _______ _______ _____ _____    ______ ____
ROOT
ATOM      8  N   UNL     1      47.669   5.502  15.363  0.00  0.00    +0.000 N 
ATOM      9  C   UNL     1      46.967   5.297  14.167  0.00  0.00    +0.000 A 
ATOM     10  C   UNL     1      47.147   6.200  13.122  0.00  0.00    +0.000 A 
ATOM     11  C   UNL     1      46.461   6.006  11.921  0.00  0.00    +0.000 A 
ATOM     12  C   UNL     1      45.610   4.911  11.781  0.00  0.00    +0.000 A 
ATOM     16  C   UNL     1      45.479   4.074  12.875  0.00  0.00    +0.000 A 
ATOM     17  N   UNL     1      46.127   4.250  14.052  0.00  0.00    +0.000 NA
ATOM     22  H   UNL     1      48.664   5.534  15.164  0.00  0.00    +0.000 HD
ENDROOT
BRANCH  12  13
ATOM     13  C   UNL     1      44.900   4.693  10.499  0.00  0.00    +0.000 C 
ATOM     14  N   UNL     1      45.395   5.265   9.361  0.00  0.00    +0.000 N 
ATOM     15  O   UNL     1      43.877   4.017  10.448  0.00  0.00    +0.000 OA
ATOM     23  H   UNL     1      46.224   5.833   9.287  0.00  0.00    +0.000 HD
ATOM     24  H   UNL     1      44.878   5.090   8.511  0.00  0.00    +0.000 HD
ENDBRANCH  12  13
BRANCH   8   7
ATOM      7  C   UNL     1      47.366   4.509  16.392  0.00  0.00    +0.000 C 
BRANCH   7   6
ATOM      3  C   UNL     1      50.999   2.374  17.431  0.00  0.00    +0.000 A 
ATOM      4  C   UNL     1      49.947   1.708  16.788  0.00  0.00    +0.000 A 
ATOM      5  C   UNL     1      48.769   2.383  16.459  0.00  0.00    +0.000 A 
ATOM      6  C   UNL     1      48.602   3.733  16.795  0.00  0.00    +0.000 A 
ATOM     18  C   UNL     1      49.655   4.397  17.444  0.00  0.00    +0.000 A 
ATOM     19  C   UNL     1      50.839   3.725  17.762  0.00  0.00    +0.000 A 
BRANCH   3   2
ATOM      2  C   UNL     1      52.276   1.641  17.761  0.00  0.00    +0.000 C 
BRANCH   2   1
ATOM      1  N   UNL     1      52.015   0.266  18.176  0.00  0.00    +0.000 NA
ATOM     20  H   UNL     1      51.971  -0.330  17.353  0.00  0.00    +0.000 HD
ATOM     21  H   UNL     1      51.096   0.226  18.616  0.00  0.00    +0.000 HD
ENDBRANCH   2   1
ENDBRANCH   3   2
ENDBRANCH   7   6
ENDBRANCH   8   7
TORSDOF 5
ENDMDL
MODEL 6
REMARK VINA RESULT:    -6.132      2.671      4.590
REMARK INTER + INTRA:          -8.004
REMARK INTER:                  -7.719
REMARK INTRA:                  -0.285
REMARK UNBOUND:                -0.259
REMARK  Name = 
REMARK  5 active torsions:
REMARK  status: ('A' for Active; 'I' for Inactive)
REMARK    1  A    between atoms: N_1  and  C_2
REMARK    2  A    between atoms: C_2  and  C_3
REMARK    3  A    between atoms: C_6  and  C_7
REMARK    4  A    between atoms: C_7  and  N_8
REMARK    5  A    between atoms: C_12  and  C_13
REMARK                            x       y       z     vdW  Elec       q    Type
REMARK                         _______ _______ _______ _____ _____    ______ ____
ROOT
ATOM      8  N   UNL     1      46.639   3.889  14.738  0.00  0.00    +0.000 N 
ATOM      9  C   UNL     1      47.615   4.032  15.734  0.00  0.00    +0.000 A 
ATOM     10  C   UNL     1      47.971   2.916  16.488  0.00  0.00    +0.000 A 
ATOM     11  C   UNL     1      48.948   3.040  17.479  0.00  0.00    +0.000 A 
ATOM     12  C   UNL     1      49.555   4.275  17.700  0.00  0.00    +0.000 A 
ATOM     16  C   UNL     1      49.130   5.332  16.915  0.00  0.00    +0.000 A 
ATOM     17  N   UNL     1      48.177   5.236  15.956  0.00  0.00    +0.000 NA
ATOM     22  H   UNL     1      46.933   3.168  14.085  0.00  0.00    +0.000 HD
ENDROOT
BRANCH  12  13
ATOM     13  C   UNL     1      50.607   4.401  18.735  0.00  0.00    +0.000 C 
ATOM     14  N   UNL     1      51.634   3.500  18.750  0.00  0.00    +0.000 N 
ATOM     15  O   UNL     1      50.563   5.292  19.577  0.00  0.00    +0.000 OA
ATOM     23  H   UNL     1      51.771   2.735  18.108  0.00  0.00    +0.000 HD
ATOM     24  H   UNL     1      52.327   3.624  19.474  0.00  0.00    +0.000 HD
ENDBRANCH  12  13
BRANCH   8   7
ATOM      7  C   UNL     1      46.328   5.137  14.045  0.00  0.00    +0.000 C 
BRANCH   7   6
ATOM      3  C   UNL     1      45.064   4.291   9.980  0.00  0.00    +0.000 A 
ATOM      4  C   UNL     1      45.603   5.543  10.307  0.00  0.00    +0.000 A 
ATOM      5  C   UNL     1      46.003   5.829  11.614  0.00  0.00    +0.000 A 
ATOM      6  C   UNL     1      45.843   4.882  12.634  0.00  0.00    +0.000 A 
ATOM     18  C   UNL     1      45.298   3.630  12.306  0.00  0.00    +0.000 A 
ATOM     19  C   UNL     1      44.909   3.339  10.995  0.00  0.00    +0.000 A 
BRANCH   3   2
ATOM      2  C   UNL     1      44.657   3.985   8.560  0.00  0.00    +0.000 C 
BRANCH   2   1
ATOM      1  N   UNL     1      45.767   4.172   7.630  0.00  0.00    +0.000 NA
ATOM     20  H   UNL     1      46.568   4.544   8.135  0.00  0.00    +0.000 HD
ATOM     21  H   UNL     1      45.502   4.876   6.943  0.00  0.00    +0.000 HD
ENDBRANCH   2   1
ENDBRANCH   3   2
ENDBRANCH   7   6
ENDBRANCH   8   7
TORSDOF 5
ENDMDL
MODEL 7
REMARK VINA RESULT:    -6.024      1.936      2.705
REMARK INTER + INTRA:          -7.868
REMARK INTER:                  -7.649
REMARK INTRA:                  -0.219
REMARK UNBOUND:                -0.259
REMARK  Name = 
REMARK  5 active torsions:
REMARK  status: ('A' for Active; 'I' for Inactive)
REMARK    1  A    between atoms: N_1  and  C_2
REMARK    2  A    between atoms: C_2  and  C_3
REMARK    3  A    between atoms: C_6  and  C_7
REMARK    4  A    between atoms: C_7  and  N_8
REMARK    5  A    between atoms: C_12  and  C_13
REMARK                            x       y       z     vdW  Elec       q    Type
REMARK                         _______ _______ _______ _____ _____    ______ ____
ROOT
ATOM      8  N   UNL     1      44.958   3.946  12.817  0.00  0.00    +0.000 N 
ATOM      9  C   UNL     1      45.949   4.818  13.291  0.00  0.00    +0.000 A 
ATOM     10  C   UNL     1      46.685   4.448  14.414  0.00  0.00    +0.000 A 
ATOM     11  C   UNL     1      47.681   5.303  14.894  0.00  0.00    +0.000 A 
ATOM     12  C   UNL     1      47.927   6.511  14.243  0.00  0.00    +0.000 A 
ATOM     16  C   UNL     1      47.138   6.804  13.146  0.00  0.00    +0.000 A 
ATOM     17  N   UNL     1      46.161   5.995  12.670  0.00  0.00    +0.000 NA
ATOM     22  H   UNL     1      45.379   3.044  12.615  0.00  0.00    +0.000 HD
ENDROOT
BRANCH  12  13
ATOM     13  C   UNL     1      48.998   7.406  14.740  0.00  0.00    +0.000 C 
ATOM     14  N   UNL     1      50.243   7.322  14.183  0.00  0.00    +0.000 N 
ATOM     15  O   UNL     1      48.783   8.210  15.641  0.00  0.00    +0.000 OA
ATOM     23  H   UNL     1      50.528   6.704  13.440  0.00  0.00    +0.000 HD
ATOM     24  H   UNL     1      50.942   7.951  14.553  0.00  0.00    +0.000 HD
ENDBRANCH  12  13
BRANCH   8   7
ATOM      7  C   UNL     1      44.233   4.464  11.659  0.00  0.00    +0.000 C 
BRANCH   7   6
ATOM      3  C   UNL     1      45.936   3.266   7.851  0.00  0.00    +0.000 A 
ATOM      4  C   UNL     1      45.388   2.307   8.714  0.00  0.00    +0.000 A 
ATOM      5  C   UNL     1      44.848   2.680   9.946  0.00  0.00    +0.000 A 
ATOM      6  C   UNL     1      44.870   4.018  10.360  0.00  0.00    +0.000 A 
ATOM     18  C   UNL     1      45.424   4.977   9.498  0.00  0.00    +0.000 A 
ATOM     19  C   UNL     1      45.954   4.605   8.259  0.00  0.00    +0.000 A 
BRANCH   3   2
ATOM      2  C   UNL     1      46.496   2.855   6.512  0.00  0.00    +0.000 C 
BRANCH   2   1
ATOM      1  N   UNL     1      47.954   2.924   6.495  0.00  0.00    +0.000 NA
ATOM     20  H   UNL     1      48.266   3.168   5.558  0.00  0.00    +0.000 HD
ATOM     21  H   UNL     1      48.328   1.998   6.696  0.00  0.00    +0.000 HD
ENDBRANCH   2   1
ENDBRANCH   3   2
ENDBRANCH   7   6
ENDBRANCH   8   7
TORSDOF 5
ENDMDL
MODEL 8
REMARK VINA RESULT:    -5.571      4.290      5.862
REMARK INTER + INTRA:          -7.296
REMARK INTER:                  -6.927
REMARK INTRA:                  -0.369
REMARK UNBOUND:                -0.259
REMARK  Name = 
REMARK  5 active torsions:
REMARK  status: ('A' for Active; 'I' for Inactive)
REMARK    1  A    between atoms: N_1  and  C_2
REMARK    2  A    between atoms: C_2  and  C_3
REMARK    3  A    between atoms: C_6  and  C_7
REMARK    4  A    between atoms: C_7  and  N_8
REMARK    5  A    between atoms: C_12  and  C_13
REMARK                            x       y       z     vdW  Elec       q    Type
REMARK                         _______ _______ _______ _____ _____    ______ ____
ROOT
ATOM      8  N   UNL     1      48.256   7.121  14.908  0.00  0.00    +0.000 N 
ATOM      9  C   UNL     1      48.512   6.508  16.143  0.00  0.00    +0.000 A 
ATOM     10  C   UNL     1      48.503   7.291  17.294  0.00  0.00    +0.000 A 
ATOM     11  C   UNL     1      48.749   6.694  18.533  0.00  0.00    +0.000 A 
ATOM     12  C   UNL     1      48.998   5.325  18.602  0.00  0.00    +0.000 A 
ATOM     16  C   UNL     1      49.004   4.627  17.408  0.00  0.00    +0.000 A 
ATOM     17  N   UNL     1      48.777   5.188  16.195  0.00  0.00    +0.000 NA
ATOM     22  H   UNL     1      47.352   7.583  14.948  0.00  0.00    +0.000 HD
ENDROOT
BRANCH  12  13
ATOM     13  C   UNL     1      49.237   4.688  19.918  0.00  0.00    +0.000 C 
ATOM     14  N   UNL     1      48.443   3.645  20.305  0.00  0.00    +0.000 N 
ATOM     15  O   UNL     1      50.127   5.088  20.663  0.00  0.00    +0.000 OA
ATOM     23  H   UNL     1      47.691   3.236  19.774  0.00  0.00    +0.000 HD
ATOM     24  H   UNL     1      48.642   3.243  21.210  0.00  0.00    +0.000 HD
ENDBRANCH  12  13
BRANCH   8   7
ATOM      7  C   UNL     1      48.331   6.201  13.775  0.00  0.00    +0.000 C 
BRANCH   7   6
ATOM      3  C   UNL     1      44.515   5.571  11.806  0.00  0.00    +0.000 A 
ATOM      4  C   UNL     1      45.443   6.477  11.276  0.00  0.00    +0.000 A 
ATOM      5  C   UNL     1      46.669   6.695  11.908  0.00  0.00    +0.000 A 
ATOM      6  C   UNL     1      46.985   6.037  13.103  0.00  0.00    +0.000 A 
ATOM     18  C   UNL     1      46.052   5.133  13.636  0.00  0.00    +0.000 A 
ATOM     19  C   UNL     1      44.829   4.905  12.998  0.00  0.00    +0.000 A 
BRANCH   3   2
ATOM      2  C   UNL     1      43.203   5.325  11.104  0.00  0.00    +0.000 C 
BRANCH   2   1
ATOM      1  N   UNL     1      42.107   6.046  11.743  0.00  0.00    +0.000 NA
ATOM     20  H   UNL     1      42.378   7.018  11.875  0.00  0.00    +0.000 HD
ATOM     21  H   UNL     1      41.957   5.656  12.672  0.00  0.00    +0.000 HD
ENDBRANCH   2   1
ENDBRANCH   3   2
ENDBRANCH   7   6
ENDBRANCH   8   7
TORSDOF 5
ENDMDL
MODEL 9
REMARK VINA RESULT:    -5.529      4.097      6.536
REMARK INTER + INTRA:          -7.242
REMARK INTER:                  -6.898
REMARK INTRA:                  -0.343
REMARK UNBOUND:                -0.259
REMARK  Name = 
REMARK  5 active torsions:
REMARK  status: ('A' for Active; 'I' for Inactive)
REMARK    1  A    between atoms: N_1  and  C_2
REMARK    2  A    between atoms: C_2  and  C_3
REMARK    3  A    between atoms: C_6  and  C_7
REMARK    4  A    between atoms: C_7  and  N_8
REMARK    5  A    between atoms: C_12  and  C_13
REMARK                            x       y       z     vdW  Elec       q    Type
REMARK                         _______ _______ _______ _____ _____    ______ ____
ROOT
ATOM      8  N   UNL     1      46.705   7.095  13.381  0.00  0.00    +0.000 N 
ATOM      9  C   UNL     1      46.035   6.026  12.769  0.00  0.00    +0.000 A 
ATOM     10  C   UNL     1      45.976   4.804  13.434  0.00  0.00    +0.000 A 
ATOM     11  C   UNL     1      45.306   3.731  12.841  0.00  0.00    +0.000 A 
ATOM     12  C   UNL     1      44.704   3.896  11.595  0.00  0.00    +0.000 A 
ATOM     16  C   UNL     1      44.825   5.139  11.000  0.00  0.00    +0.000 A 
ATOM     17  N   UNL     1      45.478   6.190  11.553  0.00  0.00    +0.000 NA
ATOM     22  H   UNL     1      46.289   7.270  14.291  0.00  0.00    +0.000 HD
ENDROOT
BRANCH  12  13
ATOM     13  C   UNL     1      43.975   2.765  10.977  0.00  0.00    +0.000 C 
ATOM     14  N   UNL     1      44.483   2.186   9.848  0.00  0.00    +0.000 N 
ATOM     15  O   UNL     1      42.925   2.349  11.458  0.00  0.00    +0.000 OA
ATOM     23  H   UNL     1      45.334   2.443   9.373  0.00  0.00    +0.000 HD
ATOM     24  H   UNL     1      43.952   1.419   9.461  0.00  0.00    +0.000 HD
ENDBRANCH  12  13
BRANCH   8   7
ATOM      7  C   UNL     1      46.729   8.309  12.567  0.00  0.00    +0.000 C 
BRANCH   7   6
ATOM      3  C   UNL     1      50.695   9.321  11.124  0.00  0.00    +0.000 A 
ATOM      4  C   UNL     1      50.367   7.991  11.418  0.00  0.00    +0.000 A 
ATOM      5  C   UNL     1      49.098   7.656  11.893  0.00  0.00    +0.000 A 
ATOM      6  C   UNL     1      48.134   8.647  12.117  0.00  0.00    +0.000 A 
ATOM     18  C   UNL     1      48.465   9.980  11.827  0.00  0.00    +0.000 A 
ATOM     19  C   UNL     1      49.732  10.315  11.340  0.00  0.00    +0.000 A 
BRANCH   3   2
ATOM      2  C   UNL     1      52.061   9.669  10.589  0.00  0.00    +0.000 C 
BRANCH   2   1
ATOM      1  N   UNL     1      53.120   9.007  11.345  0.00  0.00    +0.000 NA
ATOM     20  H   UNL     1      53.697   9.711  11.800  0.00  0.00    +0.000 HD
ATOM     21  H   UNL     1      53.725   8.509  10.693  0.00  0.00    +0.000 HD
ENDBRANCH   2   1
ENDBRANCH   3   2
ENDBRANCH   7   6
ENDBRANCH   8   7
TORSDOF 5
ENDMDL
