MODEL 1
REMARK VINA RESULT:    -6.500      0.000      0.000
REMARK INTER + INTRA:         -15.184
REMARK INTER:                 -12.579
REMARK INTRA:                  -2.605
REMARK UNBOUND:                -2.605
REMARK  Name = 
REMARK  17 active torsions:
REMARK  status: ('A' for Active; 'I' for Inactive)
REMARK    1  A    between atoms: C_1  and  C_2
REMARK    2  A    between atoms: C_2  and  C_3
REMARK    3  A    between atoms: C_3  and  C_4
REMARK    4  A    between atoms: C_4  and  C_5
REMARK    5  A    between atoms: C_5  and  C_6
REMARK    6  A    between atoms: C_6  and  C_7
REMARK    7  A    between atoms: C_7  and  C_8
REMARK    8  A    between atoms: C_8  and  C_9
REMARK    9  A    between atoms: C_9  and  C_10
REMARK   10  A    between atoms: C_10  and  C_11
REMARK   11  A    between atoms: C_11  and  C_12
REMARK   12  A    between atoms: C_12  and  N_13
REMARK   13  A    between atoms: N_13  and  C_14
REMARK   14  A    between atoms: C_14  and  C_15
REMARK   15  A    between atoms: C_18  and  C_19
REMARK   16  A    between atoms: C_19  and  N_20
REMARK   17  A    between atoms: C_21  and  C_23
REMARK                            x       y       z     vdW  Elec       q    Type
REMARK                         _______ _______ _______ _____ _____    ______ ____
ROOT
ATOM     15  C   UNL     1      45.218   7.603  11.742  0.00  0.00    +0.000 A 
ATOM     16  C   UNL     1      46.230   6.731  11.345  0.00  0.00    +0.000 A 
ATOM     17  C   UNL     1      47.504   6.831  11.898  0.00  0.00    +0.000 A 
ATOM     18  C   UNL     1      47.787   7.787  12.887  0.00  0.00    +0.000 A 
ATOM     33  C   UNL     1      46.756   8.647  13.292  0.00  0.00    +0.000 A 
ATOM     34  C   UNL     1      45.475   8.544  12.742  0.00  0.00    +0.000 A 
ENDROOT
BRANCH  15  14
ATOM     14  C   UNL     1      43.900   7.560  11.033  0.00  0.00    +0.000 C 
BRANCH  14  13
ATOM     13  N   UNL     1      43.511   6.170  10.804  0.00  0.00    +0.000 NA
ATOM     35  H   UNL     1      43.212   6.074   9.833  0.00  0.00    +0.000 HD
BRANCH  13  12
ATOM     12  C   UNL     1      42.440   5.774  11.702  0.00  0.00    +0.000 C 
BRANCH  12  11
ATOM     11  C   UNL     1      43.008   5.240  13.010  0.00  0.00    +0.000 C 
BRANCH  11  10
ATOM     10  C   UNL     1      44.129   4.268  12.719  0.00  0.00    +0.000 C 
BRANCH  10   9
ATOM      9  C   UNL     1      43.592   2.852  12.635  0.00  0.00    +0.000 C 
BRANCH   9   8
ATOM      8  C   UNL     1      43.556   2.406  11.183  0.00  0.00    +0.000 C 
BRANCH   8   7
ATOM      7  C   UNL     1      44.838   2.815  10.477  0.00  0.00    +0.000 C 
BRANCH   7   6
ATOM      6  C   UNL     1      44.719   2.548   8.986  0.00  0.00    +0.000 C 
BRANCH   6   5
ATOM      5  C   UNL     1      44.771   3.857   8.215  0.00  0.00    +0.000 C 
BRANCH   5   4
ATOM      4  C   UNL     1      46.209   4.203   7.859  0.00  0.00    +0.000 C 
BRANCH   4   3
ATOM      3  C   UNL     1      46.627   3.469   6.594  0.00  0.00    +0.000 C 
BRANCH   3   2
ATOM      1  C   UNL     1      47.358   1.097   6.306  0.00  0.00    +0.000 C 
ATOM      2  C   UNL     1      47.715   2.448   6.895  0.00  0.00    +0.000 C 
ENDBRANCH   3   2
ENDBRANCH   4   3
ENDBRANCH   5   4
ENDBRANCH   6   5
ENDBRANCH   7   6
ENDBRANCH   8   7
ENDBRANCH   9   8
ENDBRANCH  10   9
ENDBRANCH  11  10
ENDBRANCH  12  11
ENDBRANCH  13  12
ENDBRANCH  14  13
ENDBRANCH  15  14
BRANCH  18  19
ATOM     19  C   UNL     1      49.150   7.894  13.534  0.00  0.00    +0.000 C 
BRANCH  19  20
ATOM     20  N   UNL     1      49.315   7.051  14.690  0.00  0.00    +0.000 N 
ATOM     21  C   UNL     1      49.092   7.485  15.968  0.00  0.00    +0.000 C 
ATOM     22  O   UNL     1      48.735   8.627  16.242  0.00  0.00    +0.000 OA
ATOM     36  H   UNL     1      49.765   6.155  14.564  0.00  0.00    +0.000 HD
BRANCH  21  23
ATOM     23  C   UNL     1      49.226   6.444  16.991  0.00  0.00    +0.000 A 
ATOM     24  C   UNL     1      50.066   6.630  18.080  0.00  0.00    +0.000 A 
ATOM     25  S   UNL     1      50.036   5.330  19.186  0.00  0.00    +0.000 S 
ATOM     26  C   UNL     1      48.926   4.465  18.230  0.00  0.00    +0.000 A 
ATOM     27  N   UNL     1      48.484   3.230  18.602  0.00  0.00    +0.000 NA
ATOM     28  C   UNL     1      47.660   2.687  17.774  0.00  0.00    +0.000 A 
ATOM     29  N   UNL     1      47.227   3.260  16.600  0.00  0.00    +0.000 N 
ATOM     30  C   UNL     1      47.633   4.513  16.188  0.00  0.00    +0.000 A 
ATOM     31  O   UNL     1      47.201   5.009  15.168  0.00  0.00    +0.000 OA
ATOM     32  C   UNL     1      48.572   5.159  17.094  0.00  0.00    +0.000 A 
ATOM     37  H   UNL     1      46.572   2.787  16.004  0.00  0.00    +0.000 HD
ENDBRANCH  21  23
ENDBRANCH  19  20
ENDBRANCH  18  19
TORSDOF 16
ENDMDL
MODEL 2
REMARK VINA RESULT:    -6.200      3.554      9.671
REMARK INTER + INTRA:         -14.605
REMARK INTER:                 -10.949
REMARK INTRA:                  -3.656
REMARK UNBOUND:                -2.605
REMARK  Name = 
REMARK  17 active torsions:
REMARK  status: ('A' for Active; 'I' for Inactive)
REMARK    1  A    between atoms: C_1  and  C_2
REMARK    2  A    between atoms: C_2  and  C_3
REMARK    3  A    between atoms: C_3  and  C_4
REMARK    4  A    between atoms: C_4  and  C_5
REMARK    5  A    between atoms: C_5  and  C_6
REMARK    6  A    between atoms: C_6  and  C_7
REMARK    7  A    between atoms: C_7  and  C_8
REMARK    8  A    between atoms: C_8  and  C_9
REMARK    9  A    between atoms: C_9  and  C_10
REMARK   10  A    between atoms: C_10  and  C_11
REMARK   11  A    between atoms: C_11  and  C_12
REMARK   12  A    between atoms: C_12  and  N_13
REMARK   13  A    between atoms: N_13  and  C_14
REMARK   14  A    between atoms: C_14  and  C_15
REMARK   15  A    between atoms: C_18  and  C_19
REMARK   16  A    between atoms: C_19  and  N_20
REMARK   17  A    between atoms: C_21  and  C_23
REMARK                            x       y       z     vdW  Elec       q    Type
REMARK                         _______ _______ _______ _____ _____    ______ ____
ROOT
ATOM     15  C   UNL     1      51.417   3.587  17.716  0.00  0.00    +0.000 A 
ATOM     16  C   UNL     1      50.761   2.387  17.447  0.00  0.00    +0.000 A 
ATOM     17  C   UNL     1      49.397   2.376  17.167  0.00  0.00    +0.000 A 
ATOM     18  C   UNL     1      48.663   3.573  17.118  0.00  0.00    +0.000 A 
ATOM     33  C   UNL     1      49.338   4.776  17.371  0.00  0.00    +0.000 A 
ATOM     34  C   UNL     1      50.707   4.788  17.647  0.00  0.00    +0.000 A 
ENDROOT
BRANCH  15  14
ATOM     14  C   UNL     1      52.851   3.553  18.146  0.00  0.00    +0.000 C 
BRANCH  14  13
ATOM     13  N   UNL     1      52.934   3.137  19.545  0.00  0.00    +0.000 NA
ATOM     35  H   UNL     1      51.989   2.967  19.888  0.00  0.00    +0.000 HD
BRANCH  13  12
ATOM     12  C   UNL     1      53.590   4.151  20.352  0.00  0.00    +0.000 C 
BRANCH  12  11
ATOM     11  C   UNL     1      52.618   5.271  20.698  0.00  0.00    +0.000 C 
BRANCH  11  10
ATOM     10  C   UNL     1      51.441   4.707  21.461  0.00  0.00    +0.000 C 
BRANCH  10   9
ATOM      9  C   UNL     1      50.250   5.640  21.360  0.00  0.00    +0.000 C 
BRANCH   9   8
ATOM      8  C   UNL     1      49.001   4.839  21.032  0.00  0.00    +0.000 C 
BRANCH   8   7
ATOM      7  C   UNL     1      47.919   5.754  20.485  0.00  0.00    +0.000 C 
BRANCH   7   6
ATOM      6  C   UNL     1      48.065   7.146  21.077  0.00  0.00    +0.000 C 
BRANCH   6   5
ATOM      5  C   UNL     1      47.469   8.179  20.135  0.00  0.00    +0.000 C 
BRANCH   5   4
ATOM      4  C   UNL     1      48.000   7.974  18.724  0.00  0.00    +0.000 C 
BRANCH   4   3
ATOM      3  C   UNL     1      49.149   8.933  18.451  0.00  0.00    +0.000 C 
BRANCH   3   2
ATOM      1  C   UNL     1      51.351   8.709  19.611  0.00  0.00    +0.000 C 
ATOM      2  C   UNL     1      50.483   8.201  18.477  0.00  0.00    +0.000 C 
ENDBRANCH   3   2
ENDBRANCH   4   3
ENDBRANCH   5   4
ENDBRANCH   6   5
ENDBRANCH   7   6
ENDBRANCH   8   7
ENDBRANCH   9   8
ENDBRANCH  10   9
ENDBRANCH  11  10
ENDBRANCH  12  11
ENDBRANCH  13  12
ENDBRANCH  14  13
ENDBRANCH  15  14
BRANCH  18  19
ATOM     19  C   UNL     1      47.188   3.597  16.778  0.00  0.00    +0.000 C 
BRANCH  19  20
ATOM     20  N   UNL     1      46.842   4.538  15.745  0.00  0.00    +0.000 N 
ATOM     21  C   UNL     1      46.885   4.234  14.412  0.00  0.00    +0.000 C 
ATOM     22  O   UNL     1      47.223   3.136  13.980  0.00  0.00    +0.000 OA
ATOM     36  H   UNL     1      46.717   5.506  16.008  0.00  0.00    +0.000 HD
BRANCH  21  23
ATOM     23  C   UNL     1      46.404   5.303  13.533  0.00  0.00    +0.000 A 
ATOM     24  C   UNL     1      47.217   6.387  13.231  0.00  0.00    +0.000 A 
ATOM     25  S   UNL     1      46.496   7.490  12.145  0.00  0.00    +0.000 S 
ATOM     26  C   UNL     1      45.066   6.571  12.070  0.00  0.00    +0.000 A 
ATOM     27  N   UNL     1      44.005   6.973  11.312  0.00  0.00    +0.000 NA
ATOM     28  C   UNL     1      42.985   6.189  11.364  0.00  0.00    +0.000 A 
ATOM     29  N   UNL     1      42.916   5.031  12.103  0.00  0.00    +0.000 N 
ATOM     30  C   UNL     1      43.967   4.573  12.872  0.00  0.00    +0.000 A 
ATOM     31  O   UNL     1      43.890   3.525  13.479  0.00  0.00    +0.000 OA
ATOM     32  C   UNL     1      45.139   5.436  12.847  0.00  0.00    +0.000 A 
ATOM     37  H   UNL     1      42.092   4.456  12.089  0.00  0.00    +0.000 HD
ENDBRANCH  21  23
ENDBRANCH  19  20
ENDBRANCH  18  19
TORSDOF 16
ENDMDL
MODEL 3
REMARK VINA RESULT:    -6.037      3.108      4.592
REMARK INTER + INTRA:         -14.289
REMARK INTER:                 -12.444
REMARK INTRA:                  -1.845
REMARK UNBOUND:                -2.605
REMARK  Name = 
REMARK  17 active torsions:
REMARK  status: ('A' for Active; 'I' for Inactive)
REMARK    1  A    between atoms: C_1  and  C_2
REMARK    2  A    between atoms: C_2  and  C_3
REMARK    3  A    between atoms: C_3  and  C_4
REMARK    4  A    between atoms: C_4  and  C_5
REMARK    5  A    between atoms: C_5  and  C_6
REMARK    6  A    between atoms: C_6  and  C_7
REMARK    7  A    between atoms: C_7  and  C_8
REMARK    8  A    between atoms: C_8  and  C_9
REMARK    9  A    between atoms: C_9  and  C_10
REMARK   10  A    between atoms: C_10  and  C_11
REMARK   11  A    between atoms: C_11  and  C_12
REMARK   12  A    between atoms: C_12  and  N_13
REMARK   13  A    between atoms: N_13  and  C_14
REMARK   14  A    between atoms: C_14  and  C_15
REMARK   15  A    between atoms: C_18  and  C_19
REMARK   16  A    between atoms: C_19  and  N_20
REMARK   17  A    between atoms: C_21  and  C_23
REMARK                            x       y       z     vdW  Elec       q    Type
REMARK                         _______ _______ _______ _____ _____    ______ ____
ROOT
ATOM     15  C   UNL     1      47.886   6.169  14.476  0.00  0.00    +0.000 A 
ATOM     16  C   UNL     1      48.665   6.468  15.594  0.00  0.00    +0.000 A 
ATOM     17  C   UNL     1      48.760   5.565  16.649  0.00  0.00    +0.000 A 
ATOM     18  C   UNL     1      48.103   4.324  16.596  0.00  0.00    +0.000 A 
ATOM     33  C   UNL     1      47.338   4.027  15.459  0.00  0.00    +0.000 A 
ATOM     34  C   UNL     1      47.246   4.931  14.398  0.00  0.00    +0.000 A 
ENDROOT
BRANCH  15  14
ATOM     14  C   UNL     1      47.694   7.215  13.422  0.00  0.00    +0.000 C 
BRANCH  14  13
ATOM     13  N   UNL     1      46.328   7.732  13.486  0.00  0.00    +0.000 NA
ATOM     35  H   UNL     1      45.808   7.185  14.172  0.00  0.00    +0.000 HD
BRANCH  13  12
ATOM     12  C   UNL     1      45.682   7.658  12.187  0.00  0.00    +0.000 C 
BRANCH  12  11
ATOM     11  C   UNL     1      44.401   6.838  12.271  0.00  0.00    +0.000 C 
BRANCH  11  10
ATOM     10  C   UNL     1      44.663   5.434  11.774  0.00  0.00    +0.000 C 
BRANCH  10   9
ATOM      9  C   UNL     1      43.578   4.492  12.260  0.00  0.00    +0.000 C 
BRANCH   9   8
ATOM      8  C   UNL     1      43.473   3.305  11.317  0.00  0.00    +0.000 C 
BRANCH   8   7
ATOM      7  C   UNL     1      44.846   2.936  10.783  0.00  0.00    +0.000 C 
BRANCH   7   6
ATOM      6  C   UNL     1      44.740   2.483   9.337  0.00  0.00    +0.000 C 
BRANCH   6   5
ATOM      5  C   UNL     1      44.804   3.684   8.407  0.00  0.00    +0.000 C 
BRANCH   5   4
ATOM      4  C   UNL     1      45.853   3.459   7.329  0.00  0.00    +0.000 C 
BRANCH   4   3
ATOM      3  C   UNL     1      46.602   2.161   7.587  0.00  0.00    +0.000 C 
BRANCH   3   2
ATOM      1  C   UNL     1      47.436   1.077   5.496  0.00  0.00    +0.000 C 
ATOM      2  C   UNL     1      47.780   2.017   6.634  0.00  0.00    +0.000 C 
ENDBRANCH   3   2
ENDBRANCH   4   3
ENDBRANCH   5   4
ENDBRANCH   6   5
ENDBRANCH   7   6
ENDBRANCH   8   7
ENDBRANCH   9   8
ENDBRANCH  10   9
ENDBRANCH  11  10
ENDBRANCH  12  11
ENDBRANCH  13  12
ENDBRANCH  14  13
ENDBRANCH  15  14
BRANCH  18  19
ATOM     19  C   UNL     1      48.220   3.306  17.709  0.00  0.00    +0.000 C 
BRANCH  19  20
ATOM     20  N   UNL     1      49.573   2.911  18.000  0.00  0.00    +0.000 N 
ATOM     21  C   UNL     1      50.324   2.141  17.154  0.00  0.00    +0.000 C 
ATOM     22  O   UNL     1      49.911   1.718  16.078  0.00  0.00    +0.000 OA
ATOM     36  H   UNL     1      49.926   3.075  18.932  0.00  0.00    +0.000 HD
BRANCH  21  23
ATOM     23  C   UNL     1      51.706   1.932  17.594  0.00  0.00    +0.000 A 
ATOM     24  C   UNL     1      52.201   0.648  17.776  0.00  0.00    +0.000 A 
ATOM     25  S   UNL     1      53.846   0.617  18.232  0.00  0.00    +0.000 S 
ATOM     26  C   UNL     1      53.939   2.315  18.231  0.00  0.00    +0.000 A 
ATOM     27  N   UNL     1      55.095   2.961  18.560  0.00  0.00    +0.000 NA
ATOM     28  C   UNL     1      55.013   4.246  18.533  0.00  0.00    +0.000 A 
ATOM     29  N   UNL     1      53.884   4.960  18.206  0.00  0.00    +0.000 N 
ATOM     30  C   UNL     1      52.696   4.353  17.852  0.00  0.00    +0.000 A 
ATOM     31  O   UNL     1      51.728   5.010  17.528  0.00  0.00    +0.000 OA
ATOM     32  C   UNL     1      52.743   2.899  17.877  0.00  0.00    +0.000 A 
ATOM     37  H   UNL     1      53.891   5.964  18.192  0.00  0.00    +0.000 HD
ENDBRANCH  21  23
ENDBRANCH  19  20
ENDBRANCH  18  19
TORSDOF 16
ENDMDL
MODEL 4
REMARK VINA RESULT:    -5.978      2.152      2.961
REMARK INTER + INTRA:         -14.175
REMARK INTER:                 -12.417
REMARK INTRA:                  -1.757
REMARK UNBOUND:                -2.605
REMARK  Name = 
REMARK  17 active torsions:
REMARK  status: ('A' for Active; 'I' for Inactive)
REMARK    1  A    between atoms: C_1  and  C_2
REMARK    2  A    between atoms: C_2  and  C_3
REMARK    3  A    between atoms: C_3  and  C_4
REMARK    4  A    between atoms: C_4  and  C_5
REMARK    5  A    between atoms: C_5  and  C_6
REMARK    6  A    between atoms: C_6  and  C_7
REMARK    7  A    between atoms: C_7  and  C_8
REMARK    8  A    between atoms: C_8  and  C_9
REMARK    9  A    between atoms: C_9  and  C_10
REMARK   10  A    between atoms: C_10  and  C_11
REMARK   11  A    between atoms: C_11  and  C_12
REMARK   12  A    between atoms: C_12  and  N_13
REMARK   13  A    between atoms: N_13  and  C_14
REMARK   14  A    between atoms: C_14  and  C_15
REMARK   15  A    between atoms: C_18  and  C_19
REMARK   16  A    between atoms: C_19  and  N_20
REMARK   17  A    between atoms: C_21  and  C_23
REMARK                            x       y       z     vdW  Elec       q    Type
REMARK                         _______ _______ _______ _____ _____    ______ ____
ROOT
ATOM     15  C   UNL     1      45.495   5.658  13.095  0.00  0.00    +0.000 A 
ATOM     16  C   UNL     1      45.498   6.961  12.601  0.00  0.00    +0.000 A 
ATOM     17  C   UNL     1      46.686   7.685  12.527  0.00  0.00    +0.000 A 
ATOM     18  C   UNL     1      47.906   7.107  12.917  0.00  0.00    +0.000 A 
ATOM     33  C   UNL     1      47.892   5.789  13.396  0.00  0.00    +0.000 A 
ATOM     34  C   UNL     1      46.702   5.060  13.464  0.00  0.00    +0.000 A 
ENDROOT
BRANCH  15  14
ATOM     14  C   UNL     1      44.187   4.956  13.289  0.00  0.00    +0.000 C 
BRANCH  14  13
ATOM     13  N   UNL     1      43.095   5.819  12.842  0.00  0.00    +0.000 NA
ATOM     35  H   UNL     1      42.382   5.841  13.571  0.00  0.00    +0.000 HD
BRANCH  13  12
ATOM     12  C   UNL     1      42.528   5.339  11.595  0.00  0.00    +0.000 C 
BRANCH  12  11
ATOM     11  C   UNL     1      43.055   3.948  11.266  0.00  0.00    +0.000 C 
BRANCH  11  10
ATOM     10  C   UNL     1      43.954   4.019  10.052  0.00  0.00    +0.000 C 
BRANCH  10   9
ATOM      9  C   UNL     1      45.099   3.032  10.186  0.00  0.00    +0.000 C 
BRANCH   9   8
ATOM      8  C   UNL     1      45.344   2.352   8.849  0.00  0.00    +0.000 C 
BRANCH   8   7
ATOM      7  C   UNL     1      45.243   3.362   7.720  0.00  0.00    +0.000 C 
BRANCH   7   6
ATOM      6  C   UNL     1      46.633   3.782   7.270  0.00  0.00    +0.000 C 
BRANCH   6   5
ATOM      5  C   UNL     1      47.491   2.554   7.012  0.00  0.00    +0.000 C 
BRANCH   5   4
ATOM      4  C   UNL     1      47.621   2.306   5.517  0.00  0.00    +0.000 C 
BRANCH   4   3
ATOM      3  C   UNL     1      47.211   0.880   5.183  0.00  0.00    +0.000 C 
BRANCH   3   2
ATOM      1  C   UNL     1      46.838  -0.672   3.261  0.00  0.00    +0.000 C 
ATOM      2  C   UNL     1      46.773   0.768   3.730  0.00  0.00    +0.000 C 
ENDBRANCH   3   2
ENDBRANCH   4   3
ENDBRANCH   5   4
ENDBRANCH   6   5
ENDBRANCH   7   6
ENDBRANCH   8   7
ENDBRANCH   9   8
ENDBRANCH  10   9
ENDBRANCH  11  10
ENDBRANCH  12  11
ENDBRANCH  13  12
ENDBRANCH  14  13
ENDBRANCH  15  14
BRANCH  18  19
ATOM     19  C   UNL     1      49.217   7.854  12.812  0.00  0.00    +0.000 C 
BRANCH  19  20
ATOM     20  N   UNL     1      50.243   7.360  13.693  0.00  0.00    +0.000 N 
ATOM     21  C   UNL     1      50.495   7.901  14.924  0.00  0.00    +0.000 C 
ATOM     22  O   UNL     1      49.873   8.855  15.384  0.00  0.00    +0.000 OA
ATOM     36  H   UNL     1      50.905   6.692  13.323  0.00  0.00    +0.000 HD
BRANCH  21  23
ATOM     23  C   UNL     1      51.516   7.191  15.699  0.00  0.00    +0.000 A 
ATOM     24  C   UNL     1      52.856   7.531  15.578  0.00  0.00    +0.000 A 
ATOM     25  S   UNL     1      53.877   6.629  16.606  0.00  0.00    +0.000 S 
ATOM     26  C   UNL     1      52.567   5.736  17.221  0.00  0.00    +0.000 A 
ATOM     27  N   UNL     1      52.752   4.756  18.152  0.00  0.00    +0.000 NA
ATOM     28  C   UNL     1      51.673   4.152  18.513  0.00  0.00    +0.000 A 
ATOM     29  N   UNL     1      50.414   4.431  18.034  0.00  0.00    +0.000 N 
ATOM     30  C   UNL     1      50.173   5.422  17.104  0.00  0.00    +0.000 A 
ATOM     31  O   UNL     1      49.045   5.673  16.733  0.00  0.00    +0.000 OA
ATOM     32  C   UNL     1      51.369   6.125  16.664  0.00  0.00    +0.000 A 
ATOM     37  H   UNL     1      49.611   3.930  18.368  0.00  0.00    +0.000 HD
ENDBRANCH  21  23
ENDBRANCH  19  20
ENDBRANCH  18  19
TORSDOF 16
ENDMDL
MODEL 5
REMARK VINA RESULT:    -5.915      3.530      8.827
REMARK INTER + INTRA:         -14.053
REMARK INTER:                 -10.072
REMARK INTRA:                  -3.982
REMARK UNBOUND:                -2.605
REMARK  Name = 
REMARK  17 active torsions:
REMARK  status: ('A' for Active; 'I' for Inactive)
REMARK    1  A    between atoms: C_1  and  C_2
REMARK    2  A    between atoms: C_2  and  C_3
REMARK    3  A    between atoms: C_3  and  C_4
REMARK    4  A    between atoms: C_4  and  C_5
REMARK    5  A    between atoms: C_5  and  C_6
REMARK    6  A    between atoms: C_6  and  C_7
REMARK    7  A    between atoms: C_7  and  C_8
REMARK    8  A    between atoms: C_8  and  C_9
REMARK    9  A    between atoms: C_9  and  C_10
REMARK   10  A    between atoms: C_10  and  C_11
REMARK   11  A    between atoms: C_11  and  C_12
REMARK   12  A    between atoms: C_12  and  N_13
REMARK   13  A    between atoms: N_13  and  C_14
REMARK   14  A    between atoms: C_14  and  C_15
REMARK   15  A    between atoms: C_18  and  C_19
REMARK   16  A    between atoms: C_19  and  N_20
REMARK   17  A    between atoms: C_21  and  C_23
REMARK                            x       y       z     vdW  Elec       q    Type
REMARK                         _______ _______ _______ _____ _____    ______ ____
ROOT
ATOM     15  C   UNL     1      48.523   5.586  20.322  0.00  0.00    +0.000 A 
ATOM     16  C   UNL     1      47.336   5.969  19.698  0.00  0.00    +0.000 A 
ATOM     17  C   UNL     1      46.948   5.379  18.498  0.00  0.00    +0.000 A 
ATOM     18  C   UNL     1      47.723   4.365  17.910  0.00  0.00    +0.000 A 
ATOM     33  C   UNL     1      48.905   3.975  18.557  0.00  0.00    +0.000 A 
ATOM     34  C   UNL     1      49.293   4.563  19.763  0.00  0.00    +0.000 A 
ENDROOT
BRANCH  15  14
ATOM     14  C   UNL     1      48.981   6.332  21.536  0.00  0.00    +0.000 C 
BRANCH  14  13
ATOM     13  N   UNL     1      49.574   7.606  21.135  0.00  0.00    +0.000 NA
ATOM     35  H   UNL     1      50.558   7.603  21.404  0.00  0.00    +0.000 HD
BRANCH  13  12
ATOM     12  C   UNL     1      48.883   8.722  21.757  0.00  0.00    +0.000 C 
BRANCH  12  11
ATOM     11  C   UNL     1      47.861   9.321  20.800  0.00  0.00    +0.000 C 
BRANCH  11  10
ATOM     10  C   UNL     1      48.559   9.816  19.554  0.00  0.00    +0.000 C 
BRANCH  10   9
ATOM      9  C   UNL     1      47.816   9.356  18.314  0.00  0.00    +0.000 C 
BRANCH   9   8
ATOM      8  C   UNL     1      48.374  10.066  17.092  0.00  0.00    +0.000 C 
BRANCH   8   7
ATOM      7  C   UNL     1      48.443   9.108  15.915  0.00  0.00    +0.000 C 
BRANCH   7   6
ATOM      6  C   UNL     1      48.643   7.686  16.411  0.00  0.00    +0.000 C 
BRANCH   6   5
ATOM      5  C   UNL     1      49.629   6.954  15.515  0.00  0.00    +0.000 C 
BRANCH   5   4
ATOM      4  C   UNL     1      50.997   6.892  16.177  0.00  0.00    +0.000 C 
BRANCH   4   3
ATOM      3  C   UNL     1      50.868   7.127  17.674  0.00  0.00    +0.000 C 
BRANCH   3   2
ATOM      1  C   UNL     1      52.442   5.188  17.593  0.00  0.00    +0.000 C 
ATOM      2  C   UNL     1      51.914   6.329  18.440  0.00  0.00    +0.000 C 
ENDBRANCH   3   2
ENDBRANCH   4   3
ENDBRANCH   5   4
ENDBRANCH   6   5
ENDBRANCH   7   6
ENDBRANCH   8   7
ENDBRANCH   9   8
ENDBRANCH  10   9
ENDBRANCH  11  10
ENDBRANCH  12  11
ENDBRANCH  13  12
ENDBRANCH  14  13
ENDBRANCH  15  14
BRANCH  18  19
ATOM     19  C   UNL     1      47.306   3.678  16.628  0.00  0.00    +0.000 C 
BRANCH  19  20
ATOM     20  N   UNL     1      46.830   4.579  15.612  0.00  0.00    +0.000 N 
ATOM     21  C   UNL     1      46.772   4.246  14.286  0.00  0.00    +0.000 C 
ATOM     22  O   UNL     1      47.124   3.155  13.847  0.00  0.00    +0.000 OA
ATOM     36  H   UNL     1      46.682   5.546  15.865  0.00  0.00    +0.000 HD
BRANCH  21  23
ATOM     23  C   UNL     1      46.168   5.272  13.431  0.00  0.00    +0.000 A 
ATOM     24  C   UNL     1      46.872   6.424  13.107  0.00  0.00    +0.000 A 
ATOM     25  S   UNL     1      46.019   7.462  12.055  0.00  0.00    +0.000 S 
ATOM     26  C   UNL     1      44.672   6.423  12.025  0.00  0.00    +0.000 A 
ATOM     27  N   UNL     1      43.554   6.733  11.308  0.00  0.00    +0.000 NA
ATOM     28  C   UNL     1      42.609   5.862  11.392  0.00  0.00    +0.000 A 
ATOM     29  N   UNL     1      42.668   4.700  12.126  0.00  0.00    +0.000 N 
ATOM     30  C   UNL     1      43.782   4.334  12.854  0.00  0.00    +0.000 A 
ATOM     31  O   UNL     1      43.819   3.281  13.457  0.00  0.00    +0.000 OA
ATOM     32  C   UNL     1      44.872   5.296  12.792  0.00  0.00    +0.000 A 
ATOM     37  H   UNL     1      41.898   4.056  12.138  0.00  0.00    +0.000 HD
ENDBRANCH  21  23
ENDBRANCH  19  20
ENDBRANCH  18  19
TORSDOF 16
ENDMDL
MODEL 6
REMARK VINA RESULT:    -5.819      3.701      9.841
REMARK INTER + INTRA:         -13.867
REMARK INTER:                 -10.201
REMARK INTRA:                  -3.666
REMARK UNBOUND:                -2.605
REMARK  Name = 
REMARK  17 active torsions:
REMARK  status: ('A' for Active; 'I' for Inactive)
REMARK    1  A    between atoms: C_1  and  C_2
REMARK    2  A    between atoms: C_2  and  C_3
REMARK    3  A    between atoms: C_3  and  C_4
REMARK    4  A    between atoms: C_4  and  C_5
REMARK    5  A    between atoms: C_5  and  C_6
REMARK    6  A    between atoms: C_6  and  C_7
REMARK    7  A    between atoms: C_7  and  C_8
REMARK    8  A    between atoms: C_8  and  C_9
REMARK    9  A    between atoms: C_9  and  C_10
REMARK   10  A    between atoms: C_10  and  C_11
REMARK   11  A    between atoms: C_11  and  C_12
REMARK   12  A    between atoms: C_12  and  N_13
REMARK   13  A    between atoms: N_13  and  C_14
REMARK   14  A    between atoms: C_14  and  C_15
REMARK   15  A    between atoms: C_18  and  C_19
REMARK   16  A    between atoms: C_19  and  N_20
REMARK   17  A    between atoms: C_21  and  C_23
REMARK                            x       y       z     vdW  Elec       q    Type
REMARK                         _______ _______ _______ _____ _____    ______ ____
ROOT
ATOM     15  C   UNL     1      51.511   2.953  17.516  0.00  0.00    +0.000 A 
ATOM     16  C   UNL     1      50.693   1.893  17.129  0.00  0.00    +0.000 A 
ATOM     17  C   UNL     1      49.326   2.087  16.946  0.00  0.00    +0.000 A 
ATOM     18  C   UNL     1      48.751   3.358  17.114  0.00  0.00    +0.000 A 
ATOM     33  C   UNL     1      49.587   4.421  17.485  0.00  0.00    +0.000 A 
ATOM     34  C   UNL     1      50.959   4.228  17.664  0.00  0.00    +0.000 A 
ENDROOT
BRANCH  15  14
ATOM     14  C   UNL     1      52.948   2.684  17.837  0.00  0.00    +0.000 C 
BRANCH  14  13
ATOM     13  N   UNL     1      53.093   2.433  19.270  0.00  0.00    +0.000 NA
ATOM     35  H   UNL     1      52.162   2.348  19.678  0.00  0.00    +0.000 HD
BRANCH  13  12
ATOM     12  C   UNL     1      53.831   3.504  19.915  0.00  0.00    +0.000 C 
BRANCH  12  11
ATOM     11  C   UNL     1      52.945   4.244  20.909  0.00  0.00    +0.000 C 
BRANCH  11  10
ATOM     10  C   UNL     1      53.115   5.736  20.730  0.00  0.00    +0.000 C 
BRANCH  10   9
ATOM      9  C   UNL     1      51.795   6.448  20.959  0.00  0.00    +0.000 C 
BRANCH   9   8
ATOM      8  C   UNL     1      51.423   7.243  19.719  0.00  0.00    +0.000 C 
BRANCH   8   7
ATOM      7  C   UNL     1      51.012   8.654  20.104  0.00  0.00    +0.000 C 
BRANCH   7   6
ATOM      6  C   UNL     1      49.540   8.871  19.797  0.00  0.00    +0.000 C 
BRANCH   6   5
ATOM      5  C   UNL     1      48.997   7.702  18.991  0.00  0.00    +0.000 C 
BRANCH   5   4
ATOM      4  C   UNL     1      47.502   7.550  19.224  0.00  0.00    +0.000 C 
BRANCH   4   3
ATOM      3  C   UNL     1      47.181   6.132  19.670  0.00  0.00    +0.000 C 
BRANCH   3   2
ATOM      1  C   UNL     1      48.666   4.597  20.967  0.00  0.00    +0.000 C 
ATOM      2  C   UNL     1      47.800   5.839  21.030  0.00  0.00    +0.000 C 
ENDBRANCH   3   2
ENDBRANCH   4   3
ENDBRANCH   5   4
ENDBRANCH   6   5
ENDBRANCH   7   6
ENDBRANCH   8   7
ENDBRANCH   9   8
ENDBRANCH  10   9
ENDBRANCH  11  10
ENDBRANCH  12  11
ENDBRANCH  13  12
ENDBRANCH  14  13
ENDBRANCH  15  14
BRANCH  18  19
ATOM     19  C   UNL     1      47.277   3.608  16.883  0.00  0.00    +0.000 C 
BRANCH  19  20
ATOM     20  N   UNL     1      47.003   4.587  15.864  0.00  0.00    +0.000 N 
ATOM     21  C   UNL     1      47.000   4.292  14.528  0.00  0.00    +0.000 C 
ATOM     22  O   UNL     1      47.233   3.173  14.081  0.00  0.00    +0.000 OA
ATOM     36  H   UNL     1      46.969   5.559  16.136  0.00  0.00    +0.000 HD
BRANCH  21  23
ATOM     23  C   UNL     1      46.606   5.409  13.664  0.00  0.00    +0.000 A 
ATOM     24  C   UNL     1      45.406   5.371  12.967  0.00  0.00    +0.000 A 
ATOM     25  S   UNL     1      45.103   6.788  12.066  0.00  0.00    +0.000 S 
ATOM     26  C   UNL     1      46.578   7.483  12.552  0.00  0.00    +0.000 A 
ATOM     27  N   UNL     1      46.958   8.717  12.114  0.00  0.00    +0.000 NA
ATOM     28  C   UNL     1      48.105   9.108  12.550  0.00  0.00    +0.000 A 
ATOM     29  N   UNL     1      48.919   8.385  13.390  0.00  0.00    +0.000 N 
ATOM     30  C   UNL     1      48.572   7.139  13.874  0.00  0.00    +0.000 A 
ATOM     31  O   UNL     1      49.294   6.544  14.647  0.00  0.00    +0.000 OA
ATOM     32  C   UNL     1      47.285   6.657  13.398  0.00  0.00    +0.000 A 
ATOM     37  H   UNL     1      49.798   8.754  13.704  0.00  0.00    +0.000 HD
ENDBRANCH  21  23
ENDBRANCH  19  20
ENDBRANCH  18  19
TORSDOF 16
ENDMDL
MODEL 7
REMARK VINA RESULT:    -5.783      2.863      3.820
REMARK INTER + INTRA:         -13.798
REMARK INTER:                 -12.567
REMARK INTRA:                  -1.231
REMARK UNBOUND:                -2.605
REMARK  Name = 
REMARK  17 active torsions:
REMARK  status: ('A' for Active; 'I' for Inactive)
REMARK    1  A    between atoms: C_1  and  C_2
REMARK    2  A    between atoms: C_2  and  C_3
REMARK    3  A    between atoms: C_3  and  C_4
REMARK    4  A    between atoms: C_4  and  C_5
REMARK    5  A    between atoms: C_5  and  C_6
REMARK    6  A    between atoms: C_6  and  C_7
REMARK    7  A    between atoms: C_7  and  C_8
REMARK    8  A    between atoms: C_8  and  C_9
REMARK    9  A    between atoms: C_9  and  C_10
REMARK   10  A    between atoms: C_10  and  C_11
REMARK   11  A    between atoms: C_11  and  C_12
REMARK   12  A    between atoms: C_12  and  N_13
REMARK   13  A    between atoms: N_13  and  C_14
REMARK   14  A    between atoms: C_14  and  C_15
REMARK   15  A    between atoms: C_18  and  C_19
REMARK   16  A    between atoms: C_19  and  N_20
REMARK   17  A    between atoms: C_21  and  C_23
REMARK                            x       y       z     vdW  Elec       q    Type
REMARK                         _______ _______ _______ _____ _____    ______ ____
ROOT
ATOM     15  C   UNL     1      46.881   4.824  13.930  0.00  0.00    +0.000 A 
ATOM     16  C   UNL     1      46.966   4.311  15.224  0.00  0.00    +0.000 A 
ATOM     17  C   UNL     1      47.814   4.897  16.160  0.00  0.00    +0.000 A 
ATOM     18  C   UNL     1      48.573   6.033  15.832  0.00  0.00    +0.000 A 
ATOM     33  C   UNL     1      48.465   6.550  14.533  0.00  0.00    +0.000 A 
ATOM     34  C   UNL     1      47.611   5.966  13.594  0.00  0.00    +0.000 A 
ENDROOT
BRANCH  15  14
ATOM     14  C   UNL     1      46.066   4.092  12.909  0.00  0.00    +0.000 C 
BRANCH  14  13
ATOM     13  N   UNL     1      44.700   4.613  12.904  0.00  0.00    +0.000 NA
ATOM     35  H   UNL     1      44.526   5.069  13.800  0.00  0.00    +0.000 HD
BRANCH  13  12
ATOM     12  C   UNL     1      43.737   3.549  12.684  0.00  0.00    +0.000 C 
BRANCH  12  11
ATOM     11  C   UNL     1      43.219   3.582  11.252  0.00  0.00    +0.000 C 
BRANCH  11  10
ATOM     10  C   UNL     1      43.928   4.671  10.480  0.00  0.00    +0.000 C 
BRANCH  10   9
ATOM      9  C   UNL     1      44.344   4.163   9.112  0.00  0.00    +0.000 C 
BRANCH   9   8
ATOM      8  C   UNL     1      44.421   2.646   9.134  0.00  0.00    +0.000 C 
BRANCH   8   7
ATOM      7  C   UNL     1      45.790   2.183   8.665  0.00  0.00    +0.000 C 
BRANCH   7   6
ATOM      6  C   UNL     1      46.247   3.021   7.483  0.00  0.00    +0.000 C 
BRANCH   6   5
ATOM      5  C   UNL     1      47.568   2.492   6.947  0.00  0.00    +0.000 C 
BRANCH   5   4
ATOM      4  C   UNL     1      47.322   1.337   5.989  0.00  0.00    +0.000 C 
BRANCH   4   3
ATOM      3  C   UNL     1      47.273   1.845   4.556  0.00  0.00    +0.000 C 
BRANCH   3   2
ATOM      1  C   UNL     1      46.873  -0.557   3.998  0.00  0.00    +0.000 C 
ATOM      2  C   UNL     1      46.511   0.876   3.663  0.00  0.00    +0.000 C 
ENDBRANCH   3   2
ENDBRANCH   4   3
ENDBRANCH   5   4
ENDBRANCH   6   5
ENDBRANCH   7   6
ENDBRANCH   8   7
ENDBRANCH   9   8
ENDBRANCH  10   9
ENDBRANCH  11  10
ENDBRANCH  12  11
ENDBRANCH  13  12
ENDBRANCH  14  13
ENDBRANCH  15  14
BRANCH  18  19
ATOM     19  C   UNL     1      49.473   6.715  16.839  0.00  0.00    +0.000 C 
BRANCH  19  20
ATOM     20  N   UNL     1      50.569   5.898  17.290  0.00  0.00    +0.000 N 
ATOM     21  C   UNL     1      50.508   5.120  18.413  0.00  0.00    +0.000 C 
ATOM     22  O   UNL     1      49.518   5.051  19.136  0.00  0.00    +0.000 OA
ATOM     36  H   UNL     1      51.469   6.026  16.849  0.00  0.00    +0.000 HD
BRANCH  21  23
ATOM     23  C   UNL     1      51.697   4.294  18.642  0.00  0.00    +0.000 A 
ATOM     24  C   UNL     1      52.769   4.789  19.373  0.00  0.00    +0.000 A 
ATOM     25  S   UNL     1      54.028   3.655  19.577  0.00  0.00    +0.000 S 
ATOM     26  C   UNL     1      53.197   2.480  18.670  0.00  0.00    +0.000 A 
ATOM     27  N   UNL     1      53.738   1.250  18.439  0.00  0.00    +0.000 NA
ATOM     28  C   UNL     1      53.004   0.470  17.723  0.00  0.00    +0.000 A 
ATOM     29  N   UNL     1      51.770   0.797  17.212  0.00  0.00    +0.000 N 
ATOM     30  C   UNL     1      51.173   2.022  17.431  0.00  0.00    +0.000 A 
ATOM     31  O   UNL     1      50.064   2.265  17.000  0.00  0.00    +0.000 OA
ATOM     32  C   UNL     1      51.974   2.937  18.230  0.00  0.00    +0.000 A 
ATOM     37  H   UNL     1      51.242   0.136  16.671  0.00  0.00    +0.000 HD
ENDBRANCH  21  23
ENDBRANCH  19  20
ENDBRANCH  18  19
TORSDOF 16
ENDMDL
MODEL 8
REMARK VINA RESULT:    -5.723      3.518      8.728
REMARK INTER + INTRA:         -13.682
REMARK INTER:                  -9.612
REMARK INTRA:                  -4.069
REMARK UNBOUND:                -2.605
REMARK  Name = 
REMARK  17 active torsions:
REMARK  status: ('A' for Active; 'I' for Inactive)
REMARK    1  A    between atoms: C_1  and  C_2
REMARK    2  A    between atoms: C_2  and  C_3
REMARK    3  A    between atoms: C_3  and  C_4
REMARK    4  A    between atoms: C_4  and  C_5
REMARK    5  A    between atoms: C_5  and  C_6
REMARK    6  A    between atoms: C_6  and  C_7
REMARK    7  A    between atoms: C_7  and  C_8
REMARK    8  A    between atoms: C_8  and  C_9
REMARK    9  A    between atoms: C_9  and  C_10
REMARK   10  A    between atoms: C_10  and  C_11
REMARK   11  A    between atoms: C_11  and  C_12
REMARK   12  A    between atoms: C_12  and  N_13
REMARK   13  A    between atoms: N_13  and  C_14
REMARK   14  A    between atoms: C_14  and  C_15
REMARK   15  A    between atoms: C_18  and  C_19
REMARK   16  A    between atoms: C_19  and  N_20
REMARK   17  A    between atoms: C_21  and  C_23
REMARK                            x       y       z     vdW  Elec       q    Type
REMARK                         _______ _______ _______ _____ _____    ______ ____
ROOT
ATOM     15  C   UNL     1      48.246   5.542  20.315  0.00  0.00    +0.000 A 
ATOM     16  C   UNL     1      47.073   5.783  19.601  0.00  0.00    +0.000 A 
ATOM     17  C   UNL     1      46.903   5.255  18.324  0.00  0.00    +0.000 A 
ATOM     18  C   UNL     1      47.892   4.443  17.743  0.00  0.00    +0.000 A 
ATOM     33  C   UNL     1      49.060   4.193  18.478  0.00  0.00    +0.000 A 
ATOM     34  C   UNL     1      49.229   4.718  19.762  0.00  0.00    +0.000 A 
ENDROOT
BRANCH  15  14
ATOM     14  C   UNL     1      48.456   6.234  21.626  0.00  0.00    +0.000 C 
BRANCH  14  13
ATOM     13  N   UNL     1      47.615   7.427  21.692  0.00  0.00    +0.000 NA
ATOM     35  H   UNL     1      47.211   7.588  20.769  0.00  0.00    +0.000 HD
BRANCH  13  12
ATOM     12  C   UNL     1      48.384   8.584  22.115  0.00  0.00    +0.000 C 
BRANCH  12  11
ATOM     11  C   UNL     1      48.717   9.472  20.923  0.00  0.00    +0.000 C 
BRANCH  11  10
ATOM     10  C   UNL     1      47.709   9.242  19.820  0.00  0.00    +0.000 C 
BRANCH  10   9
ATOM      9  C   UNL     1      48.416   9.037  18.493  0.00  0.00    +0.000 C 
BRANCH   9   8
ATOM      8  C   UNL     1      49.792   8.439  18.736  0.00  0.00    +0.000 C 
BRANCH   8   7
ATOM      7  C   UNL     1      50.303   7.769  17.472  0.00  0.00    +0.000 C 
BRANCH   7   6
ATOM      6  C   UNL     1      49.157   7.551  16.497  0.00  0.00    +0.000 C 
BRANCH   6   5
ATOM      5  C   UNL     1      49.701   7.190  15.125  0.00  0.00    +0.000 C 
BRANCH   5   4
ATOM      4  C   UNL     1      49.843   8.439  14.269  0.00  0.00    +0.000 C 
BRANCH   4   3
ATOM      3  C   UNL     1      48.677   9.383  14.521  0.00  0.00    +0.000 C 
BRANCH   3   2
ATOM      1  C   UNL     1      49.815  11.196  15.811  0.00  0.00    +0.000 C 
ATOM      2  C   UNL     1      49.140  10.833  14.503  0.00  0.00    +0.000 C 
ENDBRANCH   3   2
ENDBRANCH   4   3
ENDBRANCH   5   4
ENDBRANCH   6   5
ENDBRANCH   7   6
ENDBRANCH   8   7
ENDBRANCH   9   8
ENDBRANCH  10   9
ENDBRANCH  11  10
ENDBRANCH  12  11
ENDBRANCH  13  12
ENDBRANCH  14  13
ENDBRANCH  15  14
BRANCH  18  19
ATOM     19  C   UNL     1      47.719   3.823  16.374  0.00  0.00    +0.000 C 
BRANCH  19  20
ATOM     20  N   UNL     1      47.123   4.705  15.405  0.00  0.00    +0.000 N 
ATOM     21  C   UNL     1      46.781   4.305  14.142  0.00  0.00    +0.000 C 
ATOM     22  O   UNL     1      46.953   3.164  13.724  0.00  0.00    +0.000 OA
ATOM     36  H   UNL     1      47.104   5.694  15.612  0.00  0.00    +0.000 HD
BRANCH  21  23
ATOM     23  C   UNL     1      46.102   5.332  13.346  0.00  0.00    +0.000 A 
ATOM     24  C   UNL     1      46.734   6.534  13.059  0.00  0.00    +0.000 A 
ATOM     25  S   UNL     1      45.800   7.568  12.073  0.00  0.00    +0.000 S 
ATOM     26  C   UNL     1      44.513   6.458  12.025  0.00  0.00    +0.000 A 
ATOM     27  N   UNL     1      43.363   6.736  11.347  0.00  0.00    +0.000 NA
ATOM     28  C   UNL     1      42.468   5.811  11.412  0.00  0.00    +0.000 A 
ATOM     29  N   UNL     1      42.608   4.623  12.091  0.00  0.00    +0.000 N 
ATOM     30  C   UNL     1      43.757   4.289  12.778  0.00  0.00    +0.000 A 
ATOM     31  O   UNL     1      43.866   3.215  13.333  0.00  0.00    +0.000 OA
ATOM     32  C   UNL     1      44.791   5.312  12.736  0.00  0.00    +0.000 A 
ATOM     37  H   UNL     1      41.875   3.937  12.091  0.00  0.00    +0.000 HD
ENDBRANCH  21  23
ENDBRANCH  19  20
ENDBRANCH  18  19
TORSDOF 16
ENDMDL
MODEL 9
REMARK VINA RESULT:    -5.706      3.526      9.264
REMARK INTER + INTRA:         -13.649
REMARK INTER:                 -10.142
REMARK INTRA:                  -3.507
REMARK UNBOUND:                -2.605
REMARK  Name = 
REMARK  17 active torsions:
REMARK  status: ('A' for Active; 'I' for Inactive)
REMARK    1  A    between atoms: C_1  and  C_2
REMARK    2  A    between atoms: C_2  and  C_3
REMARK    3  A    between atoms: C_3  and  C_4
REMARK    4  A    between atoms: C_4  and  C_5
REMARK    5  A    between atoms: C_5  and  C_6
REMARK    6  A    between atoms: C_6  and  C_7
REMARK    7  A    between atoms: C_7  and  C_8
REMARK    8  A    between atoms: C_8  and  C_9
REMARK    9  A    between atoms: C_9  and  C_10
REMARK   10  A    between atoms: C_10  and  C_11
REMARK   11  A    between atoms: C_11  and  C_12
REMARK   12  A    between atoms: C_12  and  N_13
REMARK   13  A    between atoms: N_13  and  C_14
REMARK   14  A    between atoms: C_14  and  C_15
REMARK   15  A    between atoms: C_18  and  C_19
REMARK   16  A    between atoms: C_19  and  N_20
REMARK   17  A    between atoms: C_21  and  C_23
REMARK                            x       y       z     vdW  Elec       q    Type
REMARK                         _______ _______ _______ _____ _____    ______ ____
ROOT
ATOM     15  C   UNL     1      48.286   5.481  20.585  0.00  0.00    +0.000 A 
ATOM     16  C   UNL     1      47.317   6.061  19.769  0.00  0.00    +0.000 A 
ATOM     17  C   UNL     1      47.006   5.499  18.534  0.00  0.00    +0.000 A 
ATOM     18  C   UNL     1      47.636   4.320  18.101  0.00  0.00    +0.000 A 
ATOM     33  C   UNL     1      48.596   3.735  18.939  0.00  0.00    +0.000 A 
ATOM     34  C   UNL     1      48.904   4.296  20.181  0.00  0.00    +0.000 A 
ENDROOT
BRANCH  15  14
ATOM     14  C   UNL     1      48.694   6.183  21.843  0.00  0.00    +0.000 C 
BRANCH  14  13
ATOM     13  N   UNL     1      50.139   6.408  21.833  0.00  0.00    +0.000 NA
ATOM     35  H   UNL     1      50.524   6.065  22.713  0.00  0.00    +0.000 HD
BRANCH  13  12
ATOM     12  C   UNL     1      50.446   7.817  21.661  0.00  0.00    +0.000 C 
BRANCH  12  11
ATOM     11  C   UNL     1      51.276   8.035  20.403  0.00  0.00    +0.000 C 
BRANCH  11  10
ATOM     10  C   UNL     1      50.360   8.240  19.218  0.00  0.00    +0.000 C 
BRANCH  10   9
ATOM      9  C   UNL     1      51.052   7.814  17.937  0.00  0.00    +0.000 C 
BRANCH   9   8
ATOM      8  C   UNL     1      50.326   6.621  17.338  0.00  0.00    +0.000 C 
BRANCH   8   7
ATOM      7  C   UNL     1      51.309   5.498  17.056  0.00  0.00    +0.000 C 
BRANCH   7   6
ATOM      6  C   UNL     1      52.729   5.965  17.329  0.00  0.00    +0.000 C 
BRANCH   6   5
ATOM      5  C   UNL     1      53.340   5.148  18.456  0.00  0.00    +0.000 C 
BRANCH   5   4
ATOM      4  C   UNL     1      52.406   4.014  18.850  0.00  0.00    +0.000 C 
BRANCH   4   3
ATOM      3  C   UNL     1      53.171   2.700  18.907  0.00  0.00    +0.000 C 
BRANCH   3   2
ATOM      1  C   UNL     1      51.612   1.289  17.557  0.00  0.00    +0.000 C 
ATOM      2  C   UNL     1      52.993   1.913  17.616  0.00  0.00    +0.000 C 
ENDBRANCH   3   2
ENDBRANCH   4   3
ENDBRANCH   5   4
ENDBRANCH   6   5
ENDBRANCH   7   6
ENDBRANCH   8   7
ENDBRANCH   9   8
ENDBRANCH  10   9
ENDBRANCH  11  10
ENDBRANCH  12  11
ENDBRANCH  13  12
ENDBRANCH  14  13
ENDBRANCH  15  14
BRANCH  18  19
ATOM     19  C   UNL     1      47.291   3.664  16.782  0.00  0.00    +0.000 C 
BRANCH  19  20
ATOM     20  N   UNL     1      46.920   4.593  15.747  0.00  0.00    +0.000 N 
ATOM     21  C   UNL     1      46.901   4.263  14.419  0.00  0.00    +0.000 C 
ATOM     22  O   UNL     1      47.200   3.151  13.994  0.00  0.00    +0.000 OA
ATOM     36  H   UNL     1      46.824   5.567  15.996  0.00  0.00    +0.000 HD
BRANCH  21  23
ATOM     23  C   UNL     1      46.403   5.325  13.540  0.00  0.00    +0.000 A 
ATOM     24  C   UNL     1      47.199   6.423  13.241  0.00  0.00    +0.000 A 
ATOM     25  S   UNL     1      46.462   7.515  12.155  0.00  0.00    +0.000 S 
ATOM     26  C   UNL     1      45.047   6.573  12.076  0.00  0.00    +0.000 A 
ATOM     27  N   UNL     1      43.981   6.959  11.318  0.00  0.00    +0.000 NA
ATOM     28  C   UNL     1      42.974   6.158  11.368  0.00  0.00    +0.000 A 
ATOM     29  N   UNL     1      42.923   4.998  12.105  0.00  0.00    +0.000 N 
ATOM     30  C   UNL     1      43.979   4.557  12.875  0.00  0.00    +0.000 A 
ATOM     31  O   UNL     1      43.919   3.507  13.481  0.00  0.00    +0.000 OA
ATOM     32  C   UNL     1      45.137   5.439  12.852  0.00  0.00    +0.000 A 
ATOM     37  H   UNL     1      42.108   4.410  12.089  0.00  0.00    +0.000 HD
ENDBRANCH  21  23
ENDBRANCH  19  20
ENDBRANCH  18  19
TORSDOF 16
ENDMDL
