MODEL 1
REMARK VINA RESULT:    -6.312      0.000      0.000
REMARK INTER + INTRA:          -8.595
REMARK INTER:                  -8.157
REMARK INTRA:                  -0.439
REMARK UNBOUND:                -0.439
REMARK  Name = 
REMARK  6 active torsions:
REMARK  status: ('A' for Active; 'I' for Inactive)
REMARK    1  A    between atoms: C_1  and  N_2
REMARK    2  A    between atoms: N_2  and  C_21
REMARK    3  A    between atoms: C_3  and  C_5
REMARK    4  A    between atoms: C_5  and  N_6
REMARK    5  A    between atoms: C_7  and  C_8
REMARK    6  A    between atoms: C_14  and  C_15
REMARK                            x       y       z     vdW  Elec       q    Type
REMARK                         _______ _______ _______ _____ _____    ______ ____
ROOT
ATOM      6  N   UNL     1      48.248   7.007  13.893  0.00  0.00    +0.000 N 
ATOM      7  C   UNL     1      48.050   8.016  12.967  0.00  0.00    +0.000 A 
ATOM     11  C   UNL     1      46.953   7.681  12.202  0.00  0.00    +0.000 A 
ATOM     12  C   UNL     1      46.580   6.370  12.539  0.00  0.00    +0.000 A 
ATOM     13  C   UNL     1      45.641   5.476  12.018  0.00  0.00    +0.000 A 
ATOM     14  C   UNL     1      45.593   4.199  12.562  0.00  0.00    +0.000 A 
ATOM     18  C   UNL     1      46.468   3.893  13.606  0.00  0.00    +0.000 A 
ATOM     19  N   UNL     1      47.389   4.734  14.162  0.00  0.00    +0.000 NA
ATOM     20  C   UNL     1      47.399   5.957  13.583  0.00  0.00    +0.000 A 
ENDROOT
BRANCH  14  15
ATOM     15  C   UNL     1      44.666   3.162  12.057  0.00  0.00    +0.000 C 
ATOM     16  N   UNL     1      44.835   2.700  10.779  0.00  0.00    +0.000 N 
ATOM     17  O   UNL     1      43.771   2.715  12.760  0.00  0.00    +0.000 OA
ATOM     27  H   UNL     1      45.551   3.002  10.133  0.00  0.00    +0.000 HD
ATOM     28  H   UNL     1      44.192   1.991  10.455  0.00  0.00    +0.000 HD
ENDBRANCH  14  15
BRANCH   7   8
ATOM      8  C   UNL     1      48.872   9.283  12.735  0.00  0.00    +0.000 C 
ATOM      9  C   UNL     1      48.817   9.962  11.378  0.00  0.00    +0.000 C 
ATOM     10  C   UNL     1      50.021   9.167  11.739  0.00  0.00    +0.000 C 
ENDBRANCH   7   8
BRANCH   6   5
ATOM      5  C   UNL     1      49.280   6.914  14.923  0.00  0.00    +0.000 C 
BRANCH   5   3
ATOM      1  C   UNL     1      48.503   7.895  18.532  0.00  0.00    +0.000 C 
ATOM      2  N   UNL     1      48.750   7.008  17.387  0.00  0.00    +0.000 N 
ATOM      3  C   UNL     1      49.034   7.710  16.186  0.00  0.00    +0.000 C 
ATOM      4  O   UNL     1      49.128   8.941  16.180  0.00  0.00    +0.000 OA
BRANCH   2  21
ATOM     21  C   UNL     1      48.176   5.615  17.495  0.00  0.00    +0.000 C 
ATOM     22  C   UNL     1      47.440   5.344  18.837  0.00  0.00    +0.000 C 
ATOM     23  C   UNL     1      48.427   5.211  20.004  0.00  0.00    +0.000 C 
ATOM     24  N   UNL     1      49.430   4.168  19.779  0.00  0.00    +0.000 NA
ATOM     25  C   UNL     1      50.126   4.360  18.509  0.00  0.00    +0.000 C 
ATOM     26  C   UNL     1      49.138   4.418  17.351  0.00  0.00    +0.000 C 
ATOM     29  H   UNL     1      48.975   3.255  19.781  0.00  0.00    +0.000 HD
ENDBRANCH   2  21
ENDBRANCH   5   3
ENDBRANCH   6   5
TORSDOF 5
ENDMDL
MODEL 2
REMARK VINA RESULT:    -5.945      2.117      5.560
REMARK INTER + INTRA:          -8.121
REMARK INTER:                  -7.646
REMARK INTRA:                  -0.476
REMARK UNBOUND:                -0.439
REMARK  Name = 
REMARK  6 active torsions:
REMARK  status: ('A' for Active; 'I' for Inactive)
REMARK    1  A    between atoms: C_1  and  N_2
REMARK    2  A    between atoms: N_2  and  C_21
REMARK    3  A    between atoms: C_3  and  C_5
REMARK    4  A    between atoms: C_5  and  N_6
REMARK    5  A    between atoms: C_7  and  C_8
REMARK    6  A    between atoms: C_14  and  C_15
REMARK                            x       y       z     vdW  Elec       q    Type
REMARK                         _______ _______ _______ _____ _____    ______ ____
ROOT
ATOM      6  N   UNL     1      47.531   5.789  14.474  0.00  0.00    +0.000 N 
ATOM      7  C   UNL     1      47.579   4.658  15.269  0.00  0.00    +0.000 A 
ATOM     11  C   UNL     1      46.974   3.629  14.578  0.00  0.00    +0.000 A 
ATOM     12  C   UNL     1      46.388   4.173  13.425  0.00  0.00    +0.000 A 
ATOM     13  C   UNL     1      45.556   3.648  12.433  0.00  0.00    +0.000 A 
ATOM     14  C   UNL     1      45.090   4.516  11.454  0.00  0.00    +0.000 A 
ATOM     18  C   UNL     1      45.496   5.851  11.507  0.00  0.00    +0.000 A 
ATOM     19  N   UNL     1      46.321   6.408  12.442  0.00  0.00    +0.000 NA
ATOM     20  C   UNL     1      46.731   5.519  13.376  0.00  0.00    +0.000 A 
ENDROOT
BRANCH  14  15
ATOM     15  C   UNL     1      44.171   4.074  10.381  0.00  0.00    +0.000 C 
ATOM     16  N   UNL     1      44.344   4.582   9.122  0.00  0.00    +0.000 N 
ATOM     17  O   UNL     1      43.278   3.269  10.603  0.00  0.00    +0.000 OA
ATOM     27  H   UNL     1      45.059   5.241   8.844  0.00  0.00    +0.000 HD
ATOM     28  H   UNL     1      43.706   4.266   8.404  0.00  0.00    +0.000 HD
ENDBRANCH  14  15
BRANCH   7   8
ATOM      8  C   UNL     1      48.140   4.497  16.681  0.00  0.00    +0.000 C 
ATOM      9  C   UNL     1      47.637   3.360  17.552  0.00  0.00    +0.000 C 
ATOM     10  C   UNL     1      47.163   4.743  17.826  0.00  0.00    +0.000 C 
ENDBRANCH   7   8
BRANCH   6   5
ATOM      5  C   UNL     1      48.046   7.124  14.769  0.00  0.00    +0.000 C 
BRANCH   5   3
ATOM      1  C   UNL     1      51.392   8.346  13.387  0.00  0.00    +0.000 C 
ATOM      2  N   UNL     1      49.932   8.256  13.535  0.00  0.00    +0.000 N 
ATOM      3  C   UNL     1      49.527   7.334  14.535  0.00  0.00    +0.000 C 
ATOM      4  O   UNL     1      50.361   6.750  15.233  0.00  0.00    +0.000 OA
BRANCH   2  21
ATOM     21  C   UNL     1      49.119   8.697  12.341  0.00  0.00    +0.000 C 
ATOM     22  C   UNL     1      49.961   9.384  11.229  0.00  0.00    +0.000 C 
ATOM     23  C   UNL     1      50.414  10.788  11.653  0.00  0.00    +0.000 C 
ATOM     24  N   UNL     1      49.294  11.656  12.021  0.00  0.00    +0.000 NA
ATOM     25  C   UNL     1      48.450  11.035  13.040  0.00  0.00    +0.000 C 
ATOM     26  C   UNL     1      47.949   9.674  12.577  0.00  0.00    +0.000 C 
ATOM     29  H   UNL     1      48.733  11.854  11.193  0.00  0.00    +0.000 HD
ENDBRANCH   2  21
ENDBRANCH   5   3
ENDBRANCH   6   5
TORSDOF 5
ENDMDL
MODEL 3
REMARK VINA RESULT:    -5.890      5.194      7.675
REMARK INTER + INTRA:          -8.050
REMARK INTER:                  -8.385
REMARK INTRA:                   0.336
REMARK UNBOUND:                -0.439
REMARK  Name = 
REMARK  6 active torsions:
REMARK  status: ('A' for Active; 'I' for Inactive)
REMARK    1  A    between atoms: C_1  and  N_2
REMARK    2  A    between atoms: N_2  and  C_21
REMARK    3  A    between atoms: C_3  and  C_5
REMARK    4  A    between atoms: C_5  and  N_6
REMARK    5  A    between atoms: C_7  and  C_8
REMARK    6  A    between atoms: C_14  and  C_15
REMARK                            x       y       z     vdW  Elec       q    Type
REMARK                         _______ _______ _______ _____ _____    ______ ____
ROOT
ATOM      6  N   UNL     1      44.631   4.876  10.143  0.00  0.00    +0.000 N 
ATOM      7  C   UNL     1      43.952   3.880  10.823  0.00  0.00    +0.000 A 
ATOM     11  C   UNL     1      44.434   2.664  10.385  0.00  0.00    +0.000 A 
ATOM     12  C   UNL     1      45.286   2.907   9.297  0.00  0.00    +0.000 A 
ATOM     13  C   UNL     1      45.949   2.073   8.393  0.00  0.00    +0.000 A 
ATOM     14  C   UNL     1      46.665   2.673   7.366  0.00  0.00    +0.000 A 
ATOM     18  C   UNL     1      46.698   4.068   7.310  0.00  0.00    +0.000 A 
ATOM     19  N   UNL     1      46.085   4.926   8.178  0.00  0.00    +0.000 NA
ATOM     20  C   UNL     1      45.392   4.285   9.147  0.00  0.00    +0.000 A 
ENDROOT
BRANCH  14  15
ATOM     15  C   UNL     1      47.369   1.885   6.330  0.00  0.00    +0.000 C 
ATOM     16  N   UNL     1      48.147   2.549   5.419  0.00  0.00    +0.000 N 
ATOM     17  O   UNL     1      47.270   0.667   6.283  0.00  0.00    +0.000 OA
ATOM     27  H   UNL     1      48.295   3.548   5.387  0.00  0.00    +0.000 HD
ATOM     28  H   UNL     1      48.620   1.991   4.721  0.00  0.00    +0.000 HD
ENDBRANCH  14  15
BRANCH   7   8
ATOM      8  C   UNL     1      42.833   4.011  11.854  0.00  0.00    +0.000 C 
ATOM      9  C   UNL     1      42.559   5.366  12.481  0.00  0.00    +0.000 C 
ATOM     10  C   UNL     1      43.266   4.330  13.281  0.00  0.00    +0.000 C 
ENDBRANCH   7   8
BRANCH   6   5
ATOM      5  C   UNL     1      44.475   6.323  10.267  0.00  0.00    +0.000 C 
BRANCH   5   3
ATOM      1  C   UNL     1      45.908   8.899  12.697  0.00  0.00    +0.000 C 
ATOM      2  N   UNL     1      45.094   8.380  11.588  0.00  0.00    +0.000 N 
ATOM      3  C   UNL     1      45.238   6.981  11.397  0.00  0.00    +0.000 C 
ATOM      4  O   UNL     1      45.930   6.304  12.163  0.00  0.00    +0.000 OA
BRANCH   2  21
ATOM     21  C   UNL     1      44.682   9.389  10.543  0.00  0.00    +0.000 C 
ATOM     22  C   UNL     1      45.471  10.726  10.619  0.00  0.00    +0.000 C 
ATOM     23  C   UNL     1      45.049  11.562  11.835  0.00  0.00    +0.000 C 
ATOM     24  N   UNL     1      43.612  11.842  11.857  0.00  0.00    +0.000 NA
ATOM     25  C   UNL     1      42.826  10.615  11.751  0.00  0.00    +0.000 C 
ATOM     26  C   UNL     1      43.205   9.832  10.501  0.00  0.00    +0.000 C 
ATOM     29  H   UNL     1      43.377  12.462  11.082  0.00  0.00    +0.000 HD
ENDBRANCH   2  21
ENDBRANCH   5   3
ENDBRANCH   6   5
TORSDOF 5
ENDMDL
MODEL 4
REMARK VINA RESULT:    -5.676      1.896      2.591
REMARK INTER + INTRA:          -7.774
REMARK INTER:                  -7.637
REMARK INTRA:                  -0.137
REMARK UNBOUND:                -0.439
REMARK  Name = 
REMARK  6 active torsions:
REMARK  status: ('A' for Active; 'I' for Inactive)
REMARK    1  A    between atoms: C_1  and  N_2
REMARK    2  A    between atoms: N_2  and  C_21
REMARK    3  A    between atoms: C_3  and  C_5
REMARK    4  A    between atoms: C_5  and  N_6
REMARK    5  A    between atoms: C_7  and  C_8
REMARK    6  A    between atoms: C_14  and  C_15
REMARK                            x       y       z     vdW  Elec       q    Type
REMARK                         _______ _______ _______ _____ _____    ______ ____
ROOT
ATOM      6  N   UNL     1      47.528   5.638  14.387  0.00  0.00    +0.000 N 
ATOM      7  C   UNL     1      47.743   6.929  13.936  0.00  0.00    +0.000 A 
ATOM     11  C   UNL     1      46.847   7.178  12.918  0.00  0.00    +0.000 A 
ATOM     12  C   UNL     1      46.195   5.972  12.616  0.00  0.00    +0.000 A 
ATOM     13  C   UNL     1      45.297   5.592  11.616  0.00  0.00    +0.000 A 
ATOM     14  C   UNL     1      44.906   4.260  11.571  0.00  0.00    +0.000 A 
ATOM     18  C   UNL     1      45.416   3.388  12.536  0.00  0.00    +0.000 A 
ATOM     19  N   UNL     1      46.280   3.713  13.543  0.00  0.00    +0.000 NA
ATOM     20  C   UNL     1      46.635   5.019  13.528  0.00  0.00    +0.000 A 
ENDROOT
BRANCH  14  15
ATOM     15  C   UNL     1      43.992   3.742  10.529  0.00  0.00    +0.000 C 
ATOM     16  N   UNL     1      43.973   4.363   9.309  0.00  0.00    +0.000 N 
ATOM     17  O   UNL     1      43.271   2.778  10.740  0.00  0.00    +0.000 OA
ATOM     27  H   UNL     1      44.539   5.156   9.041  0.00  0.00    +0.000 HD
ATOM     28  H   UNL     1      43.342   3.992   8.611  0.00  0.00    +0.000 HD
ENDBRANCH  14  15
BRANCH   7   8
ATOM      8  C   UNL     1      48.787   7.946  14.395  0.00  0.00    +0.000 C 
ATOM      9  C   UNL     1      49.273   9.000  13.416  0.00  0.00    +0.000 C 
ATOM     10  C   UNL     1      50.158   7.848  13.734  0.00  0.00    +0.000 C 
ENDBRANCH   7   8
BRANCH   6   5
ATOM      5  C   UNL     1      48.225   4.925  15.454  0.00  0.00    +0.000 C 
BRANCH   5   3
ATOM      1  C   UNL     1      46.969   5.403  19.030  0.00  0.00    +0.000 C 
ATOM      2  N   UNL     1      47.746   5.678  17.813  0.00  0.00    +0.000 N 
ATOM      3  C   UNL     1      47.470   4.771  16.756  0.00  0.00    +0.000 C 
ATOM      4  O   UNL     1      46.598   3.905  16.877  0.00  0.00    +0.000 OA
BRANCH   2  21
ATOM     21  C   UNL     1      49.020   6.466  18.006  0.00  0.00    +0.000 C 
ATOM     22  C   UNL     1      49.519   6.497  19.478  0.00  0.00    +0.000 C 
ATOM     23  C   UNL     1      48.633   7.391  20.355  0.00  0.00    +0.000 C 
ATOM     24  N   UNL     1      48.533   8.761  19.846  0.00  0.00    +0.000 NA
ATOM     25  C   UNL     1      48.100   8.781  18.450  0.00  0.00    +0.000 C 
ATOM     26  C   UNL     1      49.030   7.948  17.579  0.00  0.00    +0.000 C 
ATOM     29  H   UNL     1      49.440   9.218  19.926  0.00  0.00    +0.000 HD
ENDBRANCH   2  21
ENDBRANCH   5   3
ENDBRANCH   6   5
TORSDOF 5
ENDMDL
MODEL 5
REMARK VINA RESULT:    -5.659      1.925      2.979
REMARK INTER + INTRA:          -7.752
REMARK INTER:                  -7.590
REMARK INTRA:                  -0.162
REMARK UNBOUND:                -0.439
REMARK  Name = 
REMARK  6 active torsions:
REMARK  status: ('A' for Active; 'I' for Inactive)
REMARK    1  A    between atoms: C_1  and  N_2
REMARK    2  A    between atoms: N_2  and  C_21
REMARK    3  A    between atoms: C_3  and  C_5
REMARK    4  A    between atoms: C_5  and  N_6
REMARK    5  A    between atoms: C_7  and  C_8
REMARK    6  A    between atoms: C_14  and  C_15
REMARK                            x       y       z     vdW  Elec       q    Type
REMARK                         _______ _______ _______ _____ _____    ______ ____
ROOT
ATOM      6  N   UNL     1      47.544   7.277  13.529  0.00  0.00    +0.000 N 
ATOM      7  C   UNL     1      46.991   8.443  13.028  0.00  0.00    +0.000 A 
ATOM     11  C   UNL     1      45.714   8.154  12.594  0.00  0.00    +0.000 A 
ATOM     12  C   UNL     1      45.543   6.763  12.661  0.00  0.00    +0.000 A 
ATOM     13  C   UNL     1      44.525   5.901  12.245  0.00  0.00    +0.000 A 
ATOM     14  C   UNL     1      44.729   4.536  12.404  0.00  0.00    +0.000 A 
ATOM     18  C   UNL     1      45.924   4.110  12.987  0.00  0.00    +0.000 A 
ATOM     19  N   UNL     1      46.940   4.911  13.426  0.00  0.00    +0.000 NA
ATOM     20  C   UNL     1      46.691   6.226  13.233  0.00  0.00    +0.000 A 
ENDROOT
BRANCH  14  15
ATOM     15  C   UNL     1      43.735   3.534  11.960  0.00  0.00    +0.000 C 
ATOM     16  N   UNL     1      43.767   2.287  12.525  0.00  0.00    +0.000 N 
ATOM     17  O   UNL     1      42.896   3.804  11.113  0.00  0.00    +0.000 OA
ATOM     27  H   UNL     1      44.414   1.978  13.237  0.00  0.00    +0.000 HD
ATOM     28  H   UNL     1      43.078   1.618  12.208  0.00  0.00    +0.000 HD
ENDBRANCH  14  15
BRANCH   7   8
ATOM      8  C   UNL     1      47.621   9.829  12.901  0.00  0.00    +0.000 C 
ATOM      9  C   UNL     1      47.254  10.702  11.715  0.00  0.00    +0.000 C 
ATOM     10  C   UNL     1      48.580  10.028  11.732  0.00  0.00    +0.000 C 
ENDBRANCH   7   8
BRANCH   6   5
ATOM      5  C   UNL     1      48.871   7.081  14.106  0.00  0.00    +0.000 C 
BRANCH   5   3
ATOM      1  C   UNL     1      48.615   7.144  17.917  0.00  0.00    +0.000 C 
ATOM      2  N   UNL     1      48.501   7.639  16.538  0.00  0.00    +0.000 N 
ATOM      3  C   UNL     1      48.911   6.688  15.567  0.00  0.00    +0.000 C 
ATOM      4  O   UNL     1      49.247   5.547  15.900  0.00  0.00    +0.000 OA
BRANCH   2  21
ATOM     21  C   UNL     1      48.493   9.140  16.373  0.00  0.00    +0.000 C 
ATOM     22  C   UNL     1      49.877   9.734  15.985  0.00  0.00    +0.000 C 
ATOM     23  C   UNL     1      50.856   9.698  17.166  0.00  0.00    +0.000 C 
ATOM     24  N   UNL     1      50.342  10.394  18.347  0.00  0.00    +0.000 NA
ATOM     25  C   UNL     1      49.024   9.894  18.730  0.00  0.00    +0.000 C 
ATOM     26  C   UNL     1      48.043  10.002  17.570  0.00  0.00    +0.000 C 
ATOM     29  H   UNL     1      50.281  11.393  18.151  0.00  0.00    +0.000 HD
ENDBRANCH   2  21
ENDBRANCH   5   3
ENDBRANCH   6   5
TORSDOF 5
ENDMDL
MODEL 6
REMARK VINA RESULT:    -5.653      2.180      4.158
REMARK INTER + INTRA:          -7.744
REMARK INTER:                  -7.180
REMARK INTRA:                  -0.564
REMARK UNBOUND:                -0.439
REMARK  Name = 
REMARK  6 active torsions:
REMARK  status: ('A' for Active; 'I' for Inactive)
REMARK    1  A    between atoms: C_1  and  N_2
REMARK    2  A    between atoms: N_2  and  C_21
REMARK    3  A    between atoms: C_3  and  C_5
REMARK    4  A    between atoms: C_5  and  N_6
REMARK    5  A    between atoms: C_7  and  C_8
REMARK    6  A    between atoms: C_14  and  C_15
REMARK                            x       y       z     vdW  Elec       q    Type
REMARK                         _______ _______ _______ _____ _____    ______ ____
ROOT
ATOM      6  N   UNL     1      47.514   5.813  14.403  0.00  0.00    +0.000 N 
ATOM      7  C   UNL     1      47.595   4.703  15.226  0.00  0.00    +0.000 A 
ATOM     11  C   UNL     1      46.968   3.654  14.586  0.00  0.00    +0.000 A 
ATOM     12  C   UNL     1      46.339   4.165  13.441  0.00  0.00    +0.000 A 
ATOM     13  C   UNL     1      45.472   3.611  12.495  0.00  0.00    +0.000 A 
ATOM     14  C   UNL     1      44.967   4.451  11.511  0.00  0.00    +0.000 A 
ATOM     18  C   UNL     1      45.370   5.788  11.513  0.00  0.00    +0.000 A 
ATOM     19  N   UNL     1      46.227   6.373  12.401  0.00  0.00    +0.000 NA
ATOM     20  C   UNL     1      46.674   5.511  13.343  0.00  0.00    +0.000 A 
ENDROOT
BRANCH  14  15
ATOM     15  C   UNL     1      44.010   3.978  10.486  0.00  0.00    +0.000 C 
ATOM     16  N   UNL     1      43.984   4.615   9.274  0.00  0.00    +0.000 N 
ATOM     17  O   UNL     1      43.260   3.038  10.704  0.00  0.00    +0.000 OA
ATOM     27  H   UNL     1      44.571   5.390   9.002  0.00  0.00    +0.000 HD
ATOM     28  H   UNL     1      43.323   4.275   8.587  0.00  0.00    +0.000 HD
ENDBRANCH  14  15
BRANCH   7   8
ATOM      8  C   UNL     1      48.209   4.583  16.619  0.00  0.00    +0.000 C 
ATOM      9  C   UNL     1      47.745   3.466  17.538  0.00  0.00    +0.000 C 
ATOM     10  C   UNL     1      47.274   4.854  17.793  0.00  0.00    +0.000 C 
ENDBRANCH   7   8
BRANCH   6   5
ATOM      5  C   UNL     1      48.035   7.156  14.642  0.00  0.00    +0.000 C 
BRANCH   5   3
ATOM      1  C   UNL     1      51.683   8.241  14.304  0.00  0.00    +0.000 C 
ATOM      2  N   UNL     1      50.397   7.981  14.966  0.00  0.00    +0.000 N 
ATOM      3  C   UNL     1      49.416   7.443  14.092  0.00  0.00    +0.000 C 
ATOM      4  O   UNL     1      49.693   7.169  12.920  0.00  0.00    +0.000 OA
BRANCH   2  21
ATOM     21  C   UNL     1      50.136   8.762  16.232  0.00  0.00    +0.000 C 
ATOM     22  C   UNL     1      51.389   9.501  16.780  0.00  0.00    +0.000 C 
ATOM     23  C   UNL     1      52.399   8.520  17.392  0.00  0.00    +0.000 C 
ATOM     24  N   UNL     1      51.816   7.697  18.453  0.00  0.00    +0.000 NA
ATOM     25  C   UNL     1      50.611   7.009  17.995  0.00  0.00    +0.000 C 
ATOM     26  C   UNL     1      49.589   8.001  17.457  0.00  0.00    +0.000 C 
ATOM     29  H   UNL     1      51.585   8.289  19.251  0.00  0.00    +0.000 HD
ENDBRANCH   2  21
ENDBRANCH   5   3
ENDBRANCH   6   5
TORSDOF 5
ENDMDL
MODEL 7
REMARK VINA RESULT:    -5.586      2.203      3.340
REMARK INTER + INTRA:          -7.657
REMARK INTER:                  -7.186
REMARK INTRA:                  -0.471
REMARK UNBOUND:                -0.439
REMARK  Name = 
REMARK  6 active torsions:
REMARK  status: ('A' for Active; 'I' for Inactive)
REMARK    1  A    between atoms: C_1  and  N_2
REMARK    2  A    between atoms: N_2  and  C_21
REMARK    3  A    between atoms: C_3  and  C_5
REMARK    4  A    between atoms: C_5  and  N_6
REMARK    5  A    between atoms: C_7  and  C_8
REMARK    6  A    between atoms: C_14  and  C_15
REMARK                            x       y       z     vdW  Elec       q    Type
REMARK                         _______ _______ _______ _____ _____    ______ ____
ROOT
ATOM      6  N   UNL     1      46.184   8.529  12.938  0.00  0.00    +0.000 N 
ATOM      7  C   UNL     1      45.386   9.286  12.097  0.00  0.00    +0.000 A 
ATOM     11  C   UNL     1      44.495   8.435  11.479  0.00  0.00    +0.000 A 
ATOM     12  C   UNL     1      44.862   7.119  11.803  0.00  0.00    +0.000 A 
ATOM     13  C   UNL     1      44.415   5.866  11.378  0.00  0.00    +0.000 A 
ATOM     14  C   UNL     1      45.077   4.745  11.862  0.00  0.00    +0.000 A 
ATOM     18  C   UNL     1      46.131   4.936  12.757  0.00  0.00    +0.000 A 
ATOM     19  N   UNL     1      46.594   6.135  13.218  0.00  0.00    +0.000 NA
ATOM     20  C   UNL     1      45.921   7.189  12.702  0.00  0.00    +0.000 A 
ENDROOT
BRANCH  14  15
ATOM     15  C   UNL     1      44.712   3.373  11.445  0.00  0.00    +0.000 C 
ATOM     16  N   UNL     1      44.136   2.541  12.367  0.00  0.00    +0.000 N 
ATOM     17  O   UNL     1      44.910   2.983  10.303  0.00  0.00    +0.000 OA
ATOM     27  H   UNL     1      43.925   2.779  13.326  0.00  0.00    +0.000 HD
ATOM     28  H   UNL     1      43.894   1.608  12.060  0.00  0.00    +0.000 HD
ENDBRANCH  14  15
BRANCH   7   8
ATOM      8  C   UNL     1      45.441  10.785  11.812  0.00  0.00    +0.000 C 
ATOM      9  C   UNL     1      45.055  11.291  10.434  0.00  0.00    +0.000 C 
ATOM     10  C   UNL     1      46.494  11.242  10.807  0.00  0.00    +0.000 C 
ENDBRANCH   7   8
BRANCH   6   5
ATOM      5  C   UNL     1      47.267   8.982  13.807  0.00  0.00    +0.000 C 
BRANCH   5   3
ATOM      1  C   UNL     1      51.029   8.456  13.397  0.00  0.00    +0.000 C 
ATOM      2  N   UNL     1      49.721   8.463  14.069  0.00  0.00    +0.000 N 
ATOM      3  C   UNL     1      48.663   8.900  13.229  0.00  0.00    +0.000 C 
ATOM      4  O   UNL     1      48.866   9.162  12.039  0.00  0.00    +0.000 OA
BRANCH   2  21
ATOM     21  C   UNL     1      49.754   8.533  15.577  0.00  0.00    +0.000 C 
ATOM     22  C   UNL     1      51.138   8.177  16.190  0.00  0.00    +0.000 C 
ATOM     23  C   UNL     1      51.431   6.675  16.084  0.00  0.00    +0.000 C 
ATOM     24  N   UNL     1      50.395   5.851  16.710  0.00  0.00    +0.000 NA
ATOM     25  C   UNL     1      49.068   6.175  16.190  0.00  0.00    +0.000 C 
ATOM     26  C   UNL     1      48.761   7.656  16.368  0.00  0.00    +0.000 C 
ATOM     29  H   UNL     1      50.409   5.999  17.719  0.00  0.00    +0.000 HD
ENDBRANCH   2  21
ENDBRANCH   5   3
ENDBRANCH   6   5
TORSDOF 5
ENDMDL
MODEL 8
REMARK VINA RESULT:    -5.494      2.134      6.072
REMARK INTER + INTRA:          -7.538
REMARK INTER:                  -7.758
REMARK INTRA:                   0.219
REMARK UNBOUND:                -0.439
REMARK  Name = 
REMARK  6 active torsions:
REMARK  status: ('A' for Active; 'I' for Inactive)
REMARK    1  A    between atoms: C_1  and  N_2
REMARK    2  A    between atoms: N_2  and  C_21
REMARK    3  A    between atoms: C_3  and  C_5
REMARK    4  A    between atoms: C_5  and  N_6
REMARK    5  A    between atoms: C_7  and  C_8
REMARK    6  A    between atoms: C_14  and  C_15
REMARK                            x       y       z     vdW  Elec       q    Type
REMARK                         _______ _______ _______ _____ _____    ______ ____
ROOT
ATOM      6  N   UNL     1      48.599   7.064  13.483  0.00  0.00    +0.000 N 
ATOM      7  C   UNL     1      49.283   8.220  13.815  0.00  0.00    +0.000 A 
ATOM     11  C   UNL     1      49.679   8.115  15.132  0.00  0.00    +0.000 A 
ATOM     12  C   UNL     1      49.080   6.966  15.669  0.00  0.00    +0.000 A 
ATOM     13  C   UNL     1      49.017   6.430  16.958  0.00  0.00    +0.000 A 
ATOM     14  C   UNL     1      48.250   5.287  17.147  0.00  0.00    +0.000 A 
ATOM     18  C   UNL     1      47.607   4.733  16.039  0.00  0.00    +0.000 A 
ATOM     19  N   UNL     1      47.652   5.205  14.758  0.00  0.00    +0.000 NA
ATOM     20  C   UNL     1      48.401   6.326  14.639  0.00  0.00    +0.000 A 
ENDROOT
BRANCH  14  15
ATOM     15  C   UNL     1      48.082   4.662  18.478  0.00  0.00    +0.000 C 
ATOM     16  N   UNL     1      47.143   5.179  19.329  0.00  0.00    +0.000 N 
ATOM     17  O   UNL     1      48.757   3.701  18.817  0.00  0.00    +0.000 OA
ATOM     27  H   UNL     1      46.534   5.961  19.131  0.00  0.00    +0.000 HD
ATOM     28  H   UNL     1      47.043   4.736  20.232  0.00  0.00    +0.000 HD
ENDBRANCH  14  15
BRANCH   7   8
ATOM      8  C   UNL     1      49.558   9.454  12.958  0.00  0.00    +0.000 C 
ATOM      9  C   UNL     1      50.118   9.273  11.558  0.00  0.00    +0.000 C 
ATOM     10  C   UNL     1      51.022   9.742  12.643  0.00  0.00    +0.000 C 
ENDBRANCH   7   8
BRANCH   6   5
ATOM      5  C   UNL     1      47.993   6.708  12.202  0.00  0.00    +0.000 C 
BRANCH   5   3
ATOM      1  C   UNL     1      44.212   6.822  11.671  0.00  0.00    +0.000 C 
ATOM      2  N   UNL     1      45.533   6.229  11.922  0.00  0.00    +0.000 N 
ATOM      3  C   UNL     1      46.576   7.190  11.978  0.00  0.00    +0.000 C 
ATOM      4  O   UNL     1      46.330   8.397  11.894  0.00  0.00    +0.000 OA
BRANCH   2  21
ATOM     21  C   UNL     1      45.679   4.768  11.568  0.00  0.00    +0.000 C 
ATOM     22  C   UNL     1      45.028   4.386  10.208  0.00  0.00    +0.000 C 
ATOM     23  C   UNL     1      43.496   4.386  10.298  0.00  0.00    +0.000 C 
ATOM     24  N   UNL     1      42.991   3.497  11.346  0.00  0.00    +0.000 NA
ATOM     25  C   UNL     1      43.603   3.794  12.639  0.00  0.00    +0.000 C 
ATOM     26  C   UNL     1      45.122   3.721  12.553  0.00  0.00    +0.000 C 
ATOM     29  H   UNL     1      43.190   2.529  11.093  0.00  0.00    +0.000 HD
ENDBRANCH   2  21
ENDBRANCH   5   3
ENDBRANCH   6   5
TORSDOF 5
ENDMDL
MODEL 9
REMARK VINA RESULT:    -5.235      2.239      4.085
REMARK INTER + INTRA:          -7.204
REMARK INTER:                  -7.429
REMARK INTRA:                   0.225
REMARK UNBOUND:                -0.439
REMARK  Name = 
REMARK  6 active torsions:
REMARK  status: ('A' for Active; 'I' for Inactive)
REMARK    1  A    between atoms: C_1  and  N_2
REMARK    2  A    between atoms: N_2  and  C_21
REMARK    3  A    between atoms: C_3  and  C_5
REMARK    4  A    between atoms: C_5  and  N_6
REMARK    5  A    between atoms: C_7  and  C_8
REMARK    6  A    between atoms: C_14  and  C_15
REMARK                            x       y       z     vdW  Elec       q    Type
REMARK                         _______ _______ _______ _____ _____    ______ ____
ROOT
ATOM      6  N   UNL     1      48.079   5.832  15.350  0.00  0.00    +0.000 N 
ATOM      7  C   UNL     1      47.649   4.665  15.957  0.00  0.00    +0.000 A 
ATOM     11  C   UNL     1      46.949   3.933  15.021  0.00  0.00    +0.000 A 
ATOM     12  C   UNL     1      46.792   4.735  13.880  0.00  0.00    +0.000 A 
ATOM     13  C   UNL     1      46.080   4.579  12.688  0.00  0.00    +0.000 A 
ATOM     14  C   UNL     1      46.086   5.637  11.788  0.00  0.00    +0.000 A 
ATOM     18  C   UNL     1      46.817   6.780  12.117  0.00  0.00    +0.000 A 
ATOM     19  N   UNL     1      47.543   6.975  13.257  0.00  0.00    +0.000 NA
ATOM     20  C   UNL     1      47.489   5.918  14.100  0.00  0.00    +0.000 A 
ENDROOT
BRANCH  14  15
ATOM     15  C   UNL     1      45.332   5.593  10.515  0.00  0.00    +0.000 C 
ATOM     16  N   UNL     1      43.967   5.693  10.561  0.00  0.00    +0.000 N 
ATOM     17  O   UNL     1      45.905   5.477   9.442  0.00  0.00    +0.000 OA
ATOM     27  H   UNL     1      43.411   5.801  11.398  0.00  0.00    +0.000 HD
ATOM     28  H   UNL     1      43.471   5.662   9.680  0.00  0.00    +0.000 HD
ENDBRANCH  14  15
BRANCH   7   8
ATOM      8  C   UNL     1      47.832   4.210  17.404  0.00  0.00    +0.000 C 
ATOM      9  C   UNL     1      48.872   3.150  17.720  0.00  0.00    +0.000 C 
ATOM     10  C   UNL     1      47.433   2.770  17.712  0.00  0.00    +0.000 C 
ENDBRANCH   7   8
BRANCH   6   5
ATOM      5  C   UNL     1      48.861   6.919  15.934  0.00  0.00    +0.000 C 
BRANCH   5   3
ATOM      1  C   UNL     1      51.206   6.377  18.900  0.00  0.00    +0.000 C 
ATOM      2  N   UNL     1      49.995   6.801  18.183  0.00  0.00    +0.000 N 
ATOM      3  C   UNL     1      50.036   6.508  16.795  0.00  0.00    +0.000 C 
ATOM      4  O   UNL     1      50.985   5.887  16.306  0.00  0.00    +0.000 OA
BRANCH   2  21
ATOM     21  C   UNL     1      49.182   7.888  18.845  0.00  0.00    +0.000 C 
ATOM     22  C   UNL     1      49.751   8.346  20.218  0.00  0.00    +0.000 C 
ATOM     23  C   UNL     1      49.527   7.283  21.303  0.00  0.00    +0.000 C 
ATOM     24  N   UNL     1      48.117   6.921  21.456  0.00  0.00    +0.000 NA
ATOM     25  C   UNL     1      47.528   6.517  20.181  0.00  0.00    +0.000 C 
ATOM     26  C   UNL     1      47.693   7.610  19.134  0.00  0.00    +0.000 C 
ATOM     29  H   UNL     1      47.601   7.717  21.829  0.00  0.00    +0.000 HD
ENDBRANCH   2  21
ENDBRANCH   5   3
ENDBRANCH   6   5
TORSDOF 5
ENDMDL
