MODEL 1
REMARK VINA RESULT:    -7.563      0.000      0.000
REMARK INTER + INTRA:          -9.081
REMARK INTER:                  -9.332
REMARK INTRA:                   0.251
REMARK UNBOUND:                 0.251
REMARK  Name = 
REMARK  5 active torsions:
REMARK  status: ('A' for Active; 'I' for Inactive)
REMARK    1  A    between atoms: C_1  and  N_2
REMARK    2  A    between atoms: C_6  and  C_8
REMARK    3  A    between atoms: C_8  and  N_9
REMARK    4  A    between atoms: C_10  and  C_11
REMARK    5  A    between atoms: C_17  and  C_18
REMARK                            x       y       z     vdW  Elec       q    Type
REMARK                         _______ _______ _______ _____ _____    ______ ____
ROOT
ATOM      9  N   UNL     1      44.287   4.520  10.115  0.00  0.00    +0.000 N 
ATOM     10  C   UNL     1      43.856   3.507  10.949  0.00  0.00    +0.000 A 
ATOM     14  C   UNL     1      44.289   2.306  10.423  0.00  0.00    +0.000 A 
ATOM     15  C   UNL     1      45.098   2.590   9.300  0.00  0.00    +0.000 A 
ATOM     16  C   UNL     1      45.890   1.813   8.435  0.00  0.00    +0.000 A 
ATOM     17  C   UNL     1      46.612   2.476   7.441  0.00  0.00    +0.000 A 
ATOM     21  C   UNL     1      46.479   3.862   7.349  0.00  0.00    +0.000 A 
ATOM     22  N   UNL     1      45.726   4.660   8.158  0.00  0.00    +0.000 NA
ATOM     23  C   UNL     1      45.067   3.970   9.114  0.00  0.00    +0.000 A 
ENDROOT
BRANCH  17  18
ATOM     18  C   UNL     1      47.529   1.791   6.502  0.00  0.00    +0.000 C 
ATOM     19  N   UNL     1      48.657   2.443   6.079  0.00  0.00    +0.000 N 
ATOM     20  O   UNL     1      47.288   0.664   6.082  0.00  0.00    +0.000 OA
ATOM     26  H   UNL     1      48.932   3.371   6.359  0.00  0.00    +0.000 HD
ATOM     27  H   UNL     1      49.252   1.950   5.425  0.00  0.00    +0.000 HD
ENDBRANCH  17  18
BRANCH  10  11
ATOM     11  C   UNL     1      43.060   3.658  12.241  0.00  0.00    +0.000 C 
ATOM     12  C   UNL     1      42.762   5.056  12.755  0.00  0.00    +0.000 C 
ATOM     13  C   UNL     1      43.769   4.214  13.459  0.00  0.00    +0.000 C 
ENDBRANCH  10  11
BRANCH   9   8
ATOM      8  C   UNL     1      44.183   5.960  10.353  0.00  0.00    +0.000 C 
BRANCH   8   6
ATOM      1  C   UNL     1      45.411  12.266  11.846  0.00  0.00    +0.000 C 
ATOM      2  N   UNL     1      45.104  10.844  11.999  0.00  0.00    +0.000 NA
ATOM      3  C   UNL     1      44.437  10.314  10.796  0.00  0.00    +0.000 C 
ATOM      4  C   UNL     1      44.094   8.814  10.932  0.00  0.00    +0.000 C 
ATOM      5  N   UNL     1      45.252   7.995  11.316  0.00  0.00    +0.000 N 
ATOM      6  C   UNL     1      45.349   6.608  11.091  0.00  0.00    +0.000 C 
ATOM      7  O   UNL     1      46.323   5.967  11.486  0.00  0.00    +0.000 OA
ATOM     24  C   UNL     1      46.059   8.561  12.406  0.00  0.00    +0.000 C 
ATOM     25  C   UNL     1      46.337  10.069  12.251  0.00  0.00    +0.000 C 
ENDBRANCH   8   6
ENDBRANCH   9   8
TORSDOF 4
ENDMDL
MODEL 2
REMARK VINA RESULT:    -7.059      5.700      7.847
REMARK INTER + INTRA:          -8.458
REMARK INTER:                  -7.651
REMARK INTRA:                  -0.807
REMARK UNBOUND:                 0.251
REMARK  Name = 
REMARK  5 active torsions:
REMARK  status: ('A' for Active; 'I' for Inactive)
REMARK    1  A    between atoms: C_1  and  N_2
REMARK    2  A    between atoms: C_6  and  C_8
REMARK    3  A    between atoms: C_8  and  N_9
REMARK    4  A    between atoms: C_10  and  C_11
REMARK    5  A    between atoms: C_17  and  C_18
REMARK                            x       y       z     vdW  Elec       q    Type
REMARK                         _______ _______ _______ _____ _____    ______ ____
ROOT
ATOM      9  N   UNL     1      47.615   5.491  14.606  0.00  0.00    +0.000 N 
ATOM     10  C   UNL     1      48.354   6.569  14.160  0.00  0.00    +0.000 A 
ATOM     14  C   UNL     1      47.905   6.903  12.898  0.00  0.00    +0.000 A 
ATOM     15  C   UNL     1      46.790   6.087  12.603  0.00  0.00    +0.000 A 
ATOM     16  C   UNL     1      45.863   6.029  11.546  0.00  0.00    +0.000 A 
ATOM     17  C   UNL     1      44.834   5.091  11.633  0.00  0.00    +0.000 A 
ATOM     21  C   UNL     1      44.806   4.250  12.747  0.00  0.00    +0.000 A 
ATOM     22  N   UNL     1      45.678   4.262  13.794  0.00  0.00    +0.000 NA
ATOM     23  C   UNL     1      46.639   5.202  13.668  0.00  0.00    +0.000 A 
ENDROOT
BRANCH  17  18
ATOM     18  C   UNL     1      43.758   4.962  10.624  0.00  0.00    +0.000 C 
ATOM     19  N   UNL     1      44.091   4.667   9.329  0.00  0.00    +0.000 N 
ATOM     20  O   UNL     1      42.580   5.133  10.922  0.00  0.00    +0.000 OA
ATOM     26  H   UNL     1      45.029   4.521   8.988  0.00  0.00    +0.000 HD
ATOM     27  H   UNL     1      43.331   4.603   8.664  0.00  0.00    +0.000 HD
ENDBRANCH  17  18
BRANCH  10  11
ATOM     11  C   UNL     1      49.463   7.296  14.913  0.00  0.00    +0.000 C 
ATOM     12  C   UNL     1      49.080   8.364  15.923  0.00  0.00    +0.000 C 
ATOM     13  C   UNL     1      49.683   8.766  14.621  0.00  0.00    +0.000 C 
ENDBRANCH  10  11
BRANCH   9   8
ATOM      8  C   UNL     1      47.647   4.894  15.942  0.00  0.00    +0.000 C 
BRANCH   8   6
ATOM      1  C   UNL     1      53.451   3.799  18.878  0.00  0.00    +0.000 C 
ATOM      2  N   UNL     1      52.017   3.754  18.589  0.00  0.00    +0.000 NA
ATOM      3  C   UNL     1      51.584   4.965  17.870  0.00  0.00    +0.000 C 
ATOM      4  C   UNL     1      50.071   4.948  17.558  0.00  0.00    +0.000 C 
ATOM      5  N   UNL     1      49.643   3.723  16.867  0.00  0.00    +0.000 N 
ATOM      6  C   UNL     1      48.471   3.621  16.092  0.00  0.00    +0.000 C 
ATOM      7  O   UNL     1      48.138   2.551  15.583  0.00  0.00    +0.000 OA
ATOM     24  C   UNL     1      50.185   2.484  17.440  0.00  0.00    +0.000 C 
ATOM     25  C   UNL     1      51.687   2.564  17.778  0.00  0.00    +0.000 C 
ENDBRANCH   8   6
ENDBRANCH   9   8
TORSDOF 4
ENDMDL
MODEL 3
REMARK VINA RESULT:    -7.005      4.855      7.399
REMARK INTER + INTRA:          -8.392
REMARK INTER:                  -7.530
REMARK INTRA:                  -0.862
REMARK UNBOUND:                 0.251
REMARK  Name = 
REMARK  5 active torsions:
REMARK  status: ('A' for Active; 'I' for Inactive)
REMARK    1  A    between atoms: C_1  and  N_2
REMARK    2  A    between atoms: C_6  and  C_8
REMARK    3  A    between atoms: C_8  and  N_9
REMARK    4  A    between atoms: C_10  and  C_11
REMARK    5  A    between atoms: C_17  and  C_18
REMARK                            x       y       z     vdW  Elec       q    Type
REMARK                         _______ _______ _______ _____ _____    ______ ____
ROOT
ATOM      9  N   UNL     1      48.647   7.156  13.377  0.00  0.00    +0.000 N 
ATOM     10  C   UNL     1      48.448   8.112  12.401  0.00  0.00    +0.000 A 
ATOM     14  C   UNL     1      47.468   7.652  11.545  0.00  0.00    +0.000 A 
ATOM     15  C   UNL     1      46.972   6.436  12.065  0.00  0.00    +0.000 A 
ATOM     16  C   UNL     1      45.923   5.568  11.711  0.00  0.00    +0.000 A 
ATOM     17  C   UNL     1      45.696   4.455  12.522  0.00  0.00    +0.000 A 
ATOM     21  C   UNL     1      46.542   4.257  13.615  0.00  0.00    +0.000 A 
ATOM     22  N   UNL     1      47.572   5.063  13.998  0.00  0.00    +0.000 NA
ATOM     23  C   UNL     1      47.732   6.134  13.192  0.00  0.00    +0.000 A 
ENDROOT
BRANCH  17  18
ATOM     18  C   UNL     1      44.591   3.494  12.302  0.00  0.00    +0.000 C 
ATOM     19  N   UNL     1      44.585   2.737  11.160  0.00  0.00    +0.000 N 
ATOM     20  O   UNL     1      43.676   3.377  13.111  0.00  0.00    +0.000 OA
ATOM     26  H   UNL     1      45.284   2.772  10.435  0.00  0.00    +0.000 HD
ATOM     27  H   UNL     1      43.805   2.103  11.036  0.00  0.00    +0.000 HD
ENDBRANCH  17  18
BRANCH  10  11
ATOM     11  C   UNL     1      49.156   9.457  12.276  0.00  0.00    +0.000 C 
ATOM     12  C   UNL     1      48.511  10.682  12.903  0.00  0.00    +0.000 C 
ATOM     13  C   UNL     1      48.511  10.529  11.421  0.00  0.00    +0.000 C 
ENDBRANCH  10  11
BRANCH   9   8
ATOM      8  C   UNL     1      49.485   7.278  14.570  0.00  0.00    +0.000 C 
BRANCH   8   6
ATOM      1  C   UNL     1      48.730   4.592  20.548  0.00  0.00    +0.000 C 
ATOM      2  N   UNL     1      49.169   5.494  19.482  0.00  0.00    +0.000 NA
ATOM      3  C   UNL     1      49.184   4.806  18.179  0.00  0.00    +0.000 C 
ATOM      4  C   UNL     1      49.652   5.733  17.035  0.00  0.00    +0.000 C 
ATOM      5  N   UNL     1      48.899   6.994  16.976  0.00  0.00    +0.000 N 
ATOM      6  C   UNL     1      48.798   7.801  15.827  0.00  0.00    +0.000 C 
ATOM      7  O   UNL     1      48.197   8.875  15.856  0.00  0.00    +0.000 OA
ATOM     24  C   UNL     1      48.704   7.644  18.279  0.00  0.00    +0.000 C 
ATOM     25  C   UNL     1      48.282   6.672  19.399  0.00  0.00    +0.000 C 
ENDBRANCH   8   6
ENDBRANCH   9   8
TORSDOF 4
ENDMDL
MODEL 4
REMARK VINA RESULT:    -6.413      4.047      6.445
REMARK INTER + INTRA:          -7.662
REMARK INTER:                  -6.848
REMARK INTRA:                  -0.814
REMARK UNBOUND:                 0.251
REMARK  Name = 
REMARK  5 active torsions:
REMARK  status: ('A' for Active; 'I' for Inactive)
REMARK    1  A    between atoms: C_1  and  N_2
REMARK    2  A    between atoms: C_6  and  C_8
REMARK    3  A    between atoms: C_8  and  N_9
REMARK    4  A    between atoms: C_10  and  C_11
REMARK    5  A    between atoms: C_17  and  C_18
REMARK                            x       y       z     vdW  Elec       q    Type
REMARK                         _______ _______ _______ _____ _____    ______ ____
ROOT
ATOM      9  N   UNL     1      46.974   5.855  12.661  0.00  0.00    +0.000 N 
ATOM     10  C   UNL     1      45.946   4.948  12.489  0.00  0.00    +0.000 A 
ATOM     14  C   UNL     1      45.890   4.148  13.612  0.00  0.00    +0.000 A 
ATOM     15  C   UNL     1      46.830   4.640  14.545  0.00  0.00    +0.000 A 
ATOM     16  C   UNL     1      47.155   4.324  15.877  0.00  0.00    +0.000 A 
ATOM     17  C   UNL     1      48.135   5.091  16.508  0.00  0.00    +0.000 A 
ATOM     21  C   UNL     1      48.752   6.102  15.770  0.00  0.00    +0.000 A 
ATOM     22  N   UNL     1      48.478   6.447  14.480  0.00  0.00    +0.000 NA
ATOM     23  C   UNL     1      47.507   5.688  13.926  0.00  0.00    +0.000 A 
ENDROOT
BRANCH  17  18
ATOM     18  C   UNL     1      48.533   4.907  17.922  0.00  0.00    +0.000 C 
ATOM     19  N   UNL     1      47.684   4.247  18.772  0.00  0.00    +0.000 N 
ATOM     20  O   UNL     1      49.593   5.350  18.350  0.00  0.00    +0.000 OA
ATOM     26  H   UNL     1      46.790   3.859  18.516  0.00  0.00    +0.000 HD
ATOM     27  H   UNL     1      47.982   4.154  19.735  0.00  0.00    +0.000 HD
ENDBRANCH  17  18
BRANCH  10  11
ATOM     11  C   UNL     1      45.009   4.840  11.291  0.00  0.00    +0.000 C 
ATOM     12  C   UNL     1      43.778   5.729  11.245  0.00  0.00    +0.000 C 
ATOM     13  C   UNL     1      43.622   4.273  11.516  0.00  0.00    +0.000 C 
ENDBRANCH  10  11
BRANCH   9   8
ATOM      8  C   UNL     1      47.306   6.984  11.791  0.00  0.00    +0.000 C 
BRANCH   8   6
ATOM      1  C   UNL     1      50.203  12.888  12.305  0.00  0.00    +0.000 C 
ATOM      2  N   UNL     1      49.327  11.813  11.836  0.00  0.00    +0.000 NA
ATOM      3  C   UNL     1      49.917  10.491  12.112  0.00  0.00    +0.000 C 
ATOM      4  C   UNL     1      49.017   9.336  11.620  0.00  0.00    +0.000 C 
ATOM      5  N   UNL     1      47.639   9.431  12.121  0.00  0.00    +0.000 N 
ATOM      6  C   UNL     1      46.751   8.342  12.207  0.00  0.00    +0.000 C 
ATOM      7  O   UNL     1      45.590   8.496  12.585  0.00  0.00    +0.000 OA
ATOM     24  C   UNL     1      47.052  10.775  12.029  0.00  0.00    +0.000 C 
ATOM     25  C   UNL     1      48.003  11.899  12.487  0.00  0.00    +0.000 C 
ENDBRANCH   8   6
ENDBRANCH   9   8
TORSDOF 4
ENDMDL
MODEL 5
REMARK VINA RESULT:    -6.406      5.050      7.436
REMARK INTER + INTRA:          -7.653
REMARK INTER:                  -6.910
REMARK INTRA:                  -0.744
REMARK UNBOUND:                 0.251
REMARK  Name = 
REMARK  5 active torsions:
REMARK  status: ('A' for Active; 'I' for Inactive)
REMARK    1  A    between atoms: C_1  and  N_2
REMARK    2  A    between atoms: C_6  and  C_8
REMARK    3  A    between atoms: C_8  and  N_9
REMARK    4  A    between atoms: C_10  and  C_11
REMARK    5  A    between atoms: C_17  and  C_18
REMARK                            x       y       z     vdW  Elec       q    Type
REMARK                         _______ _______ _______ _____ _____    ______ ____
ROOT
ATOM      9  N   UNL     1      48.014   7.305  13.756  0.00  0.00    +0.000 N 
ATOM     10  C   UNL     1      48.193   8.116  12.653  0.00  0.00    +0.000 A 
ATOM     14  C   UNL     1      47.590   7.507  11.571  0.00  0.00    +0.000 A 
ATOM     15  C   UNL     1      46.928   6.349  12.037  0.00  0.00    +0.000 A 
ATOM     16  C   UNL     1      46.073   5.398  11.450  0.00  0.00    +0.000 A 
ATOM     17  C   UNL     1      45.557   4.392  12.268  0.00  0.00    +0.000 A 
ATOM     21  C   UNL     1      45.945   4.375  13.609  0.00  0.00    +0.000 A 
ATOM     22  N   UNL     1      46.770   5.267  14.225  0.00  0.00    +0.000 NA
ATOM     23  C   UNL     1      47.222   6.230  13.393  0.00  0.00    +0.000 A 
ENDROOT
BRANCH  17  18
ATOM     18  C   UNL     1      44.602   3.364  11.796  0.00  0.00    +0.000 C 
ATOM     19  N   UNL     1      43.819   2.713  12.713  0.00  0.00    +0.000 N 
ATOM     20  O   UNL     1      44.512   3.073  10.608  0.00  0.00    +0.000 OA
ATOM     26  H   UNL     1      43.830   2.875  13.708  0.00  0.00    +0.000 HD
ATOM     27  H   UNL     1      43.189   2.005  12.356  0.00  0.00    +0.000 HD
ENDBRANCH  17  18
BRANCH  10  11
ATOM     11  C   UNL     1      48.909   9.463  12.610  0.00  0.00    +0.000 C 
ATOM     12  C   UNL     1      48.084  10.731  12.748  0.00  0.00    +0.000 C 
ATOM     13  C   UNL     1      48.658  10.369  11.422  0.00  0.00    +0.000 C 
ENDBRANCH  10  11
BRANCH   9   8
ATOM      8  C   UNL     1      48.360   7.617  15.143  0.00  0.00    +0.000 C 
BRANCH   8   6
ATOM      1  C   UNL     1      49.486   4.739  20.970  0.00  0.00    +0.000 C 
ATOM      2  N   UNL     1      49.290   4.918  19.531  0.00  0.00    +0.000 NA
ATOM      3  C   UNL     1      48.449   6.096  19.254  0.00  0.00    +0.000 C 
ATOM      4  C   UNL     1      48.219   6.305  17.740  0.00  0.00    +0.000 C 
ATOM      5  N   UNL     1      49.470   6.337  16.970  0.00  0.00    +0.000 N 
ATOM      6  C   UNL     1      49.602   6.931  15.700  0.00  0.00    +0.000 C 
ATOM      7  O   UNL     1      50.664   6.877  15.081  0.00  0.00    +0.000 OA
ATOM     24  C   UNL     1      50.427   5.280  17.325  0.00  0.00    +0.000 C 
ATOM     25  C   UNL     1      50.589   5.077  18.845  0.00  0.00    +0.000 C 
ENDBRANCH   8   6
ENDBRANCH   9   8
TORSDOF 4
ENDMDL
MODEL 6
REMARK VINA RESULT:    -6.342      4.958      7.207
REMARK INTER + INTRA:          -7.575
REMARK INTER:                  -6.820
REMARK INTRA:                  -0.755
REMARK UNBOUND:                 0.251
REMARK  Name = 
REMARK  5 active torsions:
REMARK  status: ('A' for Active; 'I' for Inactive)
REMARK    1  A    between atoms: C_1  and  N_2
REMARK    2  A    between atoms: C_6  and  C_8
REMARK    3  A    between atoms: C_8  and  N_9
REMARK    4  A    between atoms: C_10  and  C_11
REMARK    5  A    between atoms: C_17  and  C_18
REMARK                            x       y       z     vdW  Elec       q    Type
REMARK                         _______ _______ _______ _____ _____    ______ ____
ROOT
ATOM      9  N   UNL     1      47.890   7.007  13.563  0.00  0.00    +0.000 N 
ATOM     10  C   UNL     1      48.538   7.742  12.591  0.00  0.00    +0.000 A 
ATOM     14  C   UNL     1      47.994   7.406  11.367  0.00  0.00    +0.000 A 
ATOM     15  C   UNL     1      46.912   6.527  11.599  0.00  0.00    +0.000 A 
ATOM     16  C   UNL     1      45.927   5.941  10.783  0.00  0.00    +0.000 A 
ATOM     17  C   UNL     1      44.960   5.145  11.398  0.00  0.00    +0.000 A 
ATOM     21  C   UNL     1      45.048   4.958  12.779  0.00  0.00    +0.000 A 
ATOM     22  N   UNL     1      45.981   5.499  13.613  0.00  0.00    +0.000 NA
ATOM     23  C   UNL     1      46.877   6.276  12.968  0.00  0.00    +0.000 A 
ENDROOT
BRANCH  17  18
ATOM     18  C   UNL     1      43.834   4.517  10.671  0.00  0.00    +0.000 C 
ATOM     19  N   UNL     1      43.821   4.557   9.302  0.00  0.00    +0.000 N 
ATOM     20  O   UNL     1      42.907   3.982  11.270  0.00  0.00    +0.000 OA
ATOM     26  H   UNL     1      44.529   4.983   8.725  0.00  0.00    +0.000 HD
ATOM     27  H   UNL     1      43.027   4.131   8.839  0.00  0.00    +0.000 HD
ENDBRANCH  17  18
BRANCH  10  11
ATOM     11  C   UNL     1      49.648   8.767  12.801  0.00  0.00    +0.000 C 
ATOM     12  C   UNL     1      49.265  10.199  13.135  0.00  0.00    +0.000 C 
ATOM     13  C   UNL     1      49.799   9.878  11.782  0.00  0.00    +0.000 C 
ENDBRANCH  10  11
BRANCH   9   8
ATOM      8  C   UNL     1      48.037   7.142  15.013  0.00  0.00    +0.000 C 
BRANCH   8   6
ATOM      1  C   UNL     1      54.234   7.032  17.270  0.00  0.00    +0.000 C 
ATOM      2  N   UNL     1      52.771   7.023  17.245  0.00  0.00    +0.000 NA
ATOM      3  C   UNL     1      52.258   7.718  16.051  0.00  0.00    +0.000 C 
ATOM      4  C   UNL     1      50.714   7.731  16.003  0.00  0.00    +0.000 C 
ATOM      5  N   UNL     1      50.125   6.392  16.148  0.00  0.00    +0.000 N 
ATOM      6  C   UNL     1      48.830   6.046  15.716  0.00  0.00    +0.000 C 
ATOM      7  O   UNL     1      48.373   4.921  15.916  0.00  0.00    +0.000 OA
ATOM     24  C   UNL     1      50.718   5.583  17.221  0.00  0.00    +0.000 C 
ATOM     25  C   UNL     1      52.258   5.638  17.258  0.00  0.00    +0.000 C 
ENDBRANCH   8   6
ENDBRANCH   9   8
TORSDOF 4
ENDMDL
MODEL 7
REMARK VINA RESULT:    -5.902      3.984      6.814
REMARK INTER + INTRA:          -7.032
REMARK INTER:                  -6.502
REMARK INTRA:                  -0.530
REMARK UNBOUND:                 0.251
REMARK  Name = 
REMARK  5 active torsions:
REMARK  status: ('A' for Active; 'I' for Inactive)
REMARK    1  A    between atoms: C_1  and  N_2
REMARK    2  A    between atoms: C_6  and  C_8
REMARK    3  A    between atoms: C_8  and  N_9
REMARK    4  A    between atoms: C_10  and  C_11
REMARK    5  A    between atoms: C_17  and  C_18
REMARK                            x       y       z     vdW  Elec       q    Type
REMARK                         _______ _______ _______ _____ _____    ______ ____
ROOT
ATOM      9  N   UNL     1      46.597   9.042  12.430  0.00  0.00    +0.000 N 
ATOM     10  C   UNL     1      45.568   9.711  11.795  0.00  0.00    +0.000 A 
ATOM     14  C   UNL     1      44.611   8.782  11.439  0.00  0.00    +0.000 A 
ATOM     15  C   UNL     1      45.004   7.530  11.962  0.00  0.00    +0.000 A 
ATOM     16  C   UNL     1      44.407   6.257  12.023  0.00  0.00    +0.000 A 
ATOM     17  C   UNL     1      45.099   5.245  12.690  0.00  0.00    +0.000 A 
ATOM     21  C   UNL     1      46.351   5.551  13.228  0.00  0.00    +0.000 A 
ATOM     22  N   UNL     1      46.973   6.763  13.194  0.00  0.00    +0.000 NA
ATOM     23  C   UNL     1      46.250   7.709  12.556  0.00  0.00    +0.000 A 
ENDROOT
BRANCH  17  18
ATOM     18  C   UNL     1      44.564   3.878  12.882  0.00  0.00    +0.000 C 
ATOM     19  N   UNL     1      45.343   2.804  12.539  0.00  0.00    +0.000 N 
ATOM     20  O   UNL     1      43.435   3.690  13.321  0.00  0.00    +0.000 OA
ATOM     26  H   UNL     1      46.276   2.859  12.161  0.00  0.00    +0.000 HD
ATOM     27  H   UNL     1      44.938   1.885  12.669  0.00  0.00    +0.000 HD
ENDBRANCH  17  18
BRANCH  10  11
ATOM     11  C   UNL     1      45.469  11.211  11.537  0.00  0.00    +0.000 C 
ATOM     12  C   UNL     1      44.819  11.687  10.250  0.00  0.00    +0.000 C 
ATOM     13  C   UNL     1      46.295  11.799  10.412  0.00  0.00    +0.000 C 
ENDBRANCH  10  11
BRANCH   9   8
ATOM      8  C   UNL     1      47.751   9.640  13.103  0.00  0.00    +0.000 C 
BRANCH   8   6
ATOM      1  C   UNL     1      53.843   8.019  15.045  0.00  0.00    +0.000 C 
ATOM      2  N   UNL     1      52.555   7.976  14.350  0.00  0.00    +0.000 NA
ATOM      3  C   UNL     1      51.507   8.651  15.136  0.00  0.00    +0.000 C 
ATOM      4  C   UNL     1      50.134   8.615  14.430  0.00  0.00    +0.000 C 
ATOM      5  N   UNL     1      50.187   9.117  13.050  0.00  0.00    +0.000 N 
ATOM      6  C   UNL     1      49.071   9.602  12.341  0.00  0.00    +0.000 C 
ATOM      7  O   UNL     1      49.170   9.958  11.167  0.00  0.00    +0.000 OA
ATOM     24  C   UNL     1      51.318   8.607  12.262  0.00  0.00    +0.000 C 
ATOM     25  C   UNL     1      52.658   8.619  13.024  0.00  0.00    +0.000 C 
ENDBRANCH   8   6
ENDBRANCH   9   8
TORSDOF 4
ENDMDL
MODEL 8
REMARK VINA RESULT:    -5.889      4.576      7.255
REMARK INTER + INTRA:          -7.016
REMARK INTER:                  -7.031
REMARK INTRA:                   0.015
REMARK UNBOUND:                 0.251
REMARK  Name = 
REMARK  5 active torsions:
REMARK  status: ('A' for Active; 'I' for Inactive)
REMARK    1  A    between atoms: C_1  and  N_2
REMARK    2  A    between atoms: C_6  and  C_8
REMARK    3  A    between atoms: C_8  and  N_9
REMARK    4  A    between atoms: C_10  and  C_11
REMARK    5  A    between atoms: C_17  and  C_18
REMARK                            x       y       z     vdW  Elec       q    Type
REMARK                         _______ _______ _______ _____ _____    ______ ____
ROOT
ATOM      9  N   UNL     1      48.866   7.402  13.716  0.00  0.00    +0.000 N 
ATOM     10  C   UNL     1      48.545   8.519  12.970  0.00  0.00    +0.000 A 
ATOM     14  C   UNL     1      47.373   8.256  12.288  0.00  0.00    +0.000 A 
ATOM     15  C   UNL     1      46.901   6.993  12.707  0.00  0.00    +0.000 A 
ATOM     16  C   UNL     1      45.734   6.246  12.461  0.00  0.00    +0.000 A 
ATOM     17  C   UNL     1      45.593   5.022  13.117  0.00  0.00    +0.000 A 
ATOM     21  C   UNL     1      46.630   4.603  13.952  0.00  0.00    +0.000 A 
ATOM     22  N   UNL     1      47.779   5.284  14.222  0.00  0.00    +0.000 NA
ATOM     23  C   UNL     1      47.853   6.469  13.578  0.00  0.00    +0.000 A 
ENDROOT
BRANCH  17  18
ATOM     18  C   UNL     1      44.393   4.163  12.997  0.00  0.00    +0.000 C 
ATOM     19  N   UNL     1      44.546   2.855  12.622  0.00  0.00    +0.000 N 
ATOM     20  O   UNL     1      43.268   4.605  13.207  0.00  0.00    +0.000 OA
ATOM     26  H   UNL     1      45.425   2.406  12.418  0.00  0.00    +0.000 HD
ATOM     27  H   UNL     1      43.702   2.302  12.535  0.00  0.00    +0.000 HD
ENDBRANCH  17  18
BRANCH  10  11
ATOM     11  C   UNL     1      49.317   9.833  12.905  0.00  0.00    +0.000 C 
ATOM     12  C   UNL     1      48.886  10.977  13.806  0.00  0.00    +0.000 C 
ATOM     13  C   UNL     1      48.612  11.050  12.344  0.00  0.00    +0.000 C 
ENDBRANCH  10  11
BRANCH   9   8
ATOM      8  C   UNL     1      49.942   7.280  14.700  0.00  0.00    +0.000 C 
BRANCH   8   6
ATOM      1  C   UNL     1      47.037   9.766  20.076  0.00  0.00    +0.000 C 
ATOM      2  N   UNL     1      47.265   8.965  18.872  0.00  0.00    +0.000 NA
ATOM      3  C   UNL     1      48.194   9.645  17.952  0.00  0.00    +0.000 C 
ATOM      4  C   UNL     1      48.448   8.825  16.667  0.00  0.00    +0.000 C 
ATOM      5  N   UNL     1      48.870   7.445  16.944  0.00  0.00    +0.000 N 
ATOM      6  C   UNL     1      49.571   6.634  16.030  0.00  0.00    +0.000 C 
ATOM      7  O   UNL     1      49.848   5.466  16.300  0.00  0.00    +0.000 OA
ATOM     24  C   UNL     1      48.082   6.767  17.982  0.00  0.00    +0.000 C 
ATOM     25  C   UNL     1      47.815   7.640  19.225  0.00  0.00    +0.000 C 
ENDBRANCH   8   6
ENDBRANCH   9   8
TORSDOF 4
ENDMDL
MODEL 9
REMARK VINA RESULT:    -5.648      4.889      7.372
REMARK INTER + INTRA:          -6.718
REMARK INTER:                  -5.813
REMARK INTRA:                  -0.905
REMARK UNBOUND:                 0.251
REMARK  Name = 
REMARK  5 active torsions:
REMARK  status: ('A' for Active; 'I' for Inactive)
REMARK    1  A    between atoms: C_1  and  N_2
REMARK    2  A    between atoms: C_6  and  C_8
REMARK    3  A    between atoms: C_8  and  N_9
REMARK    4  A    between atoms: C_10  and  C_11
REMARK    5  A    between atoms: C_17  and  C_18
REMARK                            x       y       z     vdW  Elec       q    Type
REMARK                         _______ _______ _______ _____ _____    ______ ____
ROOT
ATOM      9  N   UNL     1      48.904   7.363  13.414  0.00  0.00    +0.000 N 
ATOM     10  C   UNL     1      48.632   8.468  12.631  0.00  0.00    +0.000 A 
ATOM     14  C   UNL     1      47.522   8.183  11.860  0.00  0.00    +0.000 A 
ATOM     15  C   UNL     1      47.032   6.918  12.255  0.00  0.00    +0.000 A 
ATOM     16  C   UNL     1      45.897   6.155  11.924  0.00  0.00    +0.000 A 
ATOM     17  C   UNL     1      45.717   4.937  12.581  0.00  0.00    +0.000 A 
ATOM     21  C   UNL     1      46.688   4.539  13.501  0.00  0.00    +0.000 A 
ATOM     22  N   UNL     1      47.804   5.238  13.855  0.00  0.00    +0.000 NA
ATOM     23  C   UNL     1      47.916   6.417  13.206  0.00  0.00    +0.000 A 
ENDROOT
BRANCH  17  18
ATOM     18  C   UNL     1      44.541   4.062  12.374  0.00  0.00    +0.000 C 
ATOM     19  N   UNL     1      44.687   2.707  12.510  0.00  0.00    +0.000 N 
ATOM     20  O   UNL     1      43.448   4.524  12.066  0.00  0.00    +0.000 OA
ATOM     26  H   UNL     1      45.546   2.235  12.749  0.00  0.00    +0.000 HD
ATOM     27  H   UNL     1      43.865   2.139  12.346  0.00  0.00    +0.000 HD
ENDBRANCH  17  18
BRANCH  10  11
ATOM     11  C   UNL     1      49.391   9.790  12.613  0.00  0.00    +0.000 C 
ATOM     12  C   UNL     1      48.852  10.952  13.431  0.00  0.00    +0.000 C 
ATOM     13  C   UNL     1      48.737  10.983  11.946  0.00  0.00    +0.000 C 
ENDBRANCH  10  11
BRANCH   9   8
ATOM      8  C   UNL     1      49.898   7.266  14.483  0.00  0.00    +0.000 C 
BRANCH   8   6
ATOM      1  C   UNL     1      53.101  11.758  18.098  0.00  0.00    +0.000 C 
ATOM      2  N   UNL     1      52.083  11.135  17.251  0.00  0.00    +0.000 NA
ATOM      3  C   UNL     1      52.663  10.050  16.439  0.00  0.00    +0.000 C 
ATOM      4  C   UNL     1      51.611   9.378  15.528  0.00  0.00    +0.000 C 
ATOM      5  N   UNL     1      50.420   8.930  16.262  0.00  0.00    +0.000 N 
ATOM      6  C   UNL     1      49.536   7.934  15.804  0.00  0.00    +0.000 C 
ATOM      7  O   UNL     1      48.524   7.642  16.441  0.00  0.00    +0.000 OA
ATOM     24  C   UNL     1      49.893   9.913  17.219  0.00  0.00    +0.000 C 
ATOM     25  C   UNL     1      50.983  10.591  18.073  0.00  0.00    +0.000 C 
ENDBRANCH   8   6
ENDBRANCH   9   8
TORSDOF 4
ENDMDL
