MODEL 1
REMARK VINA RESULT:    -6.818      0.000      0.000
REMARK INTER + INTRA:          -9.278
REMARK INTER:                  -8.413
REMARK INTRA:                  -0.865
REMARK UNBOUND:                -0.865
REMARK  Name = 
REMARK  4 active torsions:
REMARK  status: ('A' for Active; 'I' for Inactive)
REMARK    1  A    between atoms: C_2  and  C_4
REMARK    2  A    between atoms: C_11  and  C_12
REMARK    3  A    between atoms: N_15  and  C_16
REMARK    4  A    between atoms: C_16  and  C_17
REMARK                            x       y       z     vdW  Elec       q    Type
REMARK                         _______ _______ _______ _____ _____    ______ ____
ROOT
ATOM      4  C   UNL     1      45.462   5.051  11.581  0.00  0.00    +0.000 A 
ATOM      5  C   UNL     1      45.082   4.184  12.601  0.00  0.00    +0.000 A 
ATOM      6  N   UNL     1      45.632   4.117  13.844  0.00  0.00    +0.000 NA
ATOM      7  C   UNL     1      46.619   5.023  14.036  0.00  0.00    +0.000 A 
ATOM      8  C   UNL     1      47.079   5.945  13.098  0.00  0.00    +0.000 A 
ATOM      9  C   UNL     1      46.478   5.973  11.833  0.00  0.00    +0.000 A 
ATOM     10  C   UNL     1      48.129   6.668  13.705  0.00  0.00    +0.000 A 
ATOM     11  C   UNL     1      48.295   6.186  14.986  0.00  0.00    +0.000 A 
ATOM     15  N   UNL     1      47.362   5.188  15.191  0.00  0.00    +0.000 N 
ENDROOT
BRANCH   4   2
ATOM      1  N   UNL     1      45.514   5.306   9.162  0.00  0.00    +0.000 N 
ATOM      2  C   UNL     1      44.778   4.983  10.274  0.00  0.00    +0.000 C 
ATOM      3  O   UNL     1      43.611   4.626  10.177  0.00  0.00    +0.000 OA
ATOM     26  H   UNL     1      45.065   5.181   8.265  0.00  0.00    +0.000 HD
ATOM     27  H   UNL     1      46.520   5.397   9.174  0.00  0.00    +0.000 HD
ENDBRANCH   4   2
BRANCH  11  12
ATOM     12  C   UNL     1      49.322   6.708  15.984  0.00  0.00    +0.000 C 
ATOM     13  C   UNL     1      48.819   7.589  17.114  0.00  0.00    +0.000 C 
ATOM     14  C   UNL     1      49.625   8.195  16.021  0.00  0.00    +0.000 C 
ENDBRANCH  11  12
BRANCH  15  16
ATOM     16  C   UNL     1      47.288   4.286  16.338  0.00  0.00    +0.000 C 
BRANCH  16  17
ATOM     17  C   UNL     1      48.368   3.214  16.407  0.00  0.00    +0.000 C 
ATOM     18  O   UNL     1      48.421   2.267  15.624  0.00  0.00    +0.000 OA
ATOM     19  N   UNL     1      49.344   3.385  17.398  0.00  0.00    +0.000 N 
ATOM     20  C   UNL     1      50.484   2.470  17.441  0.00  0.00    +0.000 C 
ATOM     21  C   UNL     1      51.746   3.238  17.839  0.00  0.00    +0.000 C 
ATOM     22  N   UNL     1      51.567   3.966  19.079  0.00  0.00    +0.000 N 
ATOM     23  C   UNL     1      50.380   4.566  19.414  0.00  0.00    +0.000 C 
ATOM     24  O   UNL     1      50.328   5.329  20.377  0.00  0.00    +0.000 OA
ATOM     25  C   UNL     1      49.122   4.155  18.630  0.00  0.00    +0.000 C 
ATOM     28  H   UNL     1      52.375   4.313  19.583  0.00  0.00    +0.000 HD
ENDBRANCH  16  17
ENDBRANCH  15  16
TORSDOF 4
ENDMDL
MODEL 2
REMARK VINA RESULT:    -6.628      2.542      3.599
REMARK INTER + INTRA:          -9.043
REMARK INTER:                  -8.194
REMARK INTRA:                  -0.849
REMARK UNBOUND:                -0.865
REMARK  Name = 
REMARK  4 active torsions:
REMARK  status: ('A' for Active; 'I' for Inactive)
REMARK    1  A    between atoms: C_2  and  C_4
REMARK    2  A    between atoms: C_11  and  C_12
REMARK    3  A    between atoms: N_15  and  C_16
REMARK    4  A    between atoms: C_16  and  C_17
REMARK                            x       y       z     vdW  Elec       q    Type
REMARK                         _______ _______ _______ _____ _____    ______ ____
ROOT
ATOM      4  C   UNL     1      44.311   5.798  12.334  0.00  0.00    +0.000 A 
ATOM      5  C   UNL     1      45.122   5.040  13.175  0.00  0.00    +0.000 A 
ATOM      6  N   UNL     1      46.343   5.402  13.655  0.00  0.00    +0.000 NA
ATOM      7  C   UNL     1      46.725   6.636  13.250  0.00  0.00    +0.000 A 
ATOM      8  C   UNL     1      46.000   7.488  12.421  0.00  0.00    +0.000 A 
ATOM      9  C   UNL     1      44.748   7.067  11.954  0.00  0.00    +0.000 A 
ATOM     10  C   UNL     1      46.779   8.651  12.235  0.00  0.00    +0.000 A 
ATOM     11  C   UNL     1      47.953   8.496  12.941  0.00  0.00    +0.000 A 
ATOM     15  N   UNL     1      47.913   7.267  13.572  0.00  0.00    +0.000 N 
ENDROOT
BRANCH   4   2
ATOM      1  N   UNL     1      41.969   6.129  11.766  0.00  0.00    +0.000 N 
ATOM      2  C   UNL     1      43.017   5.251  11.881  0.00  0.00    +0.000 C 
ATOM      3  O   UNL     1      42.885   4.070  11.590  0.00  0.00    +0.000 OA
ATOM     26  H   UNL     1      41.109   5.766  11.379  0.00  0.00    +0.000 HD
ATOM     27  H   UNL     1      42.086   7.132  11.789  0.00  0.00    +0.000 HD
ENDBRANCH   4   2
BRANCH  11  12
ATOM     12  C   UNL     1      49.067   9.534  13.012  0.00  0.00    +0.000 C 
ATOM     13  C   UNL     1      48.890  10.689  13.983  0.00  0.00    +0.000 C 
ATOM     14  C   UNL     1      48.794  10.943  12.521  0.00  0.00    +0.000 C 
ENDBRANCH  11  12
BRANCH  15  16
ATOM     16  C   UNL     1      49.011   6.616  14.284  0.00  0.00    +0.000 C 
BRANCH  16  17
ATOM     17  C   UNL     1      49.210   7.051  15.730  0.00  0.00    +0.000 C 
ATOM     18  O   UNL     1      49.862   8.046  16.046  0.00  0.00    +0.000 OA
ATOM     19  N   UNL     1      48.568   6.273  16.702  0.00  0.00    +0.000 N 
ATOM     20  C   UNL     1      48.605   6.704  18.099  0.00  0.00    +0.000 C 
ATOM     21  C   UNL     1      47.266   6.391  18.771  0.00  0.00    +0.000 C 
ATOM     22  N   UNL     1      46.904   4.995  18.627  0.00  0.00    +0.000 N 
ATOM     23  C   UNL     1      47.176   4.279  17.490  0.00  0.00    +0.000 C 
ATOM     24  O   UNL     1      46.685   3.162  17.334  0.00  0.00    +0.000 OA
ATOM     25  C   UNL     1      48.197   4.866  16.500  0.00  0.00    +0.000 C 
ATOM     28  H   UNL     1      46.182   4.597  19.217  0.00  0.00    +0.000 HD
ENDBRANCH  16  17
ENDBRANCH  15  16
TORSDOF 4
ENDMDL
MODEL 3
REMARK VINA RESULT:    -6.426      2.840      4.649
REMARK INTER + INTRA:          -8.794
REMARK INTER:                  -8.010
REMARK INTRA:                  -0.784
REMARK UNBOUND:                -0.865
REMARK  Name = 
REMARK  4 active torsions:
REMARK  status: ('A' for Active; 'I' for Inactive)
REMARK    1  A    between atoms: C_2  and  C_4
REMARK    2  A    between atoms: C_11  and  C_12
REMARK    3  A    between atoms: N_15  and  C_16
REMARK    4  A    between atoms: C_16  and  C_17
REMARK                            x       y       z     vdW  Elec       q    Type
REMARK                         _______ _______ _______ _____ _____    ______ ____
ROOT
ATOM      4  C   UNL     1      49.876   8.205  12.289  0.00  0.00    +0.000 A 
ATOM      5  C   UNL     1      49.920   7.618  13.551  0.00  0.00    +0.000 A 
ATOM      6  N   UNL     1      49.000   6.759  14.069  0.00  0.00    +0.000 NA
ATOM      7  C   UNL     1      47.992   6.482  13.210  0.00  0.00    +0.000 A 
ATOM      8  C   UNL     1      47.845   6.996  11.925  0.00  0.00    +0.000 A 
ATOM      9  C   UNL     1      48.820   7.877  11.438  0.00  0.00    +0.000 A 
ATOM     10  C   UNL     1      46.647   6.468  11.398  0.00  0.00    +0.000 A 
ATOM     11  C   UNL     1      46.084   5.650  12.355  0.00  0.00    +0.000 A 
ATOM     15  N   UNL     1      46.916   5.649  13.458  0.00  0.00    +0.000 N 
ENDROOT
BRANCH   4   2
ATOM      1  N   UNL     1      52.241   8.724  12.051  0.00  0.00    +0.000 N 
ATOM      2  C   UNL     1      50.944   9.139  11.881  0.00  0.00    +0.000 C 
ATOM      3  O   UNL     1      50.691  10.228  11.384  0.00  0.00    +0.000 OA
ATOM     26  H   UNL     1      52.966   9.332  11.697  0.00  0.00    +0.000 HD
ATOM     27  H   UNL     1      52.490   7.766  12.255  0.00  0.00    +0.000 HD
ENDBRANCH   4   2
BRANCH  11  12
ATOM     12  C   UNL     1      44.784   4.874  12.179  0.00  0.00    +0.000 C 
ATOM     13  C   UNL     1      44.885   3.428  11.723  0.00  0.00    +0.000 C 
ATOM     14  C   UNL     1      44.359   4.454  10.784  0.00  0.00    +0.000 C 
ENDBRANCH  11  12
BRANCH  15  16
ATOM     16  C   UNL     1      46.630   5.061  14.765  0.00  0.00    +0.000 C 
BRANCH  16  17
ATOM     17  C   UNL     1      47.334   3.744  15.066  0.00  0.00    +0.000 C 
ATOM     18  O   UNL     1      47.458   2.847  14.233  0.00  0.00    +0.000 OA
ATOM     19  N   UNL     1      47.883   3.617  16.349  0.00  0.00    +0.000 N 
ATOM     20  C   UNL     1      48.686   2.437  16.666  0.00  0.00    +0.000 C 
ATOM     21  C   UNL     1      49.849   2.835  17.578  0.00  0.00    +0.000 C 
ATOM     22  N   UNL     1      49.393   3.535  18.761  0.00  0.00    +0.000 N 
ATOM     23  C   UNL     1      48.335   4.408  18.736  0.00  0.00    +0.000 C 
ATOM     24  O   UNL     1      48.104   5.121  19.712  0.00  0.00    +0.000 OA
ATOM     25  C   UNL     1      47.401   4.369  17.515  0.00  0.00    +0.000 C 
ATOM     28  H   UNL     1      50.012   3.641  19.557  0.00  0.00    +0.000 HD
ENDBRANCH  16  17
ENDBRANCH  15  16
TORSDOF 4
ENDMDL
MODEL 4
REMARK VINA RESULT:    -6.264      2.236      7.188
REMARK INTER + INTRA:          -8.594
REMARK INTER:                  -7.802
REMARK INTRA:                  -0.793
REMARK UNBOUND:                -0.865
REMARK  Name = 
REMARK  4 active torsions:
REMARK  status: ('A' for Active; 'I' for Inactive)
REMARK    1  A    between atoms: C_2  and  C_4
REMARK    2  A    between atoms: C_11  and  C_12
REMARK    3  A    between atoms: N_15  and  C_16
REMARK    4  A    between atoms: C_16  and  C_17
REMARK                            x       y       z     vdW  Elec       q    Type
REMARK                         _______ _______ _______ _____ _____    ______ ____
ROOT
ATOM      4  C   UNL     1      48.436   5.098  17.542  0.00  0.00    +0.000 A 
ATOM      5  C   UNL     1      47.606   4.398  16.670  0.00  0.00    +0.000 A 
ATOM      6  N   UNL     1      47.398   4.684  15.356  0.00  0.00    +0.000 NA
ATOM      7  C   UNL     1      48.118   5.746  14.925  0.00  0.00    +0.000 A 
ATOM      8  C   UNL     1      48.985   6.516  15.696  0.00  0.00    +0.000 A 
ATOM      9  C   UNL     1      49.163   6.180  17.045  0.00  0.00    +0.000 A 
ATOM     10  C   UNL     1      49.497   7.531  14.860  0.00  0.00    +0.000 A 
ATOM     11  C   UNL     1      48.944   7.372  13.607  0.00  0.00    +0.000 A 
ATOM     15  N   UNL     1      48.109   6.271  13.646  0.00  0.00    +0.000 N 
ENDROOT
BRANCH   4   2
ATOM      1  N   UNL     1      48.484   3.327  19.209  0.00  0.00    +0.000 N 
ATOM      2  C   UNL     1      48.535   4.674  18.952  0.00  0.00    +0.000 C 
ATOM      3  O   UNL     1      48.687   5.483  19.858  0.00  0.00    +0.000 OA
ATOM     26  H   UNL     1      48.633   3.038  20.166  0.00  0.00    +0.000 HD
ATOM     27  H   UNL     1      48.573   2.625  18.488  0.00  0.00    +0.000 HD
ENDBRANCH   4   2
BRANCH  11  12
ATOM     12  C   UNL     1      49.246   8.259  12.405  0.00  0.00    +0.000 C 
ATOM     13  C   UNL     1      50.337   7.802  11.451  0.00  0.00    +0.000 C 
ATOM     14  C   UNL     1      50.583   8.974  12.334  0.00  0.00    +0.000 C 
ENDBRANCH  11  12
BRANCH  15  16
ATOM     16  C   UNL     1      47.188   5.838  12.597  0.00  0.00    +0.000 C 
BRANCH  16  17
ATOM     17  C   UNL     1      45.833   6.533  12.580  0.00  0.00    +0.000 C 
ATOM     18  O   UNL     1      45.708   7.756  12.609  0.00  0.00    +0.000 OA
ATOM     19  N   UNL     1      44.713   5.697  12.484  0.00  0.00    +0.000 N 
ATOM     20  C   UNL     1      43.387   6.296  12.330  0.00  0.00    +0.000 C 
ATOM     21  C   UNL     1      42.540   5.438  11.388  0.00  0.00    +0.000 C 
ATOM     22  N   UNL     1      42.481   4.057  11.821  0.00  0.00    +0.000 N 
ATOM     23  C   UNL     1      43.552   3.421  12.397  0.00  0.00    +0.000 C 
ATOM     24  O   UNL     1      43.523   2.204  12.573  0.00  0.00    +0.000 OA
ATOM     25  C   UNL     1      44.710   4.292  12.915  0.00  0.00    +0.000 C 
ATOM     28  H   UNL     1      41.774   3.437  11.443  0.00  0.00    +0.000 HD
ENDBRANCH  16  17
ENDBRANCH  15  16
TORSDOF 4
ENDMDL
MODEL 5
REMARK VINA RESULT:    -6.249      4.825      7.963
REMARK INTER + INTRA:          -8.575
REMARK INTER:                  -7.759
REMARK INTRA:                  -0.816
REMARK UNBOUND:                -0.865
REMARK  Name = 
REMARK  4 active torsions:
REMARK  status: ('A' for Active; 'I' for Inactive)
REMARK    1  A    between atoms: C_2  and  C_4
REMARK    2  A    between atoms: C_11  and  C_12
REMARK    3  A    between atoms: N_15  and  C_16
REMARK    4  A    between atoms: C_16  and  C_17
REMARK                            x       y       z     vdW  Elec       q    Type
REMARK                         _______ _______ _______ _____ _____    ______ ____
ROOT
ATOM      4  C   UNL     1      44.401   4.291  11.417  0.00  0.00    +0.000 A 
ATOM      5  C   UNL     1      43.653   5.455  11.262  0.00  0.00    +0.000 A 
ATOM      6  N   UNL     1      44.026   6.706  11.648  0.00  0.00    +0.000 NA
ATOM      7  C   UNL     1      45.258   6.742  12.206  0.00  0.00    +0.000 A 
ATOM      8  C   UNL     1      46.100   5.651  12.406  0.00  0.00    +0.000 A 
ATOM      9  C   UNL     1      45.669   4.385  11.990  0.00  0.00    +0.000 A 
ATOM     10  C   UNL     1      47.265   6.134  13.040  0.00  0.00    +0.000 A 
ATOM     11  C   UNL     1      47.122   7.494  13.218  0.00  0.00    +0.000 A 
ATOM     15  N   UNL     1      45.898   7.866  12.696  0.00  0.00    +0.000 N 
ENDROOT
BRANCH   4   2
ATOM      1  N   UNL     1      44.493   2.360   9.940  0.00  0.00    +0.000 N 
ATOM      2  C   UNL     1      43.843   3.001  10.964  0.00  0.00    +0.000 C 
ATOM      3  O   UNL     1      42.860   2.503  11.496  0.00  0.00    +0.000 OA
ATOM     26  H   UNL     1      44.156   1.441   9.688  0.00  0.00    +0.000 HD
ATOM     27  H   UNL     1      45.415   2.625   9.621  0.00  0.00    +0.000 HD
ENDBRANCH   4   2
BRANCH  11  12
ATOM     12  C   UNL     1      48.166   8.401  13.859  0.00  0.00    +0.000 C 
ATOM     13  C   UNL     1      49.309   8.884  12.983  0.00  0.00    +0.000 C 
ATOM     14  C   UNL     1      49.579   7.880  14.046  0.00  0.00    +0.000 C 
ENDBRANCH  11  12
BRANCH  15  16
ATOM     16  C   UNL     1      45.258   9.174  12.821  0.00  0.00    +0.000 C 
BRANCH  16  17
ATOM     17  C   UNL     1      45.571  10.171  11.712  0.00  0.00    +0.000 C 
ATOM     18  O   UNL     1      46.704  10.603  11.501  0.00  0.00    +0.000 OA
ATOM     19  N   UNL     1      44.493  10.549  10.900  0.00  0.00    +0.000 N 
ATOM     20  C   UNL     1      44.742  11.399   9.736  0.00  0.00    +0.000 C 
ATOM     21  C   UNL     1      43.831  10.972   8.583  0.00  0.00    +0.000 C 
ATOM     22  N   UNL     1      42.436  10.955   8.974  0.00  0.00    +0.000 N 
ATOM     23  C   UNL     1      42.029  10.565  10.224  0.00  0.00    +0.000 C 
ATOM     24  O   UNL     1      40.834  10.382  10.452  0.00  0.00    +0.000 OA
ATOM     25  C   UNL     1      43.091  10.490  11.335  0.00  0.00    +0.000 C 
ATOM     28  H   UNL     1      41.712  10.931   8.266  0.00  0.00    +0.000 HD
ENDBRANCH  16  17
ENDBRANCH  15  16
TORSDOF 4
ENDMDL
MODEL 6
REMARK VINA RESULT:    -6.155      2.242      7.652
REMARK INTER + INTRA:          -8.459
REMARK INTER:                  -8.449
REMARK INTRA:                  -0.010
REMARK UNBOUND:                -0.865
REMARK  Name = 
REMARK  4 active torsions:
REMARK  status: ('A' for Active; 'I' for Inactive)
REMARK    1  A    between atoms: C_2  and  C_4
REMARK    2  A    between atoms: C_11  and  C_12
REMARK    3  A    between atoms: N_15  and  C_16
REMARK    4  A    between atoms: C_16  and  C_17
REMARK                            x       y       z     vdW  Elec       q    Type
REMARK                         _______ _______ _______ _____ _____    ______ ____
ROOT
ATOM      4  C   UNL     1      48.131   4.870  18.023  0.00  0.00    +0.000 A 
ATOM      5  C   UNL     1      47.402   3.796  17.519  0.00  0.00    +0.000 A 
ATOM      6  N   UNL     1      46.988   3.640  16.232  0.00  0.00    +0.000 NA
ATOM      7  C   UNL     1      47.380   4.653  15.424  0.00  0.00    +0.000 A 
ATOM      8  C   UNL     1      48.117   5.770  15.808  0.00  0.00    +0.000 A 
ATOM      9  C   UNL     1      48.519   5.883  17.146  0.00  0.00    +0.000 A 
ATOM     10  C   UNL     1      48.275   6.580  14.663  0.00  0.00    +0.000 A 
ATOM     11  C   UNL     1      47.641   5.956  13.609  0.00  0.00    +0.000 A 
ATOM     15  N   UNL     1      47.105   4.771  14.074  0.00  0.00    +0.000 N 
ENDROOT
BRANCH   4   2
ATOM      1  N   UNL     1      49.666   4.310  19.826  0.00  0.00    +0.000 N 
ATOM      2  C   UNL     1      48.485   4.902  19.456  0.00  0.00    +0.000 C 
ATOM      3  O   UNL     1      47.774   5.460  20.281  0.00  0.00    +0.000 OA
ATOM     26  H   UNL     1      49.942   4.404  20.794  0.00  0.00    +0.000 HD
ATOM     27  H   UNL     1      50.374   4.031  19.162  0.00  0.00    +0.000 HD
ENDBRANCH   4   2
BRANCH  11  12
ATOM     12  C   UNL     1      47.587   6.498  12.184  0.00  0.00    +0.000 C 
ATOM     13  C   UNL     1      48.566   7.599  11.814  0.00  0.00    +0.000 C 
ATOM     14  C   UNL     1      47.122   7.924  11.956  0.00  0.00    +0.000 C 
ENDBRANCH  11  12
BRANCH  15  16
ATOM     16  C   UNL     1      46.205   3.877  13.348  0.00  0.00    +0.000 C 
BRANCH  16  17
ATOM     17  C   UNL     1      45.014   4.545  12.672  0.00  0.00    +0.000 C 
ATOM     18  O   UNL     1      44.390   5.474  13.183  0.00  0.00    +0.000 OA
ATOM     19  N   UNL     1      44.683   4.070  11.396  0.00  0.00    +0.000 N 
ATOM     20  C   UNL     1      43.637   4.749  10.633  0.00  0.00    +0.000 C 
ATOM     21  C   UNL     1      44.013   4.771   9.149  0.00  0.00    +0.000 C 
ATOM     22  N   UNL     1      44.299   3.443   8.645  0.00  0.00    +0.000 N 
ATOM     23  C   UNL     1      44.934   2.491   9.402  0.00  0.00    +0.000 C 
ATOM     24  O   UNL     1      45.327   1.450   8.877  0.00  0.00    +0.000 OA
ATOM     25  C   UNL     1      45.018   2.721  10.921  0.00  0.00    +0.000 C 
ATOM     28  H   UNL     1      44.323   3.276   7.646  0.00  0.00    +0.000 HD
ENDBRANCH  16  17
ENDBRANCH  15  16
TORSDOF 4
ENDMDL
MODEL 7
REMARK VINA RESULT:    -5.875      1.778      7.340
REMARK INTER + INTRA:          -8.113
REMARK INTER:                  -7.682
REMARK INTRA:                  -0.432
REMARK UNBOUND:                -0.865
REMARK  Name = 
REMARK  4 active torsions:
REMARK  status: ('A' for Active; 'I' for Inactive)
REMARK    1  A    between atoms: C_2  and  C_4
REMARK    2  A    between atoms: C_11  and  C_12
REMARK    3  A    between atoms: N_15  and  C_16
REMARK    4  A    between atoms: C_16  and  C_17
REMARK                            x       y       z     vdW  Elec       q    Type
REMARK                         _______ _______ _______ _____ _____    ______ ____
ROOT
ATOM      4  C   UNL     1      49.949   5.527  17.969  0.00  0.00    +0.000 A 
ATOM      5  C   UNL     1      48.733   4.931  17.648  0.00  0.00    +0.000 A 
ATOM      6  N   UNL     1      48.016   5.132  16.508  0.00  0.00    +0.000 NA
ATOM      7  C   UNL     1      48.619   5.986  15.648  0.00  0.00    +0.000 A 
ATOM      8  C   UNL     1      49.834   6.634  15.853  0.00  0.00    +0.000 A 
ATOM      9  C   UNL     1      50.532   6.393  17.043  0.00  0.00    +0.000 A 
ATOM     10  C   UNL     1      50.069   7.447  14.723  0.00  0.00    +0.000 A 
ATOM     11  C   UNL     1      49.009   7.288  13.855  0.00  0.00    +0.000 A 
ATOM     15  N   UNL     1      48.129   6.383  14.418  0.00  0.00    +0.000 N 
ENDROOT
BRANCH   4   2
ATOM      1  N   UNL     1      51.290   4.045  19.355  0.00  0.00    +0.000 N 
ATOM      2  C   UNL     1      50.592   5.222  19.263  0.00  0.00    +0.000 C 
ATOM      3  O   UNL     1      50.533   5.996  20.208  0.00  0.00    +0.000 OA
ATOM     26  H   UNL     1      51.794   3.878  20.216  0.00  0.00    +0.000 HD
ATOM     27  H   UNL     1      51.540   3.488  18.550  0.00  0.00    +0.000 HD
ENDBRANCH   4   2
BRANCH  11  12
ATOM     12  C   UNL     1      48.880   7.984  12.505  0.00  0.00    +0.000 C 
ATOM     13  C   UNL     1      49.785   7.509  11.380  0.00  0.00    +0.000 C 
ATOM     14  C   UNL     1      50.030   8.837  12.003  0.00  0.00    +0.000 C 
ENDBRANCH  11  12
BRANCH  15  16
ATOM     16  C   UNL     1      46.792   6.049  13.930  0.00  0.00    +0.000 C 
BRANCH  16  17
ATOM     17  C   UNL     1      46.629   4.646  13.360  0.00  0.00    +0.000 C 
ATOM     18  O   UNL     1      47.430   3.738  13.577  0.00  0.00    +0.000 OA
ATOM     19  N   UNL     1      45.476   4.422  12.595  0.00  0.00    +0.000 N 
ATOM     20  C   UNL     1      45.185   3.068  12.124  0.00  0.00    +0.000 C 
ATOM     21  C   UNL     1      43.676   2.819  12.174  0.00  0.00    +0.000 C 
ATOM     22  N   UNL     1      42.937   3.833  11.448  0.00  0.00    +0.000 N 
ATOM     23  C   UNL     1      43.319   5.150  11.434  0.00  0.00    +0.000 C 
ATOM     24  O   UNL     1      42.564   6.004  10.970  0.00  0.00    +0.000 OA
ATOM     25  C   UNL     1      44.746   5.489  11.896  0.00  0.00    +0.000 C 
ATOM     28  H   UNL     1      41.971   3.668  11.192  0.00  0.00    +0.000 HD
ENDBRANCH  16  17
ENDBRANCH  15  16
TORSDOF 4
ENDMDL
MODEL 8
REMARK VINA RESULT:    -5.752      2.820      7.217
REMARK INTER + INTRA:          -7.962
REMARK INTER:                  -7.334
REMARK INTRA:                  -0.629
REMARK UNBOUND:                -0.865
REMARK  Name = 
REMARK  4 active torsions:
REMARK  status: ('A' for Active; 'I' for Inactive)
REMARK    1  A    between atoms: C_2  and  C_4
REMARK    2  A    between atoms: C_11  and  C_12
REMARK    3  A    between atoms: N_15  and  C_16
REMARK    4  A    between atoms: C_16  and  C_17
REMARK                            x       y       z     vdW  Elec       q    Type
REMARK                         _______ _______ _______ _____ _____    ______ ____
ROOT
ATOM      4  C   UNL     1      47.883   4.497  16.579  0.00  0.00    +0.000 A 
ATOM      5  C   UNL     1      47.186   4.519  15.373  0.00  0.00    +0.000 A 
ATOM      6  N   UNL     1      47.421   5.354  14.325  0.00  0.00    +0.000 NA
ATOM      7  C   UNL     1      48.458   6.197  14.542  0.00  0.00    +0.000 A 
ATOM      8  C   UNL     1      49.233   6.263  15.697  0.00  0.00    +0.000 A 
ATOM      9  C   UNL     1      48.950   5.380  16.748  0.00  0.00    +0.000 A 
ATOM     10  C   UNL     1      50.177   7.296  15.508  0.00  0.00    +0.000 A 
ATOM     11  C   UNL     1      49.969   7.840  14.258  0.00  0.00    +0.000 A 
ATOM     15  N   UNL     1      48.924   7.158  13.664  0.00  0.00    +0.000 N 
ENDROOT
BRANCH   4   2
ATOM      1  N   UNL     1      48.285   3.470  18.747  0.00  0.00    +0.000 N 
ATOM      2  C   UNL     1      47.489   3.540  17.632  0.00  0.00    +0.000 C 
ATOM      3  O   UNL     1      46.479   2.857  17.534  0.00  0.00    +0.000 OA
ATOM     26  H   UNL     1      47.967   2.873  19.499  0.00  0.00    +0.000 HD
ATOM     27  H   UNL     1      48.995   4.156  18.961  0.00  0.00    +0.000 HD
ENDBRANCH   4   2
BRANCH  11  12
ATOM     12  C   UNL     1      50.788   8.977  13.659  0.00  0.00    +0.000 C 
ATOM     13  C   UNL     1      52.201   8.660  13.201  0.00  0.00    +0.000 C 
ATOM     14  C   UNL     1      51.998   9.492  14.416  0.00  0.00    +0.000 C 
ENDBRANCH  11  12
BRANCH  15  16
ATOM     16  C   UNL     1      48.254   7.508  12.413  0.00  0.00    +0.000 C 
BRANCH  16  17
ATOM     17  C   UNL     1      47.280   8.677  12.491  0.00  0.00    +0.000 C 
ATOM     18  O   UNL     1      47.627   9.818  12.795  0.00  0.00    +0.000 OA
ATOM     19  N   UNL     1      45.950   8.395  12.152  0.00  0.00    +0.000 N 
ATOM     20  C   UNL     1      44.986   9.492  12.076  0.00  0.00    +0.000 C 
ATOM     21  C   UNL     1      44.011   9.244  10.923  0.00  0.00    +0.000 C 
ATOM     22  N   UNL     1      43.374   7.946  11.025  0.00  0.00    +0.000 N 
ATOM     23  C   UNL     1      44.035   6.838  11.490  0.00  0.00    +0.000 C 
ATOM     24  O   UNL     1      43.521   5.725  11.380  0.00  0.00    +0.000 OA
ATOM     25  C   UNL     1      45.355   7.055  12.249  0.00  0.00    +0.000 C 
ATOM     28  H   UNL     1      42.542   7.747  10.481  0.00  0.00    +0.000 HD
ENDBRANCH  16  17
ENDBRANCH  15  16
TORSDOF 4
ENDMDL
MODEL 9
REMARK VINA RESULT:    -5.543      3.154      5.168
REMARK INTER + INTRA:          -7.705
REMARK INTER:                  -6.782
REMARK INTRA:                  -0.923
REMARK UNBOUND:                -0.865
REMARK  Name = 
REMARK  4 active torsions:
REMARK  status: ('A' for Active; 'I' for Inactive)
REMARK    1  A    between atoms: C_2  and  C_4
REMARK    2  A    between atoms: C_11  and  C_12
REMARK    3  A    between atoms: N_15  and  C_16
REMARK    4  A    between atoms: C_16  and  C_17
REMARK                            x       y       z     vdW  Elec       q    Type
REMARK                         _______ _______ _______ _____ _____    ______ ____
ROOT
ATOM      4  C   UNL     1      45.579   4.962  11.733  0.00  0.00    +0.000 A 
ATOM      5  C   UNL     1      46.241   6.186  11.707  0.00  0.00    +0.000 A 
ATOM      6  N   UNL     1      47.043   6.686  12.686  0.00  0.00    +0.000 NA
ATOM      7  C   UNL     1      47.177   5.847  13.740  0.00  0.00    +0.000 A 
ATOM      8  C   UNL     1      46.575   4.599  13.876  0.00  0.00    +0.000 A 
ATOM      9  C   UNL     1      45.758   4.130  12.839  0.00  0.00    +0.000 A 
ATOM     10  C   UNL     1      46.960   4.085  15.133  0.00  0.00    +0.000 A 
ATOM     11  C   UNL     1      47.781   5.012  15.740  0.00  0.00    +0.000 A 
ATOM     15  N   UNL     1      47.922   6.084  14.881  0.00  0.00    +0.000 N 
ENDROOT
BRANCH   4   2
ATOM      1  N   UNL     1      43.609   5.337  10.356  0.00  0.00    +0.000 N 
ATOM      2  C   UNL     1      44.722   4.572  10.596  0.00  0.00    +0.000 C 
ATOM      3  O   UNL     1      45.003   3.624   9.874  0.00  0.00    +0.000 OA
ATOM     26  H   UNL     1      43.071   5.115   9.530  0.00  0.00    +0.000 HD
ATOM     27  H   UNL     1      43.457   6.238  10.786  0.00  0.00    +0.000 HD
ENDBRANCH   4   2
BRANCH  11  12
ATOM     12  C   UNL     1      48.424   4.836  17.112  0.00  0.00    +0.000 C 
ATOM     13  C   UNL     1      49.767   4.129  17.172  0.00  0.00    +0.000 C 
ATOM     14  C   UNL     1      48.555   3.440  17.691  0.00  0.00    +0.000 C 
ENDBRANCH  11  12
BRANCH  15  16
ATOM     16  C   UNL     1      48.560   7.365  15.182  0.00  0.00    +0.000 C 
BRANCH  16  17
ATOM     17  C   UNL     1      50.022   7.487  14.773  0.00  0.00    +0.000 C 
ATOM     18  O   UNL     1      50.933   6.912  15.366  0.00  0.00    +0.000 OA
ATOM     19  N   UNL     1      50.281   8.268  13.638  0.00  0.00    +0.000 N 
ATOM     20  C   UNL     1      51.643   8.325  13.109  0.00  0.00    +0.000 C 
ATOM     21  C   UNL     1      51.600   8.368  11.579  0.00  0.00    +0.000 C 
ATOM     22  N   UNL     1      50.766   9.449  11.093  0.00  0.00    +0.000 N 
ATOM     23  C   UNL     1      49.611   9.828  11.728  0.00  0.00    +0.000 C 
ATOM     24  O   UNL     1      48.839  10.615  11.182  0.00  0.00    +0.000 OA
ATOM     25  C   UNL     1      49.390   9.339  13.170  0.00  0.00    +0.000 C 
ATOM     28  H   UNL     1      50.836   9.747  10.127  0.00  0.00    +0.000 HD
ENDBRANCH  16  17
ENDBRANCH  15  16
TORSDOF 4
ENDMDL
