MODEL 1
REMARK VINA RESULT:    -7.008      0.000      0.000
REMARK INTER + INTRA:         -13.486
REMARK INTER:                 -11.924
REMARK INTRA:                  -1.562
REMARK UNBOUND:                -1.562
REMARK  Name = 
REMARK  13 active torsions:
REMARK  status: ('A' for Active; 'I' for Inactive)
REMARK    1  A    between atoms: C_1  and  C_2
REMARK    2  A    between atoms: C_2  and  C_3
REMARK    3  A    between atoms: C_3  and  C_4
REMARK    4  A    between atoms: C_4  and  C_5
REMARK    5  A    between atoms: C_5  and  C_6
REMARK    6  A    between atoms: C_6  and  C_7
REMARK    7  A    between atoms: C_7  and  C_8
REMARK    8  A    between atoms: C_8  and  N_9
REMARK    9  A    between atoms: N_9  and  C_10
REMARK   10  A    between atoms: C_10  and  C_11
REMARK   11  A    between atoms: C_14  and  C_15
REMARK   12  A    between atoms: C_15  and  N_16
REMARK   13  A    between atoms: C_17  and  C_19
REMARK                            x       y       z     vdW  Elec       q    Type
REMARK                         _______ _______ _______ _____ _____    ______ ____
ROOT
ATOM     11  C   UNL     1      44.742   4.136  11.370  0.00  0.00    +0.000 A 
ATOM     12  C   UNL     1      45.343   3.930  12.619  0.00  0.00    +0.000 A 
ATOM     13  C   UNL     1      46.221   4.873  13.152  0.00  0.00    +0.000 A 
ATOM     14  C   UNL     1      46.519   6.045  12.447  0.00  0.00    +0.000 A 
ATOM     29  C   UNL     1      45.952   6.230  11.178  0.00  0.00    +0.000 A 
ATOM     30  C   UNL     1      45.039   5.306  10.661  0.00  0.00    +0.000 A 
ENDROOT
BRANCH  11  10
ATOM     10  C   UNL     1      43.849   3.076  10.781  0.00  0.00    +0.000 C 
BRANCH  10   9
ATOM      9  N   UNL     1      43.927   3.066   9.324  0.00  0.00    +0.000 NA
ATOM     31  H   UNL     1      42.988   3.047   8.933  0.00  0.00    +0.000 HD
BRANCH   9   8
ATOM      8  C   UNL     1      44.661   1.897   8.866  0.00  0.00    +0.000 C 
BRANCH   8   7
ATOM      7  C   UNL     1      46.068   2.324   8.476  0.00  0.00    +0.000 C 
BRANCH   7   6
ATOM      6  C   UNL     1      45.994   3.486   7.499  0.00  0.00    +0.000 C 
BRANCH   6   5
ATOM      5  C   UNL     1      46.764   3.163   6.230  0.00  0.00    +0.000 C 
BRANCH   5   4
ATOM      4  C   UNL     1      47.679   1.971   6.466  0.00  0.00    +0.000 C 
BRANCH   4   3
ATOM      3  C   UNL     1      47.488   0.938   5.366  0.00  0.00    +0.000 C 
BRANCH   3   2
ATOM      1  C   UNL     1      46.395   0.463   3.172  0.00  0.00    +0.000 C 
ATOM      2  C   UNL     1      46.700   1.531   4.206  0.00  0.00    +0.000 C 
ENDBRANCH   3   2
ENDBRANCH   4   3
ENDBRANCH   5   4
ENDBRANCH   6   5
ENDBRANCH   7   6
ENDBRANCH   8   7
ENDBRANCH   9   8
ENDBRANCH  10   9
ENDBRANCH  11  10
BRANCH  14  15
ATOM     15  C   UNL     1      47.389   7.110  13.067  0.00  0.00    +0.000 C 
BRANCH  15  16
ATOM     16  N   UNL     1      47.629   6.897  14.471  0.00  0.00    +0.000 N 
ATOM     17  C   UNL     1      48.904   6.869  14.991  0.00  0.00    +0.000 C 
ATOM     18  O   UNL     1      49.902   7.055  14.298  0.00  0.00    +0.000 OA
ATOM     32  H   UNL     1      46.846   6.581  15.032  0.00  0.00    +0.000 HD
BRANCH  17  19
ATOM     19  C   UNL     1      48.998   6.647  16.439  0.00  0.00    +0.000 A 
ATOM     20  C   UNL     1      49.390   7.678  17.280  0.00  0.00    +0.000 A 
ATOM     21  S   UNL     1      49.429   7.239  18.930  0.00  0.00    +0.000 S 
ATOM     22  C   UNL     1      48.956   5.642  18.573  0.00  0.00    +0.000 A 
ATOM     23  N   UNL     1      48.817   4.713  19.558  0.00  0.00    +0.000 NA
ATOM     24  C   UNL     1      48.444   3.551  19.140  0.00  0.00    +0.000 A 
ATOM     25  N   UNL     1      48.196   3.229  17.834  0.00  0.00    +0.000 N 
ATOM     26  C   UNL     1      48.331   4.132  16.803  0.00  0.00    +0.000 A 
ATOM     27  O   UNL     1      48.083   3.816  15.647  0.00  0.00    +0.000 OA
ATOM     28  C   UNL     1      48.746   5.457  17.217  0.00  0.00    +0.000 A 
ATOM     33  H   UNL     1      47.888   2.306  17.568  0.00  0.00    +0.000 HD
ENDBRANCH  17  19
ENDBRANCH  15  16
ENDBRANCH  14  15
TORSDOF 12
ENDMDL
MODEL 2
REMARK VINA RESULT:    -6.849      3.252      5.920
REMARK INTER + INTRA:         -13.215
REMARK INTER:                 -12.135
REMARK INTRA:                  -1.080
REMARK UNBOUND:                -1.562
REMARK  Name = 
REMARK  13 active torsions:
REMARK  status: ('A' for Active; 'I' for Inactive)
REMARK    1  A    between atoms: C_1  and  C_2
REMARK    2  A    between atoms: C_2  and  C_3
REMARK    3  A    between atoms: C_3  and  C_4
REMARK    4  A    between atoms: C_4  and  C_5
REMARK    5  A    between atoms: C_5  and  C_6
REMARK    6  A    between atoms: C_6  and  C_7
REMARK    7  A    between atoms: C_7  and  C_8
REMARK    8  A    between atoms: C_8  and  N_9
REMARK    9  A    between atoms: N_9  and  C_10
REMARK   10  A    between atoms: C_10  and  C_11
REMARK   11  A    between atoms: C_14  and  C_15
REMARK   12  A    between atoms: C_15  and  N_16
REMARK   13  A    between atoms: C_17  and  C_19
REMARK                            x       y       z     vdW  Elec       q    Type
REMARK                         _______ _______ _______ _____ _____    ______ ____
ROOT
ATOM     11  C   UNL     1      46.986   2.026   7.278  0.00  0.00    +0.000 A 
ATOM     12  C   UNL     1      46.870   3.418   7.164  0.00  0.00    +0.000 A 
ATOM     13  C   UNL     1      45.925   4.118   7.913  0.00  0.00    +0.000 A 
ATOM     14  C   UNL     1      45.073   3.441   8.793  0.00  0.00    +0.000 A 
ATOM     29  C   UNL     1      45.159   2.044   8.873  0.00  0.00    +0.000 A 
ATOM     30  C   UNL     1      46.134   1.346   8.155  0.00  0.00    +0.000 A 
ENDROOT
BRANCH  11  10
ATOM     10  C   UNL     1      47.966   1.279   6.412  0.00  0.00    +0.000 C 
BRANCH  10   9
ATOM      9  N   UNL     1      48.112   1.914   5.107  0.00  0.00    +0.000 NA
ATOM     31  H   UNL     1      48.164   2.924   5.223  0.00  0.00    +0.000 HD
BRANCH   9   8
ATOM      8  C   UNL     1      46.979   1.586   4.257  0.00  0.00    +0.000 C 
BRANCH   8   7
ATOM      7  C   UNL     1      46.940   0.079   4.053  0.00  0.00    +0.000 C 
BRANCH   7   6
ATOM      6  C   UNL     1      46.292  -0.236   2.714  0.00  0.00    +0.000 C 
BRANCH   6   5
ATOM      5  C   UNL     1      46.045  -1.729   2.582  0.00  0.00    +0.000 C 
BRANCH   5   4
ATOM      4  C   UNL     1      46.556  -2.453   3.818  0.00  0.00    +0.000 C 
BRANCH   4   3
ATOM      3  C   UNL     1      46.475  -3.957   3.616  0.00  0.00    +0.000 C 
BRANCH   3   2
ATOM      1  C   UNL     1      45.899  -5.882   5.099  0.00  0.00    +0.000 C 
ATOM      2  C   UNL     1      46.819  -4.691   4.905  0.00  0.00    +0.000 C 
ENDBRANCH   3   2
ENDBRANCH   4   3
ENDBRANCH   5   4
ENDBRANCH   6   5
ENDBRANCH   7   6
ENDBRANCH   8   7
ENDBRANCH   9   8
ENDBRANCH  10   9
ENDBRANCH  11  10
BRANCH  14  15
ATOM     15  C   UNL     1      44.119   4.209   9.676  0.00  0.00    +0.000 C 
BRANCH  15  16
ATOM     16  N   UNL     1      44.732   5.345  10.315  0.00  0.00    +0.000 N 
ATOM     17  C   UNL     1      44.019   6.176  11.151  0.00  0.00    +0.000 C 
ATOM     18  O   UNL     1      42.835   5.979  11.422  0.00  0.00    +0.000 OA
ATOM     32  H   UNL     1      45.648   5.623   9.986  0.00  0.00    +0.000 HD
BRANCH  17  19
ATOM     19  C   UNL     1      44.771   7.291  11.736  0.00  0.00    +0.000 A 
ATOM     20  C   UNL     1      44.457   8.599  11.400  0.00  0.00    +0.000 A 
ATOM     21  S   UNL     1      45.429   9.762  12.186  0.00  0.00    +0.000 S 
ATOM     22  C   UNL     1      46.330   8.554  12.979  0.00  0.00    +0.000 A 
ATOM     23  N   UNL     1      47.358   8.875  13.811  0.00  0.00    +0.000 NA
ATOM     24  C   UNL     1      47.942   7.857  14.347  0.00  0.00    +0.000 A 
ATOM     25  N   UNL     1      47.596   6.551  14.133  0.00  0.00    +0.000 N 
ATOM     26  C   UNL     1      46.569   6.177  13.295  0.00  0.00    +0.000 A 
ATOM     27  O   UNL     1      46.273   4.999  13.141  0.00  0.00    +0.000 OA
ATOM     28  C   UNL     1      45.875   7.283  12.667  0.00  0.00    +0.000 A 
ATOM     33  H   UNL     1      48.077   5.795  14.596  0.00  0.00    +0.000 HD
ENDBRANCH  17  19
ENDBRANCH  15  16
ENDBRANCH  14  15
TORSDOF 12
ENDMDL
MODEL 3
REMARK VINA RESULT:    -6.598      1.193      1.578
REMARK INTER + INTRA:         -12.789
REMARK INTER:                 -11.367
REMARK INTRA:                  -1.423
REMARK UNBOUND:                -1.562
REMARK  Name = 
REMARK  13 active torsions:
REMARK  status: ('A' for Active; 'I' for Inactive)
REMARK    1  A    between atoms: C_1  and  C_2
REMARK    2  A    between atoms: C_2  and  C_3
REMARK    3  A    between atoms: C_3  and  C_4
REMARK    4  A    between atoms: C_4  and  C_5
REMARK    5  A    between atoms: C_5  and  C_6
REMARK    6  A    between atoms: C_6  and  C_7
REMARK    7  A    between atoms: C_7  and  C_8
REMARK    8  A    between atoms: C_8  and  N_9
REMARK    9  A    between atoms: N_9  and  C_10
REMARK   10  A    between atoms: C_10  and  C_11
REMARK   11  A    between atoms: C_14  and  C_15
REMARK   12  A    between atoms: C_15  and  N_16
REMARK   13  A    between atoms: C_17  and  C_19
REMARK                            x       y       z     vdW  Elec       q    Type
REMARK                         _______ _______ _______ _____ _____    ______ ____
ROOT
ATOM     11  C   UNL     1      44.505   5.916  12.263  0.00  0.00    +0.000 A 
ATOM     12  C   UNL     1      45.269   5.127  13.133  0.00  0.00    +0.000 A 
ATOM     13  C   UNL     1      46.511   5.567  13.588  0.00  0.00    +0.000 A 
ATOM     14  C   UNL     1      47.019   6.806  13.182  0.00  0.00    +0.000 A 
ATOM     29  C   UNL     1      46.275   7.575  12.276  0.00  0.00    +0.000 A 
ATOM     30  C   UNL     1      45.010   7.155  11.853  0.00  0.00    +0.000 A 
ENDROOT
BRANCH  11  10
ATOM     10  C   UNL     1      43.197   5.395  11.729  0.00  0.00    +0.000 C 
BRANCH  10   9
ATOM      9  N   UNL     1      43.251   5.205  10.284  0.00  0.00    +0.000 NA
ATOM     31  H   UNL     1      42.305   5.163   9.910  0.00  0.00    +0.000 HD
BRANCH   9   8
ATOM      8  C   UNL     1      43.948   3.970   9.964  0.00  0.00    +0.000 C 
BRANCH   8   7
ATOM      7  C   UNL     1      45.065   4.279   8.979  0.00  0.00    +0.000 C 
BRANCH   7   6
ATOM      6  C   UNL     1      45.138   3.180   7.931  0.00  0.00    +0.000 C 
BRANCH   6   5
ATOM      5  C   UNL     1      45.825   1.949   8.498  0.00  0.00    +0.000 C 
BRANCH   5   4
ATOM      4  C   UNL     1      46.888   1.454   7.529  0.00  0.00    +0.000 C 
BRANCH   4   3
ATOM      3  C   UNL     1      47.509   2.628   6.788  0.00  0.00    +0.000 C 
BRANCH   3   2
ATOM      1  C   UNL     1      47.250   0.906   4.998  0.00  0.00    +0.000 C 
ATOM      2  C   UNL     1      47.514   2.371   5.287  0.00  0.00    +0.000 C 
ENDBRANCH   3   2
ENDBRANCH   4   3
ENDBRANCH   5   4
ENDBRANCH   6   5
ENDBRANCH   7   6
ENDBRANCH   8   7
ENDBRANCH   9   8
ENDBRANCH  10   9
ENDBRANCH  11  10
BRANCH  14  15
ATOM     15  C   UNL     1      48.317   7.325  13.752  0.00  0.00    +0.000 C 
BRANCH  15  16
ATOM     16  N   UNL     1      48.448   7.085  15.166  0.00  0.00    +0.000 N 
ATOM     17  C   UNL     1      49.681   6.933  15.762  0.00  0.00    +0.000 C 
ATOM     18  O   UNL     1      50.733   7.025  15.132  0.00  0.00    +0.000 OA
ATOM     32  H   UNL     1      47.607   6.844  15.676  0.00  0.00    +0.000 HD
BRANCH  17  19
ATOM     19  C   UNL     1      49.664   6.698  17.210  0.00  0.00    +0.000 A 
ATOM     20  C   UNL     1      50.202   7.639  18.077  0.00  0.00    +0.000 A 
ATOM     21  S   UNL     1      50.082   7.201  19.723  0.00  0.00    +0.000 S 
ATOM     22  C   UNL     1      49.338   5.720  19.333  0.00  0.00    +0.000 A 
ATOM     23  N   UNL     1      48.983   4.833  20.303  0.00  0.00    +0.000 NA
ATOM     24  C   UNL     1      48.421   3.761  19.858  0.00  0.00    +0.000 A 
ATOM     25  N   UNL     1      48.178   3.489  18.540  0.00  0.00    +0.000 N 
ATOM     26  C   UNL     1      48.526   4.351  17.523  0.00  0.00    +0.000 A 
ATOM     27  O   UNL     1      48.277   4.086  16.355  0.00  0.00    +0.000 OA
ATOM     28  C   UNL     1      49.160   5.576  17.967  0.00  0.00    +0.000 A 
ATOM     33  H   UNL     1      47.717   2.640  18.252  0.00  0.00    +0.000 HD
ENDBRANCH  17  19
ENDBRANCH  15  16
ENDBRANCH  14  15
TORSDOF 12
ENDMDL
MODEL 4
REMARK VINA RESULT:    -6.559      1.830      3.006
REMARK INTER + INTRA:         -12.722
REMARK INTER:                 -12.047
REMARK INTRA:                  -0.675
REMARK UNBOUND:                -1.562
REMARK  Name = 
REMARK  13 active torsions:
REMARK  status: ('A' for Active; 'I' for Inactive)
REMARK    1  A    between atoms: C_1  and  C_2
REMARK    2  A    between atoms: C_2  and  C_3
REMARK    3  A    between atoms: C_3  and  C_4
REMARK    4  A    between atoms: C_4  and  C_5
REMARK    5  A    between atoms: C_5  and  C_6
REMARK    6  A    between atoms: C_6  and  C_7
REMARK    7  A    between atoms: C_7  and  C_8
REMARK    8  A    between atoms: C_8  and  N_9
REMARK    9  A    between atoms: N_9  and  C_10
REMARK   10  A    between atoms: C_10  and  C_11
REMARK   11  A    between atoms: C_14  and  C_15
REMARK   12  A    between atoms: C_15  and  N_16
REMARK   13  A    between atoms: C_17  and  C_19
REMARK                            x       y       z     vdW  Elec       q    Type
REMARK                         _______ _______ _______ _____ _____    ______ ____
ROOT
ATOM     11  C   UNL     1      45.379   3.553   9.010  0.00  0.00    +0.000 A 
ATOM     12  C   UNL     1      44.798   2.721   9.977  0.00  0.00    +0.000 A 
ATOM     13  C   UNL     1      44.486   3.211  11.244  0.00  0.00    +0.000 A 
ATOM     14  C   UNL     1      44.748   4.546  11.575  0.00  0.00    +0.000 A 
ATOM     29  C   UNL     1      45.370   5.366  10.622  0.00  0.00    +0.000 A 
ATOM     30  C   UNL     1      45.644   4.888   9.337  0.00  0.00    +0.000 A 
ENDROOT
BRANCH  11  10
ATOM     10  C   UNL     1      45.770   2.989   7.670  0.00  0.00    +0.000 C 
BRANCH  10   9
ATOM      9  N   UNL     1      46.420   1.691   7.810  0.00  0.00    +0.000 NA
ATOM     31  H   UNL     1      46.882   1.637   8.715  0.00  0.00    +0.000 HD
BRANCH   9   8
ATOM      8  C   UNL     1      47.405   1.503   6.757  0.00  0.00    +0.000 C 
BRANCH   8   7
ATOM      7  C   UNL     1      47.256   2.625   5.741  0.00  0.00    +0.000 C 
BRANCH   7   6
ATOM      6  C   UNL     1      46.958   2.036   4.372  0.00  0.00    +0.000 C 
BRANCH   6   5
ATOM      5  C   UNL     1      47.008   0.519   4.424  0.00  0.00    +0.000 C 
BRANCH   5   4
ATOM      4  C   UNL     1      46.352  -0.066   3.182  0.00  0.00    +0.000 C 
BRANCH   4   3
ATOM      3  C   UNL     1      46.891  -1.462   2.914  0.00  0.00    +0.000 C 
BRANCH   3   2
ATOM      1  C   UNL     1      46.818  -3.831   3.701  0.00  0.00    +0.000 C 
ATOM      2  C   UNL     1      46.612  -2.381   4.096  0.00  0.00    +0.000 C 
ENDBRANCH   3   2
ENDBRANCH   4   3
ENDBRANCH   5   4
ENDBRANCH   6   5
ENDBRANCH   7   6
ENDBRANCH   8   7
ENDBRANCH   9   8
ENDBRANCH  10   9
ENDBRANCH  11  10
BRANCH  14  15
ATOM     15  C   UNL     1      44.320   5.102  12.910  0.00  0.00    +0.000 C 
BRANCH  15  16
ATOM     16  N   UNL     1      45.426   5.556  13.714  0.00  0.00    +0.000 N 
ATOM     17  C   UNL     1      46.375   4.682  14.196  0.00  0.00    +0.000 C 
ATOM     18  O   UNL     1      46.352   3.479  13.944  0.00  0.00    +0.000 OA
ATOM     32  H   UNL     1      45.381   6.503  14.071  0.00  0.00    +0.000 HD
BRANCH  17  19
ATOM     19  C   UNL     1      47.447   5.284  14.997  0.00  0.00    +0.000 A 
ATOM     20  C   UNL     1      48.225   6.304  14.469  0.00  0.00    +0.000 A 
ATOM     21  S   UNL     1      49.412   6.889  15.548  0.00  0.00    +0.000 S 
ATOM     22  C   UNL     1      48.951   5.773  16.749  0.00  0.00    +0.000 A 
ATOM     23  N   UNL     1      49.594   5.724  17.948  0.00  0.00    +0.000 NA
ATOM     24  C   UNL     1      49.128   4.836  18.760  0.00  0.00    +0.000 A 
ATOM     25  N   UNL     1      48.084   3.996  18.491  0.00  0.00    +0.000 N 
ATOM     26  C   UNL     1      47.408   4.004  17.291  0.00  0.00    +0.000 A 
ATOM     27  O   UNL     1      46.464   3.251  17.090  0.00  0.00    +0.000 OA
ATOM     28  C   UNL     1      47.888   4.986  16.340  0.00  0.00    +0.000 A 
ATOM     33  H   UNL     1      47.750   3.333  19.174  0.00  0.00    +0.000 HD
ENDBRANCH  17  19
ENDBRANCH  15  16
ENDBRANCH  14  15
TORSDOF 12
ENDMDL
MODEL 5
REMARK VINA RESULT:    -6.529      4.592     10.302
REMARK INTER + INTRA:         -12.671
REMARK INTER:                 -10.054
REMARK INTRA:                  -2.617
REMARK UNBOUND:                -1.562
REMARK  Name = 
REMARK  13 active torsions:
REMARK  status: ('A' for Active; 'I' for Inactive)
REMARK    1  A    between atoms: C_1  and  C_2
REMARK    2  A    between atoms: C_2  and  C_3
REMARK    3  A    between atoms: C_3  and  C_4
REMARK    4  A    between atoms: C_4  and  C_5
REMARK    5  A    between atoms: C_5  and  C_6
REMARK    6  A    between atoms: C_6  and  C_7
REMARK    7  A    between atoms: C_7  and  C_8
REMARK    8  A    between atoms: C_8  and  N_9
REMARK    9  A    between atoms: N_9  and  C_10
REMARK   10  A    between atoms: C_10  and  C_11
REMARK   11  A    between atoms: C_14  and  C_15
REMARK   12  A    between atoms: C_15  and  N_16
REMARK   13  A    between atoms: C_17  and  C_19
REMARK                            x       y       z     vdW  Elec       q    Type
REMARK                         _______ _______ _______ _____ _____    ______ ____
ROOT
ATOM     11  C   UNL     1      51.394   4.307  17.809  0.00  0.00    +0.000 A 
ATOM     12  C   UNL     1      50.546   5.352  17.419  0.00  0.00    +0.000 A 
ATOM     13  C   UNL     1      49.235   5.094  17.023  0.00  0.00    +0.000 A 
ATOM     14  C   UNL     1      48.741   3.784  17.007  0.00  0.00    +0.000 A 
ATOM     29  C   UNL     1      49.604   2.735  17.356  0.00  0.00    +0.000 A 
ATOM     30  C   UNL     1      50.905   2.996  17.793  0.00  0.00    +0.000 A 
ENDROOT
BRANCH  11  10
ATOM     10  C   UNL     1      52.828   4.597  18.170  0.00  0.00    +0.000 C 
BRANCH  10   9
ATOM      9  N   UNL     1      53.096   4.291  19.570  0.00  0.00    +0.000 NA
ATOM     31  H   UNL     1      52.549   3.480  19.852  0.00  0.00    +0.000 HD
BRANCH   9   8
ATOM      8  C   UNL     1      52.744   5.423  20.411  0.00  0.00    +0.000 C 
BRANCH   8   7
ATOM      7  C   UNL     1      51.693   4.979  21.417  0.00  0.00    +0.000 C 
BRANCH   7   6
ATOM      6  C   UNL     1      50.369   5.656  21.102  0.00  0.00    +0.000 C 
BRANCH   6   5
ATOM      5  C   UNL     1      49.270   4.622  20.929  0.00  0.00    +0.000 C 
BRANCH   5   4
ATOM      4  C   UNL     1      47.982   5.300  20.486  0.00  0.00    +0.000 C 
BRANCH   4   3
ATOM      3  C   UNL     1      48.150   6.811  20.516  0.00  0.00    +0.000 C 
BRANCH   3   2
ATOM      1  C   UNL     1      47.528   8.952  19.392  0.00  0.00    +0.000 C 
ATOM      2  C   UNL     1      47.552   7.441  19.264  0.00  0.00    +0.000 C 
ENDBRANCH   3   2
ENDBRANCH   4   3
ENDBRANCH   5   4
ENDBRANCH   6   5
ENDBRANCH   7   6
ENDBRANCH   8   7
ENDBRANCH   9   8
ENDBRANCH  10   9
ENDBRANCH  11  10
BRANCH  14  15
ATOM     15  C   UNL     1      47.294   3.516  16.675  0.00  0.00    +0.000 C 
BRANCH  15  16
ATOM     16  N   UNL     1      46.753   4.446  15.716  0.00  0.00    +0.000 N 
ATOM     17  C   UNL     1      46.758   4.175  14.365  0.00  0.00    +0.000 C 
ATOM     18  O   UNL     1      47.192   3.120  13.906  0.00  0.00    +0.000 OA
ATOM     32  H   UNL     1      46.542   5.380  16.044  0.00  0.00    +0.000 HD
BRANCH  17  19
ATOM     19  C   UNL     1      46.171   5.210  13.506  0.00  0.00    +0.000 A 
ATOM     20  C   UNL     1      46.856   6.393  13.270  0.00  0.00    +0.000 A 
ATOM     21  S   UNL     1      46.026   7.470  12.237  0.00  0.00    +0.000 S 
ATOM     22  C   UNL     1      44.704   6.406  12.098  0.00  0.00    +0.000 A 
ATOM     23  N   UNL     1      43.612   6.734  11.354  0.00  0.00    +0.000 NA
ATOM     24  C   UNL     1      42.695   5.827  11.333  0.00  0.00    +0.000 A 
ATOM     25  N   UNL     1      42.764   4.625  11.981  0.00  0.00    +0.000 N 
ATOM     26  C   UNL     1      43.844   4.252  12.750  0.00  0.00    +0.000 A 
ATOM     27  O   UNL     1      43.883   3.160  13.302  0.00  0.00    +0.000 OA
ATOM     28  C   UNL     1      44.908   5.235  12.807  0.00  0.00    +0.000 A 
ATOM     33  H   UNL     1      42.023   3.945  11.913  0.00  0.00    +0.000 HD
ENDBRANCH  17  19
ENDBRANCH  15  16
ENDBRANCH  14  15
TORSDOF 12
ENDMDL
MODEL 6
REMARK VINA RESULT:    -6.288      3.153      4.303
REMARK INTER + INTRA:         -12.261
REMARK INTER:                 -10.903
REMARK INTRA:                  -1.358
REMARK UNBOUND:                -1.562
REMARK  Name = 
REMARK  13 active torsions:
REMARK  status: ('A' for Active; 'I' for Inactive)
REMARK    1  A    between atoms: C_1  and  C_2
REMARK    2  A    between atoms: C_2  and  C_3
REMARK    3  A    between atoms: C_3  and  C_4
REMARK    4  A    between atoms: C_4  and  C_5
REMARK    5  A    between atoms: C_5  and  C_6
REMARK    6  A    between atoms: C_6  and  C_7
REMARK    7  A    between atoms: C_7  and  C_8
REMARK    8  A    between atoms: C_8  and  N_9
REMARK    9  A    between atoms: N_9  and  C_10
REMARK   10  A    between atoms: C_10  and  C_11
REMARK   11  A    between atoms: C_14  and  C_15
REMARK   12  A    between atoms: C_15  and  N_16
REMARK   13  A    between atoms: C_17  and  C_19
REMARK                            x       y       z     vdW  Elec       q    Type
REMARK                         _______ _______ _______ _____ _____    ______ ____
ROOT
ATOM     11  C   UNL     1      46.930   4.948  14.140  0.00  0.00    +0.000 A 
ATOM     12  C   UNL     1      47.011   4.196  15.319  0.00  0.00    +0.000 A 
ATOM     13  C   UNL     1      47.825   4.610  16.373  0.00  0.00    +0.000 A 
ATOM     14  C   UNL     1      48.576   5.786  16.272  0.00  0.00    +0.000 A 
ATOM     29  C   UNL     1      48.529   6.515  15.074  0.00  0.00    +0.000 A 
ATOM     30  C   UNL     1      47.681   6.124  14.034  0.00  0.00    +0.000 A 
ENDROOT
BRANCH  11  10
ATOM     10  C   UNL     1      46.098   4.450  12.987  0.00  0.00    +0.000 C 
BRANCH  10   9
ATOM      9  N   UNL     1      44.688   4.360  13.350  0.00  0.00    +0.000 NA
ATOM     31  H   UNL     1      44.543   3.556  13.957  0.00  0.00    +0.000 HD
BRANCH   9   8
ATOM      8  C   UNL     1      43.869   4.214  12.158  0.00  0.00    +0.000 C 
BRANCH   8   7
ATOM      7  C   UNL     1      44.685   4.639  10.946  0.00  0.00    +0.000 C 
BRANCH   7   6
ATOM      6  C   UNL     1      43.938   4.272   9.675  0.00  0.00    +0.000 C 
BRANCH   6   5
ATOM      5  C   UNL     1      44.884   3.647   8.664  0.00  0.00    +0.000 C 
BRANCH   5   4
ATOM      4  C   UNL     1      45.143   2.191   9.024  0.00  0.00    +0.000 C 
BRANCH   4   3
ATOM      3  C   UNL     1      46.226   1.614   8.127  0.00  0.00    +0.000 C 
BRANCH   3   2
ATOM      1  C   UNL     1      48.078   2.351   6.623  0.00  0.00    +0.000 C 
ATOM      2  C   UNL     1      46.663   2.638   7.088  0.00  0.00    +0.000 C 
ENDBRANCH   3   2
ENDBRANCH   4   3
ENDBRANCH   5   4
ENDBRANCH   6   5
ENDBRANCH   7   6
ENDBRANCH   8   7
ENDBRANCH   9   8
ENDBRANCH  10   9
ENDBRANCH  11  10
BRANCH  14  15
ATOM     15  C   UNL     1      49.378   6.286  17.448  0.00  0.00    +0.000 C 
BRANCH  15  16
ATOM     16  N   UNL     1      50.376   5.346  17.892  0.00  0.00    +0.000 N 
ATOM     17  C   UNL     1      51.645   5.331  17.355  0.00  0.00    +0.000 C 
ATOM     18  O   UNL     1      52.005   6.134  16.495  0.00  0.00    +0.000 OA
ATOM     32  H   UNL     1      50.063   4.577  18.471  0.00  0.00    +0.000 HD
BRANCH  17  19
ATOM     19  C   UNL     1      52.558   4.323  17.904  0.00  0.00    +0.000 A 
ATOM     20  C   UNL     1      53.730   4.712  18.536  0.00  0.00    +0.000 A 
ATOM     21  S   UNL     1      54.659   3.405  19.122  0.00  0.00    +0.000 S 
ATOM     22  C   UNL     1      53.543   2.269  18.520  0.00  0.00    +0.000 A 
ATOM     23  N   UNL     1      53.750   0.932  18.667  0.00  0.00    +0.000 NA
ATOM     24  C   UNL     1      52.816   0.194  18.170  0.00  0.00    +0.000 A 
ATOM     25  N   UNL     1      51.696   0.662  17.541  0.00  0.00    +0.000 N 
ATOM     26  C   UNL     1      51.446   2.005  17.361  0.00  0.00    +0.000 A 
ATOM     27  O   UNL     1      50.424   2.391  16.810  0.00  0.00    +0.000 OA
ATOM     28  C   UNL     1      52.464   2.882  17.905  0.00  0.00    +0.000 A 
ATOM     33  H   UNL     1      50.989   0.037  17.187  0.00  0.00    +0.000 HD
ENDBRANCH  17  19
ENDBRANCH  15  16
ENDBRANCH  14  15
TORSDOF 12
ENDMDL
MODEL 7
REMARK VINA RESULT:    -6.242      1.830      2.989
REMARK INTER + INTRA:         -12.183
REMARK INTER:                 -10.187
REMARK INTRA:                  -1.996
REMARK UNBOUND:                -1.562
REMARK  Name = 
REMARK  13 active torsions:
REMARK  status: ('A' for Active; 'I' for Inactive)
REMARK    1  A    between atoms: C_1  and  C_2
REMARK    2  A    between atoms: C_2  and  C_3
REMARK    3  A    between atoms: C_3  and  C_4
REMARK    4  A    between atoms: C_4  and  C_5
REMARK    5  A    between atoms: C_5  and  C_6
REMARK    6  A    between atoms: C_6  and  C_7
REMARK    7  A    between atoms: C_7  and  C_8
REMARK    8  A    between atoms: C_8  and  N_9
REMARK    9  A    between atoms: N_9  and  C_10
REMARK   10  A    between atoms: C_10  and  C_11
REMARK   11  A    between atoms: C_14  and  C_15
REMARK   12  A    between atoms: C_15  and  N_16
REMARK   13  A    between atoms: C_17  and  C_19
REMARK                            x       y       z     vdW  Elec       q    Type
REMARK                         _______ _______ _______ _____ _____    ______ ____
ROOT
ATOM     11  C   UNL     1      45.271   7.215  11.691  0.00  0.00    +0.000 A 
ATOM     12  C   UNL     1      46.423   6.483  11.376  0.00  0.00    +0.000 A 
ATOM     13  C   UNL     1      47.646   6.787  11.972  0.00  0.00    +0.000 A 
ATOM     14  C   UNL     1      47.745   7.832  12.898  0.00  0.00    +0.000 A 
ATOM     29  C   UNL     1      46.601   8.593  13.179  0.00  0.00    +0.000 A 
ATOM     30  C   UNL     1      45.366   8.262  12.615  0.00  0.00    +0.000 A 
ENDROOT
BRANCH  11  10
ATOM     10  C   UNL     1      43.973   6.915  10.987  0.00  0.00    +0.000 C 
BRANCH  10   9
ATOM      9  N   UNL     1      42.942   6.498  11.930  0.00  0.00    +0.000 NA
ATOM     31  H   UNL     1      42.921   7.141  12.718  0.00  0.00    +0.000 HD
BRANCH   9   8
ATOM      8  C   UNL     1      43.213   5.155  12.414  0.00  0.00    +0.000 C 
BRANCH   8   7
ATOM      7  C   UNL     1      43.149   4.188  11.240  0.00  0.00    +0.000 C 
BRANCH   7   6
ATOM      6  C   UNL     1      44.306   3.206  11.326  0.00  0.00    +0.000 C 
BRANCH   6   5
ATOM      5  C   UNL     1      44.736   2.769   9.936  0.00  0.00    +0.000 C 
BRANCH   5   4
ATOM      4  C   UNL     1      44.754   3.966   8.996  0.00  0.00    +0.000 C 
BRANCH   4   3
ATOM      3  C   UNL     1      45.506   3.619   7.722  0.00  0.00    +0.000 C 
BRANCH   3   2
ATOM      1  C   UNL     1      47.531   2.325   7.043  0.00  0.00    +0.000 C 
ATOM      2  C   UNL     1      46.272   2.313   7.889  0.00  0.00    +0.000 C 
ENDBRANCH   3   2
ENDBRANCH   4   3
ENDBRANCH   5   4
ENDBRANCH   6   5
ENDBRANCH   7   6
ENDBRANCH   8   7
ENDBRANCH   9   8
ENDBRANCH  10   9
ENDBRANCH  11  10
BRANCH  14  15
ATOM     15  C   UNL     1      49.045   8.097  13.616  0.00  0.00    +0.000 C 
BRANCH  15  16
ATOM     16  N   UNL     1      49.221   7.275  14.786  0.00  0.00    +0.000 N 
ATOM     17  C   UNL     1      48.847   7.710  16.038  0.00  0.00    +0.000 C 
ATOM     18  O   UNL     1      48.315   8.804  16.224  0.00  0.00    +0.000 OA
ATOM     32  H   UNL     1      49.799   6.449  14.689  0.00  0.00    +0.000 HD
BRANCH  17  19
ATOM     19  C   UNL     1      49.081   6.767  17.138  0.00  0.00    +0.000 A 
ATOM     20  C   UNL     1      49.848   7.144  18.230  0.00  0.00    +0.000 A 
ATOM     21  S   UNL     1      50.001   5.923  19.414  0.00  0.00    +0.000 S 
ATOM     22  C   UNL     1      49.075   4.833  18.490  0.00  0.00    +0.000 A 
ATOM     23  N   UNL     1      48.834   3.567  18.927  0.00  0.00    +0.000 NA
ATOM     24  C   UNL     1      48.111   2.860  18.127  0.00  0.00    +0.000 A 
ATOM     25  N   UNL     1      47.605   3.295  16.934  0.00  0.00    +0.000 N 
ATOM     26  C   UNL     1      47.827   4.564  16.446  0.00  0.00    +0.000 A 
ATOM     27  O   UNL     1      47.344   4.928  15.382  0.00  0.00    +0.000 OA
ATOM     28  C   UNL     1      48.634   5.404  17.308  0.00  0.00    +0.000 A 
ATOM     33  H   UNL     1      47.028   2.702  16.357  0.00  0.00    +0.000 HD
ENDBRANCH  17  19
ENDBRANCH  15  16
ENDBRANCH  14  15
TORSDOF 12
ENDMDL
MODEL 8
REMARK VINA RESULT:    -6.039      2.483      4.116
REMARK INTER + INTRA:         -11.838
REMARK INTER:                 -10.657
REMARK INTRA:                  -1.181
REMARK UNBOUND:                -1.562
REMARK  Name = 
REMARK  13 active torsions:
REMARK  status: ('A' for Active; 'I' for Inactive)
REMARK    1  A    between atoms: C_1  and  C_2
REMARK    2  A    between atoms: C_2  and  C_3
REMARK    3  A    between atoms: C_3  and  C_4
REMARK    4  A    between atoms: C_4  and  C_5
REMARK    5  A    between atoms: C_5  and  C_6
REMARK    6  A    between atoms: C_6  and  C_7
REMARK    7  A    between atoms: C_7  and  C_8
REMARK    8  A    between atoms: C_8  and  N_9
REMARK    9  A    between atoms: N_9  and  C_10
REMARK   10  A    between atoms: C_10  and  C_11
REMARK   11  A    between atoms: C_14  and  C_15
REMARK   12  A    between atoms: C_15  and  N_16
REMARK   13  A    between atoms: C_17  and  C_19
REMARK                            x       y       z     vdW  Elec       q    Type
REMARK                         _______ _______ _______ _____ _____    ______ ____
ROOT
ATOM     11  C   UNL     1      44.995   3.679   9.372  0.00  0.00    +0.000 A 
ATOM     12  C   UNL     1      44.731   2.949  10.539  0.00  0.00    +0.000 A 
ATOM     13  C   UNL     1      44.780   3.563  11.789  0.00  0.00    +0.000 A 
ATOM     14  C   UNL     1      45.094   4.922  11.903  0.00  0.00    +0.000 A 
ATOM     29  C   UNL     1      45.402   5.642  10.738  0.00  0.00    +0.000 A 
ATOM     30  C   UNL     1      45.312   5.037   9.481  0.00  0.00    +0.000 A 
ENDROOT
BRANCH  11  10
ATOM     10  C   UNL     1      45.003   2.983   8.036  0.00  0.00    +0.000 C 
BRANCH  10   9
ATOM      9  N   UNL     1      46.296   2.364   7.769  0.00  0.00    +0.000 NA
ATOM     31  H   UNL     1      46.808   2.252   8.641  0.00  0.00    +0.000 HD
BRANCH   9   8
ATOM      8  C   UNL     1      47.073   3.191   6.859  0.00  0.00    +0.000 C 
BRANCH   8   7
ATOM      7  C   UNL     1      46.954   2.620   5.454  0.00  0.00    +0.000 C 
BRANCH   7   6
ATOM      6  C   UNL     1      47.678   1.285   5.384  0.00  0.00    +0.000 C 
BRANCH   6   5
ATOM      5  C   UNL     1      46.977   0.350   4.414  0.00  0.00    +0.000 C 
BRANCH   5   4
ATOM      4  C   UNL     1      46.160   1.154   3.414  0.00  0.00    +0.000 C 
BRANCH   4   3
ATOM      3  C   UNL     1      45.560   0.231   2.366  0.00  0.00    +0.000 C 
BRANCH   3   2
ATOM      1  C   UNL     1      45.762  -2.258   2.367  0.00  0.00    +0.000 C 
ATOM      2  C   UNL     1      46.483  -0.950   2.100  0.00  0.00    +0.000 C 
ENDBRANCH   3   2
ENDBRANCH   4   3
ENDBRANCH   5   4
ENDBRANCH   6   5
ENDBRANCH   7   6
ENDBRANCH   8   7
ENDBRANCH   9   8
ENDBRANCH  10   9
ENDBRANCH  11  10
BRANCH  14  15
ATOM     15  C   UNL     1      45.050   5.609  13.245  0.00  0.00    +0.000 C 
BRANCH  15  16
ATOM     16  N   UNL     1      46.260   6.327  13.553  0.00  0.00    +0.000 N 
ATOM     17  C   UNL     1      47.371   5.689  14.060  0.00  0.00    +0.000 C 
ATOM     18  O   UNL     1      47.403   4.474  14.247  0.00  0.00    +0.000 OA
ATOM     32  H   UNL     1      46.209   7.339  13.564  0.00  0.00    +0.000 HD
BRANCH  17  19
ATOM     19  C   UNL     1      48.533   6.544  14.322  0.00  0.00    +0.000 A 
ATOM     20  C   UNL     1      49.096   6.588  15.590  0.00  0.00    +0.000 A 
ATOM     21  S   UNL     1      50.447   7.627  15.703  0.00  0.00    +0.000 S 
ATOM     22  C   UNL     1      50.305   8.081  14.068  0.00  0.00    +0.000 A 
ATOM     23  N   UNL     1      51.160   8.983  13.512  0.00  0.00    +0.000 NA
ATOM     24  C   UNL     1      50.937   9.222  12.264  0.00  0.00    +0.000 A 
ATOM     25  N   UNL     1      49.945   8.647  11.519  0.00  0.00    +0.000 N 
ATOM     26  C   UNL     1      49.052   7.737  12.039  0.00  0.00    +0.000 A 
ATOM     27  O   UNL     1      48.187   7.227  11.340  0.00  0.00    +0.000 OA
ATOM     28  C   UNL     1      49.258   7.428  13.440  0.00  0.00    +0.000 A 
ATOM     33  H   UNL     1      49.830   8.859  10.540  0.00  0.00    +0.000 HD
ENDBRANCH  17  19
ENDBRANCH  15  16
ENDBRANCH  14  15
TORSDOF 12
ENDMDL
MODEL 9
REMARK VINA RESULT:    -6.033      4.235      9.833
REMARK INTER + INTRA:         -11.828
REMARK INTER:                  -9.044
REMARK INTRA:                  -2.784
REMARK UNBOUND:                -1.562
REMARK  Name = 
REMARK  13 active torsions:
REMARK  status: ('A' for Active; 'I' for Inactive)
REMARK    1  A    between atoms: C_1  and  C_2
REMARK    2  A    between atoms: C_2  and  C_3
REMARK    3  A    between atoms: C_3  and  C_4
REMARK    4  A    between atoms: C_4  and  C_5
REMARK    5  A    between atoms: C_5  and  C_6
REMARK    6  A    between atoms: C_6  and  C_7
REMARK    7  A    between atoms: C_7  and  C_8
REMARK    8  A    between atoms: C_8  and  N_9
REMARK    9  A    between atoms: N_9  and  C_10
REMARK   10  A    between atoms: C_10  and  C_11
REMARK   11  A    between atoms: C_14  and  C_15
REMARK   12  A    between atoms: C_15  and  N_16
REMARK   13  A    between atoms: C_17  and  C_19
REMARK                            x       y       z     vdW  Elec       q    Type
REMARK                         _______ _______ _______ _____ _____    ______ ____
ROOT
ATOM     11  C   UNL     1      50.420   5.171  17.350  0.00  0.00    +0.000 A 
ATOM     12  C   UNL     1      51.147   6.178  16.700  0.00  0.00    +0.000 A 
ATOM     13  C   UNL     1      50.513   7.068  15.834  0.00  0.00    +0.000 A 
ATOM     14  C   UNL     1      49.136   6.972  15.598  0.00  0.00    +0.000 A 
ATOM     29  C   UNL     1      48.418   5.936  16.214  0.00  0.00    +0.000 A 
ATOM     30  C   UNL     1      49.045   5.070  17.115  0.00  0.00    +0.000 A 
ENDROOT
BRANCH  11  10
ATOM     10  C   UNL     1      51.134   4.177  18.228  0.00  0.00    +0.000 C 
BRANCH  10   9
ATOM      9  N   UNL     1      50.505   4.081  19.540  0.00  0.00    +0.000 NA
ATOM     31  H   UNL     1      49.512   4.286  19.458  0.00  0.00    +0.000 HD
BRANCH   9   8
ATOM      8  C   UNL     1      51.114   5.025  20.463  0.00  0.00    +0.000 C 
BRANCH   8   7
ATOM      7  C   UNL     1      50.039   5.564  21.394  0.00  0.00    +0.000 C 
BRANCH   7   6
ATOM      6  C   UNL     1      48.727   4.844  21.127  0.00  0.00    +0.000 C 
BRANCH   6   5
ATOM      5  C   UNL     1      47.569   5.827  21.139  0.00  0.00    +0.000 C 
BRANCH   5   4
ATOM      4  C   UNL     1      47.446   6.502  19.781  0.00  0.00    +0.000 C 
BRANCH   4   3
ATOM      3  C   UNL     1      47.462   8.014  19.944  0.00  0.00    +0.000 C 
BRANCH   3   2
ATOM      1  C   UNL     1      49.783   8.506  19.164  0.00  0.00    +0.000 C 
ATOM      2  C   UNL     1      48.306   8.661  18.854  0.00  0.00    +0.000 C 
ENDBRANCH   3   2
ENDBRANCH   4   3
ENDBRANCH   5   4
ENDBRANCH   6   5
ENDBRANCH   7   6
ENDBRANCH   8   7
ENDBRANCH   9   8
ENDBRANCH  10   9
ENDBRANCH  11  10
BRANCH  14  15
ATOM     15  C   UNL     1      48.434   7.995  14.740  0.00  0.00    +0.000 C 
BRANCH  15  16
ATOM     16  N   UNL     1      47.220   7.496  14.146  0.00  0.00    +0.000 N 
ATOM     17  C   UNL     1      47.208   6.941  12.885  0.00  0.00    +0.000 C 
ATOM     18  O   UNL     1      48.229   6.811  12.213  0.00  0.00    +0.000 OA
ATOM     32  H   UNL     1      46.348   7.736  14.602  0.00  0.00    +0.000 HD
BRANCH  17  19
ATOM     19  C   UNL     1      45.902   6.471  12.408  0.00  0.00    +0.000 A 
ATOM     20  C   UNL     1      45.006   7.361  11.834  0.00  0.00    +0.000 A 
ATOM     21  S   UNL     1      43.547   6.633  11.328  0.00  0.00    +0.000 S 
ATOM     22  C   UNL     1      44.047   5.106  11.892  0.00  0.00    +0.000 A 
ATOM     23  N   UNL     1      43.239   4.017  11.784  0.00  0.00    +0.000 NA
ATOM     24  C   UNL     1      43.755   2.928  12.245  0.00  0.00    +0.000 A 
ATOM     25  N   UNL     1      45.000   2.823  12.801  0.00  0.00    +0.000 N 
ATOM     26  C   UNL     1      45.850   3.898  12.939  0.00  0.00    +0.000 A 
ATOM     27  O   UNL     1      46.966   3.766  13.424  0.00  0.00    +0.000 OA
ATOM     28  C   UNL     1      45.321   5.149  12.433  0.00  0.00    +0.000 A 
ATOM     33  H   UNL     1      45.359   1.939  13.129  0.00  0.00    +0.000 HD
ENDBRANCH  17  19
ENDBRANCH  15  16
ENDBRANCH  14  15
TORSDOF 12
ENDMDL
