MODEL 1
REMARK VINA RESULT:    -6.793      0.000      0.000
REMARK INTER + INTRA:         -14.567
REMARK INTER:                 -12.749
REMARK INTRA:                  -1.818
REMARK UNBOUND:                -1.818
REMARK  Name = 
REMARK  17 active torsions:
REMARK  status: ('A' for Active; 'I' for Inactive)
REMARK    1  A    between atoms: C_1  and  C_2
REMARK    2  A    between atoms: C_2  and  C_3
REMARK    3  A    between atoms: C_3  and  C_4
REMARK    4  A    between atoms: C_4  and  C_5
REMARK    5  A    between atoms: C_5  and  C_6
REMARK    6  A    between atoms: C_6  and  C_7
REMARK    7  A    between atoms: C_7  and  C_8
REMARK    8  A    between atoms: C_8  and  N_9
REMARK    9  A    between atoms: N_9  and  C_10
REMARK   10  A    between atoms: C_10  and  C_11
REMARK   11  A    between atoms: C_14  and  C_15
REMARK   12  A    between atoms: C_15  and  N_16
REMARK   13  A    between atoms: C_17  and  C_19
REMARK   14  A    between atoms: C_26  and  O_27
REMARK   15  A    between atoms: O_27  and  C_28
REMARK   16  A    between atoms: C_28  and  C_29
REMARK   17  A    between atoms: C_29  and  C_30
REMARK                            x       y       z     vdW  Elec       q    Type
REMARK                         _______ _______ _______ _____ _____    ______ ____
ROOT
ATOM     15  C   UNL     1      48.421   6.643  13.350  0.00  0.00    +0.000 C 
ENDROOT
BRANCH  15  14
ATOM     11  C   UNL     1      44.692   5.096  11.772  0.00  0.00    +0.000 A 
ATOM     12  C   UNL     1      45.460   6.013  11.038  0.00  0.00    +0.000 A 
ATOM     13  C   UNL     1      46.667   6.503  11.544  0.00  0.00    +0.000 A 
ATOM     14  C   UNL     1      47.132   6.092  12.798  0.00  0.00    +0.000 A 
ATOM     32  C   UNL     1      46.356   5.194  13.543  0.00  0.00    +0.000 A 
ATOM     33  C   UNL     1      45.152   4.697  13.034  0.00  0.00    +0.000 A 
BRANCH  11  10
ATOM     10  C   UNL     1      43.387   4.566  11.219  0.00  0.00    +0.000 C 
BRANCH  10   9
ATOM      9  N   UNL     1      43.589   3.898   9.935  0.00  0.00    +0.000 NA
ATOM     34  H   UNL     1      42.692   3.783   9.468  0.00  0.00    +0.000 HD
BRANCH   9   8
ATOM      8  C   UNL     1      44.214   2.592  10.111  0.00  0.00    +0.000 C 
BRANCH   8   7
ATOM      7  C   UNL     1      45.262   2.387   9.017  0.00  0.00    +0.000 C 
BRANCH   7   6
ATOM      6  C   UNL     1      45.306   3.591   8.081  0.00  0.00    +0.000 C 
BRANCH   6   5
ATOM      5  C   UNL     1      46.230   3.334   6.894  0.00  0.00    +0.000 C 
BRANCH   5   4
ATOM      4  C   UNL     1      47.214   2.210   7.207  0.00  0.00    +0.000 C 
BRANCH   4   3
ATOM      3  C   UNL     1      47.749   1.575   5.926  0.00  0.00    +0.000 C 
BRANCH   3   2
ATOM      1  C   UNL     1      46.656   0.892   3.769  0.00  0.00    +0.000 C 
ATOM      2  C   UNL     1      46.962   2.048   4.707  0.00  0.00    +0.000 C 
ENDBRANCH   3   2
ENDBRANCH   4   3
ENDBRANCH   5   4
ENDBRANCH   6   5
ENDBRANCH   7   6
ENDBRANCH   8   7
ENDBRANCH   9   8
ENDBRANCH  10   9
ENDBRANCH  11  10
ENDBRANCH  15  14
BRANCH  15  16
ATOM     16  N   UNL     1      48.196   7.361  14.579  0.00  0.00    +0.000 N 
ATOM     17  C   UNL     1      48.998   7.176  15.677  0.00  0.00    +0.000 C 
ATOM     18  O   UNL     1      50.009   6.481  15.636  0.00  0.00    +0.000 OA
ATOM     35  H   UNL     1      47.308   7.831  14.689  0.00  0.00    +0.000 HD
BRANCH  17  19
ATOM     19  C   UNL     1      48.618   7.911  16.891  0.00  0.00    +0.000 A 
ATOM     20  C   UNL     1      48.665   9.297  16.897  0.00  0.00    +0.000 A 
ATOM     21  S   UNL     1      48.122   9.988  18.356  0.00  0.00    +0.000 S 
ATOM     22  C   UNL     1      47.872   8.454  19.047  0.00  0.00    +0.000 A 
ATOM     23  N   UNL     1      47.415   8.352  20.308  0.00  0.00    +0.000 NA
ATOM     24  C   UNL     1      47.307   7.087  20.713  0.00  0.00    +0.000 A 
ATOM     25  N   UNL     1      47.595   5.983  20.014  0.00  0.00    +0.000 NA
ATOM     26  C   UNL     1      48.026   6.137  18.748  0.00  0.00    +0.000 A 
ATOM     31  C   UNL     1      48.186   7.412  18.187  0.00  0.00    +0.000 A 
BRANCH  26  27
ATOM     27  O   UNL     1      48.383   5.023  18.024  0.00  0.00    +0.000 OA
BRANCH  27  28
ATOM     28  C   UNL     1      47.313   4.353  17.356  0.00  0.00    +0.000 C 
BRANCH  28  29
ATOM     29  C   UNL     1      47.589   2.856  17.391  0.00  0.00    +0.000 C 
ATOM     30  C   UNL     1      49.027   2.547  17.019  0.00  0.00    +0.000 C 
ENDBRANCH  28  29
ENDBRANCH  27  28
ENDBRANCH  26  27
ENDBRANCH  17  19
ENDBRANCH  15  16
TORSDOF 15
ENDMDL
MODEL 2
REMARK VINA RESULT:    -6.650      3.217      6.112
REMARK INTER + INTRA:         -14.299
REMARK INTER:                 -12.851
REMARK INTRA:                  -1.448
REMARK UNBOUND:                -1.818
REMARK  Name = 
REMARK  17 active torsions:
REMARK  status: ('A' for Active; 'I' for Inactive)
REMARK    1  A    between atoms: C_1  and  C_2
REMARK    2  A    between atoms: C_2  and  C_3
REMARK    3  A    between atoms: C_3  and  C_4
REMARK    4  A    between atoms: C_4  and  C_5
REMARK    5  A    between atoms: C_5  and  C_6
REMARK    6  A    between atoms: C_6  and  C_7
REMARK    7  A    between atoms: C_7  and  C_8
REMARK    8  A    between atoms: C_8  and  N_9
REMARK    9  A    between atoms: N_9  and  C_10
REMARK   10  A    between atoms: C_10  and  C_11
REMARK   11  A    between atoms: C_14  and  C_15
REMARK   12  A    between atoms: C_15  and  N_16
REMARK   13  A    between atoms: C_17  and  C_19
REMARK   14  A    between atoms: C_26  and  O_27
REMARK   15  A    between atoms: O_27  and  C_28
REMARK   16  A    between atoms: C_28  and  C_29
REMARK   17  A    between atoms: C_29  and  C_30
REMARK                            x       y       z     vdW  Elec       q    Type
REMARK                         _______ _______ _______ _____ _____    ______ ____
ROOT
ATOM     15  C   UNL     1      43.991   4.371   9.799  0.00  0.00    +0.000 C 
ENDROOT
BRANCH  15  14
ATOM     11  C   UNL     1      46.727   1.977   7.437  0.00  0.00    +0.000 A 
ATOM     12  C   UNL     1      45.887   1.382   8.390  0.00  0.00    +0.000 A 
ATOM     13  C   UNL     1      44.998   2.153   9.144  0.00  0.00    +0.000 A 
ATOM     14  C   UNL     1      44.933   3.540   8.966  0.00  0.00    +0.000 A 
ATOM     32  C   UNL     1      45.787   4.140   8.031  0.00  0.00    +0.000 A 
ATOM     33  C   UNL     1      46.671   3.367   7.271  0.00  0.00    +0.000 A 
BRANCH  11  10
ATOM     10  C   UNL     1      47.685   1.137   6.621  0.00  0.00    +0.000 C 
BRANCH  10   9
ATOM      9  N   UNL     1      48.129   1.849   5.425  0.00  0.00    +0.000 NA
ATOM     34  H   UNL     1      48.238   2.838   5.640  0.00  0.00    +0.000 HD
BRANCH   9   8
ATOM      8  C   UNL     1      47.174   1.693   4.333  0.00  0.00    +0.000 C 
BRANCH   8   7
ATOM      7  C   UNL     1      46.944   0.204   4.078  0.00  0.00    +0.000 C 
BRANCH   7   6
ATOM      6  C   UNL     1      46.157  -0.006   2.787  0.00  0.00    +0.000 C 
BRANCH   6   5
ATOM      5  C   UNL     1      46.017  -1.490   2.460  0.00  0.00    +0.000 C 
BRANCH   5   4
ATOM      4  C   UNL     1      46.905  -2.331   3.373  0.00  0.00    +0.000 C 
BRANCH   4   3
ATOM      3  C   UNL     1      46.380  -3.760   3.486  0.00  0.00    +0.000 C 
BRANCH   3   2
ATOM      1  C   UNL     1      47.856  -5.326   4.784  0.00  0.00    +0.000 C 
ATOM      2  C   UNL     1      46.691  -4.353   4.858  0.00  0.00    +0.000 C 
ENDBRANCH   3   2
ENDBRANCH   4   3
ENDBRANCH   5   4
ENDBRANCH   6   5
ENDBRANCH   7   6
ENDBRANCH   8   7
ENDBRANCH   9   8
ENDBRANCH  10   9
ENDBRANCH  11  10
ENDBRANCH  15  14
BRANCH  15  16
ATOM     16  N   UNL     1      44.652   5.542  10.317  0.00  0.00    +0.000 N 
ATOM     17  C   UNL     1      44.095   6.296  11.319  0.00  0.00    +0.000 C 
ATOM     18  O   UNL     1      43.070   5.952  11.902  0.00  0.00    +0.000 OA
ATOM     35  H   UNL     1      45.416   5.924   9.778  0.00  0.00    +0.000 HD
BRANCH  17  19
ATOM     19  C   UNL     1      44.831   7.507  11.707  0.00  0.00    +0.000 A 
ATOM     20  C   UNL     1      44.343   8.753  11.343  0.00  0.00    +0.000 A 
ATOM     21  S   UNL     1      45.277  10.048  11.936  0.00  0.00    +0.000 S 
ATOM     22  C   UNL     1      46.399   8.980  12.639  0.00  0.00    +0.000 A 
ATOM     23  N   UNL     1      47.466   9.466  13.300  0.00  0.00    +0.000 NA
ATOM     24  C   UNL     1      48.266   8.505  13.759  0.00  0.00    +0.000 A 
ATOM     25  N   UNL     1      48.106   7.183  13.627  0.00  0.00    +0.000 NA
ATOM     26  C   UNL     1      47.012   6.746  12.977  0.00  0.00    +0.000 A 
ATOM     31  C   UNL     1      46.079   7.645  12.441  0.00  0.00    +0.000 A 
BRANCH  26  27
ATOM     27  O   UNL     1      46.850   5.395  12.776  0.00  0.00    +0.000 OA
BRANCH  27  28
ATOM     28  C   UNL     1      46.101   4.707  13.779  0.00  0.00    +0.000 C 
BRANCH  28  29
ATOM     29  C   UNL     1      47.053   3.813  14.561  0.00  0.00    +0.000 C 
ATOM     30  C   UNL     1      47.310   4.358  15.954  0.00  0.00    +0.000 C 
ENDBRANCH  28  29
ENDBRANCH  27  28
ENDBRANCH  26  27
ENDBRANCH  17  19
ENDBRANCH  15  16
TORSDOF 15
ENDMDL
MODEL 3
REMARK VINA RESULT:    -6.468      2.689      3.421
REMARK INTER + INTRA:         -13.958
REMARK INTER:                 -11.064
REMARK INTRA:                  -2.894
REMARK UNBOUND:                -1.818
REMARK  Name = 
REMARK  17 active torsions:
REMARK  status: ('A' for Active; 'I' for Inactive)
REMARK    1  A    between atoms: C_1  and  C_2
REMARK    2  A    between atoms: C_2  and  C_3
REMARK    3  A    between atoms: C_3  and  C_4
REMARK    4  A    between atoms: C_4  and  C_5
REMARK    5  A    between atoms: C_5  and  C_6
REMARK    6  A    between atoms: C_6  and  C_7
REMARK    7  A    between atoms: C_7  and  C_8
REMARK    8  A    between atoms: C_8  and  N_9
REMARK    9  A    between atoms: N_9  and  C_10
REMARK   10  A    between atoms: C_10  and  C_11
REMARK   11  A    between atoms: C_14  and  C_15
REMARK   12  A    between atoms: C_15  and  N_16
REMARK   13  A    between atoms: C_17  and  C_19
REMARK   14  A    between atoms: C_26  and  O_27
REMARK   15  A    between atoms: O_27  and  C_28
REMARK   16  A    between atoms: C_28  and  C_29
REMARK   17  A    between atoms: C_29  and  C_30
REMARK                            x       y       z     vdW  Elec       q    Type
REMARK                         _______ _______ _______ _____ _____    ______ ____
ROOT
ATOM     15  C   UNL     1      49.466   8.344  12.852  0.00  0.00    +0.000 C 
ENDROOT
BRANCH  15  14
ATOM     11  C   UNL     1      45.427   7.052  11.950  0.00  0.00    +0.000 A 
ATOM     12  C   UNL     1      46.525   6.521  11.257  0.00  0.00    +0.000 A 
ATOM     13  C   UNL     1      47.828   6.931  11.556  0.00  0.00    +0.000 A 
ATOM     14  C   UNL     1      48.062   7.886  12.552  0.00  0.00    +0.000 A 
ATOM     32  C   UNL     1      46.965   8.435  13.230  0.00  0.00    +0.000 A 
ATOM     33  C   UNL     1      45.663   8.019  12.936  0.00  0.00    +0.000 A 
BRANCH  11  10
ATOM     10  C   UNL     1      44.020   6.603  11.625  0.00  0.00    +0.000 C 
BRANCH  10   9
ATOM      9  N   UNL     1      43.399   5.935  12.767  0.00  0.00    +0.000 NA
ATOM     34  H   UNL     1      43.924   6.150  13.612  0.00  0.00    +0.000 HD
BRANCH   9   8
ATOM      8  C   UNL     1      43.359   4.490  12.577  0.00  0.00    +0.000 C 
BRANCH   8   7
ATOM      7  C   UNL     1      43.380   4.181  11.079  0.00  0.00    +0.000 C 
BRANCH   7   6
ATOM      6  C   UNL     1      43.964   2.794  10.824  0.00  0.00    +0.000 C 
BRANCH   6   5
ATOM      5  C   UNL     1      44.691   2.740   9.483  0.00  0.00    +0.000 C 
BRANCH   5   4
ATOM      4  C   UNL     1      45.213   4.121   9.095  0.00  0.00    +0.000 C 
BRANCH   4   3
ATOM      3  C   UNL     1      46.002   4.063   7.789  0.00  0.00    +0.000 C 
BRANCH   3   2
ATOM      1  C   UNL     1      47.741   2.434   6.989  0.00  0.00    +0.000 C 
ATOM      2  C   UNL     1      46.284   2.620   7.380  0.00  0.00    +0.000 C 
ENDBRANCH   3   2
ENDBRANCH   4   3
ENDBRANCH   5   4
ENDBRANCH   6   5
ENDBRANCH   7   6
ENDBRANCH   8   7
ENDBRANCH   9   8
ENDBRANCH  10   9
ENDBRANCH  11  10
ENDBRANCH  15  14
BRANCH  15  16
ATOM     16  N   UNL     1      50.097   7.483  13.821  0.00  0.00    +0.000 N 
ATOM     17  C   UNL     1      50.288   7.883  15.119  0.00  0.00    +0.000 C 
ATOM     18  O   UNL     1      49.835   8.939  15.551  0.00  0.00    +0.000 OA
ATOM     35  H   UNL     1      50.595   6.676  13.474  0.00  0.00    +0.000 HD
BRANCH  17  19
ATOM     19  C   UNL     1      51.010   6.943  15.989  0.00  0.00    +0.000 A 
ATOM     20  C   UNL     1      52.353   7.154  16.261  0.00  0.00    +0.000 A 
ATOM     21  S   UNL     1      53.013   6.015  17.342  0.00  0.00    +0.000 S 
ATOM     22  C   UNL     1      51.541   5.167  17.425  0.00  0.00    +0.000 A 
ATOM     23  N   UNL     1      51.443   4.064  18.189  0.00  0.00    +0.000 NA
ATOM     24  C   UNL     1      50.239   3.497  18.118  0.00  0.00    +0.000 A 
ATOM     25  N   UNL     1      49.188   3.909  17.399  0.00  0.00    +0.000 NA
ATOM     26  C   UNL     1      49.328   5.031  16.669  0.00  0.00    +0.000 A 
ATOM     31  C   UNL     1      50.541   5.735  16.649  0.00  0.00    +0.000 A 
BRANCH  26  27
ATOM     27  O   UNL     1      48.285   5.446  15.876  0.00  0.00    +0.000 OA
BRANCH  27  28
ATOM     28  C   UNL     1      47.195   4.530  15.761  0.00  0.00    +0.000 C 
BRANCH  28  29
ATOM     29  C   UNL     1      46.549   4.721  14.396  0.00  0.00    +0.000 C 
ATOM     30  C   UNL     1      46.864   3.565  13.466  0.00  0.00    +0.000 C 
ENDBRANCH  28  29
ENDBRANCH  27  28
ENDBRANCH  26  27
ENDBRANCH  17  19
ENDBRANCH  15  16
TORSDOF 15
ENDMDL
MODEL 4
REMARK VINA RESULT:    -6.162      1.621      2.932
REMARK INTER + INTRA:         -13.383
REMARK INTER:                 -11.569
REMARK INTRA:                  -1.814
REMARK UNBOUND:                -1.818
REMARK  Name = 
REMARK  17 active torsions:
REMARK  status: ('A' for Active; 'I' for Inactive)
REMARK    1  A    between atoms: C_1  and  C_2
REMARK    2  A    between atoms: C_2  and  C_3
REMARK    3  A    between atoms: C_3  and  C_4
REMARK    4  A    between atoms: C_4  and  C_5
REMARK    5  A    between atoms: C_5  and  C_6
REMARK    6  A    between atoms: C_6  and  C_7
REMARK    7  A    between atoms: C_7  and  C_8
REMARK    8  A    between atoms: C_8  and  N_9
REMARK    9  A    between atoms: N_9  and  C_10
REMARK   10  A    between atoms: C_10  and  C_11
REMARK   11  A    between atoms: C_14  and  C_15
REMARK   12  A    between atoms: C_15  and  N_16
REMARK   13  A    between atoms: C_17  and  C_19
REMARK   14  A    between atoms: C_26  and  O_27
REMARK   15  A    between atoms: O_27  and  C_28
REMARK   16  A    between atoms: C_28  and  C_29
REMARK   17  A    between atoms: C_29  and  C_30
REMARK                            x       y       z     vdW  Elec       q    Type
REMARK                         _______ _______ _______ _____ _____    ______ ____
ROOT
ATOM     15  C   UNL     1      48.441   6.565  14.353  0.00  0.00    +0.000 C 
ENDROOT
BRANCH  15  14
ATOM     11  C   UNL     1      44.823   5.591  12.173  0.00  0.00    +0.000 A 
ATOM     12  C   UNL     1      45.529   6.774  11.906  0.00  0.00    +0.000 A 
ATOM     13  C   UNL     1      46.701   7.082  12.603  0.00  0.00    +0.000 A 
ATOM     14  C   UNL     1      47.192   6.216  13.587  0.00  0.00    +0.000 A 
ATOM     32  C   UNL     1      46.476   5.045  13.872  0.00  0.00    +0.000 A 
ATOM     33  C   UNL     1      45.307   4.734  13.169  0.00  0.00    +0.000 A 
BRANCH  11  10
ATOM     10  C   UNL     1      43.557   5.262  11.414  0.00  0.00    +0.000 C 
BRANCH  10   9
ATOM      9  N   UNL     1      43.842   4.960  10.013  0.00  0.00    +0.000 NA
ATOM     34  H   UNL     1      43.073   5.288   9.432  0.00  0.00    +0.000 HD
BRANCH   9   8
ATOM      8  C   UNL     1      44.027   3.527   9.809  0.00  0.00    +0.000 C 
BRANCH   8   7
ATOM      7  C   UNL     1      45.007   3.308   8.656  0.00  0.00    +0.000 C 
BRANCH   7   6
ATOM      6  C   UNL     1      45.654   1.929   8.755  0.00  0.00    +0.000 C 
BRANCH   6   5
ATOM      5  C   UNL     1      46.644   1.701   7.616  0.00  0.00    +0.000 C 
BRANCH   5   4
ATOM      4  C   UNL     1      46.959   3.012   6.902  0.00  0.00    +0.000 C 
BRANCH   4   3
ATOM      3  C   UNL     1      46.936   2.832   5.386  0.00  0.00    +0.000 C 
BRANCH   3   2
ATOM      1  C   UNL     1      46.689   0.875   3.828  0.00  0.00    +0.000 C 
ATOM      2  C   UNL     1      47.479   1.463   4.986  0.00  0.00    +0.000 C 
ENDBRANCH   3   2
ENDBRANCH   4   3
ENDBRANCH   5   4
ENDBRANCH   6   5
ENDBRANCH   7   6
ENDBRANCH   8   7
ENDBRANCH   9   8
ENDBRANCH  10   9
ENDBRANCH  11  10
ENDBRANCH  15  14
BRANCH  15  16
ATOM     16  N   UNL     1      48.207   6.525  15.775  0.00  0.00    +0.000 N 
ATOM     17  C   UNL     1      49.191   6.146  16.654  0.00  0.00    +0.000 C 
ATOM     18  O   UNL     1      50.344   5.933  16.290  0.00  0.00    +0.000 OA
ATOM     35  H   UNL     1      47.250   6.562  16.092  0.00  0.00    +0.000 HD
BRANCH  17  19
ATOM     19  C   UNL     1      48.804   6.075  18.070  0.00  0.00    +0.000 A 
ATOM     20  C   UNL     1      48.967   4.887  18.767  0.00  0.00    +0.000 A 
ATOM     21  S   UNL     1      48.540   5.001  20.411  0.00  0.00    +0.000 S 
ATOM     22  C   UNL     1      48.060   6.622  20.225  0.00  0.00    +0.000 A 
ATOM     23  N   UNL     1      47.579   7.306  21.279  0.00  0.00    +0.000 NA
ATOM     24  C   UNL     1      47.215   8.548  20.962  0.00  0.00    +0.000 A 
ATOM     25  N   UNL     1      47.287   9.133  19.761  0.00  0.00    +0.000 NA
ATOM     26  C   UNL     1      47.798   8.416  18.743  0.00  0.00    +0.000 A 
ATOM     31  C   UNL     1      48.224   7.093  18.931  0.00  0.00    +0.000 A 
BRANCH  26  27
ATOM     27  O   UNL     1      47.831   8.972  17.486  0.00  0.00    +0.000 OA
BRANCH  27  28
ATOM     28  C   UNL     1      48.597  10.171  17.361  0.00  0.00    +0.000 C 
BRANCH  28  29
ATOM     29  C   UNL     1      50.072   9.796  17.311  0.00  0.00    +0.000 C 
ATOM     30  C   UNL     1      50.898  10.667  18.238  0.00  0.00    +0.000 C 
ENDBRANCH  28  29
ENDBRANCH  27  28
ENDBRANCH  26  27
ENDBRANCH  17  19
ENDBRANCH  15  16
TORSDOF 15
ENDMDL
MODEL 5
REMARK VINA RESULT:    -5.826      2.422      2.901
REMARK INTER + INTRA:         -12.752
REMARK INTER:                 -11.170
REMARK INTRA:                  -1.582
REMARK UNBOUND:                -1.818
REMARK  Name = 
REMARK  17 active torsions:
REMARK  status: ('A' for Active; 'I' for Inactive)
REMARK    1  A    between atoms: C_1  and  C_2
REMARK    2  A    between atoms: C_2  and  C_3
REMARK    3  A    between atoms: C_3  and  C_4
REMARK    4  A    between atoms: C_4  and  C_5
REMARK    5  A    between atoms: C_5  and  C_6
REMARK    6  A    between atoms: C_6  and  C_7
REMARK    7  A    between atoms: C_7  and  C_8
REMARK    8  A    between atoms: C_8  and  N_9
REMARK    9  A    between atoms: N_9  and  C_10
REMARK   10  A    between atoms: C_10  and  C_11
REMARK   11  A    between atoms: C_14  and  C_15
REMARK   12  A    between atoms: C_15  and  N_16
REMARK   13  A    between atoms: C_17  and  C_19
REMARK   14  A    between atoms: C_26  and  O_27
REMARK   15  A    between atoms: O_27  and  C_28
REMARK   16  A    between atoms: C_28  and  C_29
REMARK   17  A    between atoms: C_29  and  C_30
REMARK                            x       y       z     vdW  Elec       q    Type
REMARK                         _______ _______ _______ _____ _____    ______ ____
ROOT
ATOM     15  C   UNL     1      48.337   8.082  13.567  0.00  0.00    +0.000 C 
ENDROOT
BRANCH  15  14
ATOM     11  C   UNL     1      45.001   5.375  12.988  0.00  0.00    +0.000 A 
ATOM     12  C   UNL     1      44.860   6.752  12.758  0.00  0.00    +0.000 A 
ATOM     13  C   UNL     1      45.939   7.622  12.935  0.00  0.00    +0.000 A 
ATOM     14  C   UNL     1      47.184   7.137  13.352  0.00  0.00    +0.000 A 
ATOM     32  C   UNL     1      47.322   5.765  13.604  0.00  0.00    +0.000 A 
ATOM     33  C   UNL     1      46.244   4.893  13.419  0.00  0.00    +0.000 A 
BRANCH  11  10
ATOM     10  C   UNL     1      43.831   4.436  12.791  0.00  0.00    +0.000 C 
BRANCH  10   9
ATOM      9  N   UNL     1      43.616   4.146  11.375  0.00  0.00    +0.000 NA
ATOM     34  H   UNL     1      42.620   4.039  11.198  0.00  0.00    +0.000 HD
BRANCH   9   8
ATOM      8  C   UNL     1      44.314   2.929  10.973  0.00  0.00    +0.000 C 
BRANCH   8   7
ATOM      7  C   UNL     1      44.465   2.917   9.452  0.00  0.00    +0.000 C 
BRANCH   7   6
ATOM      6  C   UNL     1      44.831   4.307   8.937  0.00  0.00    +0.000 C 
BRANCH   6   5
ATOM      5  C   UNL     1      46.068   4.257   8.045  0.00  0.00    +0.000 C 
BRANCH   5   4
ATOM      4  C   UNL     1      45.913   3.192   6.963  0.00  0.00    +0.000 C 
BRANCH   4   3
ATOM      3  C   UNL     1      47.256   2.868   6.313  0.00  0.00    +0.000 C 
BRANCH   3   2
ATOM      1  C   UNL     1      46.814   0.727   7.552  0.00  0.00    +0.000 C 
ATOM      2  C   UNL     1      47.876   1.616   6.926  0.00  0.00    +0.000 C 
ENDBRANCH   3   2
ENDBRANCH   4   3
ENDBRANCH   5   4
ENDBRANCH   6   5
ENDBRANCH   7   6
ENDBRANCH   8   7
ENDBRANCH   9   8
ENDBRANCH  10   9
ENDBRANCH  11  10
ENDBRANCH  15  14
BRANCH  15  16
ATOM     16  N   UNL     1      49.445   7.415  14.201  0.00  0.00    +0.000 N 
ATOM     17  C   UNL     1      49.774   7.655  15.511  0.00  0.00    +0.000 C 
ATOM     18  O   UNL     1      49.079   8.358  16.240  0.00  0.00    +0.000 OA
ATOM     35  H   UNL     1      50.109   6.942  13.605  0.00  0.00    +0.000 HD
BRANCH  17  19
ATOM     19  C   UNL     1      50.970   6.969  16.018  0.00  0.00    +0.000 A 
ATOM     20  C   UNL     1      52.208   7.245  15.459  0.00  0.00    +0.000 A 
ATOM     21  S   UNL     1      53.493   6.419  16.213  0.00  0.00    +0.000 S 
ATOM     22  C   UNL     1      52.425   5.616  17.265  0.00  0.00    +0.000 A 
ATOM     23  N   UNL     1      52.902   4.742  18.169  0.00  0.00    +0.000 NA
ATOM     24  C   UNL     1      51.937   4.172  18.891  0.00  0.00    +0.000 A 
ATOM     25  N   UNL     1      50.620   4.386  18.797  0.00  0.00    +0.000 NA
ATOM     26  C   UNL     1      50.193   5.287  17.893  0.00  0.00    +0.000 A 
ATOM     31  C   UNL     1      51.098   5.966  17.064  0.00  0.00    +0.000 A 
BRANCH  26  27
ATOM     27  O   UNL     1      48.841   5.485  17.735  0.00  0.00    +0.000 OA
BRANCH  27  28
ATOM     28  C   UNL     1      48.250   4.829  16.613  0.00  0.00    +0.000 C 
BRANCH  28  29
ATOM     29  C   UNL     1      47.663   3.505  17.085  0.00  0.00    +0.000 C 
ATOM     30  C   UNL     1      48.551   2.336  16.701  0.00  0.00    +0.000 C 
ENDBRANCH  28  29
ENDBRANCH  27  28
ENDBRANCH  26  27
ENDBRANCH  17  19
ENDBRANCH  15  16
TORSDOF 15
ENDMDL
MODEL 6
REMARK VINA RESULT:    -5.813      1.665      2.392
REMARK INTER + INTRA:         -12.728
REMARK INTER:                 -10.990
REMARK INTRA:                  -1.738
REMARK UNBOUND:                -1.818
REMARK  Name = 
REMARK  17 active torsions:
REMARK  status: ('A' for Active; 'I' for Inactive)
REMARK    1  A    between atoms: C_1  and  C_2
REMARK    2  A    between atoms: C_2  and  C_3
REMARK    3  A    between atoms: C_3  and  C_4
REMARK    4  A    between atoms: C_4  and  C_5
REMARK    5  A    between atoms: C_5  and  C_6
REMARK    6  A    between atoms: C_6  and  C_7
REMARK    7  A    between atoms: C_7  and  C_8
REMARK    8  A    between atoms: C_8  and  N_9
REMARK    9  A    between atoms: N_9  and  C_10
REMARK   10  A    between atoms: C_10  and  C_11
REMARK   11  A    between atoms: C_14  and  C_15
REMARK   12  A    between atoms: C_15  and  N_16
REMARK   13  A    between atoms: C_17  and  C_19
REMARK   14  A    between atoms: C_26  and  O_27
REMARK   15  A    between atoms: O_27  and  C_28
REMARK   16  A    between atoms: C_28  and  C_29
REMARK   17  A    between atoms: C_29  and  C_30
REMARK                            x       y       z     vdW  Elec       q    Type
REMARK                         _______ _______ _______ _____ _____    ______ ____
ROOT
ATOM     15  C   UNL     1      49.242   7.132  14.567  0.00  0.00    +0.000 C 
ENDROOT
BRANCH  15  14
ATOM     11  C   UNL     1      45.576   7.138  12.253  0.00  0.00    +0.000 A 
ATOM     12  C   UNL     1      46.009   8.294  12.921  0.00  0.00    +0.000 A 
ATOM     13  C   UNL     1      47.196   8.293  13.659  0.00  0.00    +0.000 A 
ATOM     14  C   UNL     1      47.976   7.135  13.750  0.00  0.00    +0.000 A 
ATOM     32  C   UNL     1      47.535   5.973  13.102  0.00  0.00    +0.000 A 
ATOM     33  C   UNL     1      46.351   5.976  12.358  0.00  0.00    +0.000 A 
BRANCH  11  10
ATOM     10  C   UNL     1      44.292   7.145  11.454  0.00  0.00    +0.000 C 
BRANCH  10   9
ATOM      9  N   UNL     1      44.131   5.904  10.699  0.00  0.00    +0.000 NA
ATOM     34  H   UNL     1      43.930   6.122   9.726  0.00  0.00    +0.000 HD
BRANCH   9   8
ATOM      8  C   UNL     1      43.051   5.090  11.246  0.00  0.00    +0.000 C 
BRANCH   8   7
ATOM      7  C   UNL     1      43.422   3.612  11.117  0.00  0.00    +0.000 C 
BRANCH   7   6
ATOM      6  C   UNL     1      44.645   3.441  10.220  0.00  0.00    +0.000 C 
BRANCH   6   5
ATOM      5  C   UNL     1      44.602   2.109   9.476  0.00  0.00    +0.000 C 
BRANCH   5   4
ATOM      4  C   UNL     1      45.726   2.027   8.447  0.00  0.00    +0.000 C 
BRANCH   4   3
ATOM      3  C   UNL     1      45.795   3.299   7.606  0.00  0.00    +0.000 C 
BRANCH   3   2
ATOM      1  C   UNL     1      47.748   1.955   6.773  0.00  0.00    +0.000 C 
ATOM      2  C   UNL     1      46.983   3.262   6.649  0.00  0.00    +0.000 C 
ENDBRANCH   3   2
ENDBRANCH   4   3
ENDBRANCH   5   4
ENDBRANCH   6   5
ENDBRANCH   7   6
ENDBRANCH   8   7
ENDBRANCH   9   8
ENDBRANCH  10   9
ENDBRANCH  11  10
ENDBRANCH  15  14
BRANCH  15  16
ATOM     16  N   UNL     1      48.952   7.227  15.975  0.00  0.00    +0.000 N 
ATOM     17  C   UNL     1      49.889   7.673  16.873  0.00  0.00    +0.000 C 
ATOM     18  O   UNL     1      50.975   8.119  16.515  0.00  0.00    +0.000 OA
ATOM     35  H   UNL     1      48.130   6.749  16.316  0.00  0.00    +0.000 HD
BRANCH  17  19
ATOM     19  C   UNL     1      49.494   7.651  18.289  0.00  0.00    +0.000 A 
ATOM     20  C   UNL     1      49.416   8.840  18.997  0.00  0.00    +0.000 A 
ATOM     21  S   UNL     1      48.873   8.641  20.600  0.00  0.00    +0.000 S 
ATOM     22  C   UNL     1      48.792   6.952  20.414  0.00  0.00    +0.000 A 
ATOM     23  N   UNL     1      48.400   6.181  21.445  0.00  0.00    +0.000 NA
ATOM     24  C   UNL     1      48.424   4.882  21.151  0.00  0.00    +0.000 A 
ATOM     25  N   UNL     1      48.781   4.318  19.991  0.00  0.00    +0.000 NA
ATOM     26  C   UNL     1      49.144   5.133  18.983  0.00  0.00    +0.000 A 
ATOM     31  C   UNL     1      49.164   6.525  19.148  0.00  0.00    +0.000 A 
BRANCH  26  27
ATOM     27  O   UNL     1      49.570   4.580  17.798  0.00  0.00    +0.000 OA
BRANCH  27  28
ATOM     28  C   UNL     1      50.938   4.171  17.766  0.00  0.00    +0.000 C 
BRANCH  28  29
ATOM     29  C   UNL     1      50.989   2.689  17.421  0.00  0.00    +0.000 C 
ATOM     30  C   UNL     1      49.631   2.175  16.981  0.00  0.00    +0.000 C 
ENDBRANCH  28  29
ENDBRANCH  27  28
ENDBRANCH  26  27
ENDBRANCH  17  19
ENDBRANCH  15  16
TORSDOF 15
ENDMDL
MODEL 7
REMARK VINA RESULT:    -5.561      1.743      2.623
REMARK INTER + INTRA:         -12.255
REMARK INTER:                 -10.474
REMARK INTRA:                  -1.782
REMARK UNBOUND:                -1.818
REMARK  Name = 
REMARK  17 active torsions:
REMARK  status: ('A' for Active; 'I' for Inactive)
REMARK    1  A    between atoms: C_1  and  C_2
REMARK    2  A    between atoms: C_2  and  C_3
REMARK    3  A    between atoms: C_3  and  C_4
REMARK    4  A    between atoms: C_4  and  C_5
REMARK    5  A    between atoms: C_5  and  C_6
REMARK    6  A    between atoms: C_6  and  C_7
REMARK    7  A    between atoms: C_7  and  C_8
REMARK    8  A    between atoms: C_8  and  N_9
REMARK    9  A    between atoms: N_9  and  C_10
REMARK   10  A    between atoms: C_10  and  C_11
REMARK   11  A    between atoms: C_14  and  C_15
REMARK   12  A    between atoms: C_15  and  N_16
REMARK   13  A    between atoms: C_17  and  C_19
REMARK   14  A    between atoms: C_26  and  O_27
REMARK   15  A    between atoms: O_27  and  C_28
REMARK   16  A    between atoms: C_28  and  C_29
REMARK   17  A    between atoms: C_29  and  C_30
REMARK                            x       y       z     vdW  Elec       q    Type
REMARK                         _______ _______ _______ _____ _____    ______ ____
ROOT
ATOM     15  C   UNL     1      48.615   5.630  16.564  0.00  0.00    +0.000 C 
ENDROOT
BRANCH  15  14
ATOM     11  C   UNL     1      46.279   4.980  12.971  0.00  0.00    +0.000 A 
ATOM     12  C   UNL     1      46.323   4.012  13.987  0.00  0.00    +0.000 A 
ATOM     13  C   UNL     1      47.069   4.228  15.149  0.00  0.00    +0.000 A 
ATOM     14  C   UNL     1      47.793   5.413  15.321  0.00  0.00    +0.000 A 
ATOM     32  C   UNL     1      47.768   6.371  14.298  0.00  0.00    +0.000 A 
ATOM     33  C   UNL     1      47.016   6.159  13.138  0.00  0.00    +0.000 A 
BRANCH  11  10
ATOM     10  C   UNL     1      45.468   4.743  11.716  0.00  0.00    +0.000 C 
BRANCH  10   9
ATOM      9  N   UNL     1      44.611   3.567  11.853  0.00  0.00    +0.000 NA
ATOM     34  H   UNL     1      45.162   2.784  12.198  0.00  0.00    +0.000 HD
BRANCH   9   8
ATOM      8  C   UNL     1      44.003   3.206  10.577  0.00  0.00    +0.000 C 
BRANCH   8   7
ATOM      7  C   UNL     1      44.283   4.311   9.557  0.00  0.00    +0.000 C 
BRANCH   7   6
ATOM      6  C   UNL     1      44.984   3.742   8.326  0.00  0.00    +0.000 C 
BRANCH   6   5
ATOM      5  C   UNL     1      45.489   2.326   8.584  0.00  0.00    +0.000 C 
BRANCH   5   4
ATOM      4  C   UNL     1      46.622   1.972   7.623  0.00  0.00    +0.000 C 
BRANCH   4   3
ATOM      3  C   UNL     1      46.861   3.096   6.618  0.00  0.00    +0.000 C 
BRANCH   3   2
ATOM      1  C   UNL     1      47.368   1.063   5.230  0.00  0.00    +0.000 C 
ATOM      2  C   UNL     1      47.027   2.544   5.205  0.00  0.00    +0.000 C 
ENDBRANCH   3   2
ENDBRANCH   4   3
ENDBRANCH   5   4
ENDBRANCH   6   5
ENDBRANCH   7   6
ENDBRANCH   8   7
ENDBRANCH   9   8
ENDBRANCH  10   9
ENDBRANCH  11  10
ENDBRANCH  15  14
BRANCH  15  16
ATOM     16  N   UNL     1      48.101   6.727  17.344  0.00  0.00    +0.000 N 
ATOM     17  C   UNL     1      48.862   7.837  17.612  0.00  0.00    +0.000 C 
ATOM     18  O   UNL     1      49.971   8.003  17.112  0.00  0.00    +0.000 OA
ATOM     35  H   UNL     1      47.257   6.568  17.875  0.00  0.00    +0.000 HD
BRANCH  17  19
ATOM     19  C   UNL     1      48.249   8.852  18.479  0.00  0.00    +0.000 A 
ATOM     20  C   UNL     1      48.096  10.149  18.016  0.00  0.00    +0.000 A 
ATOM     21  S   UNL     1      47.302  11.176  19.119  0.00  0.00    +0.000 S 
ATOM     22  C   UNL     1      47.199   9.933  20.276  0.00  0.00    +0.000 A 
ATOM     23  N   UNL     1      46.626  10.172  21.469  0.00  0.00    +0.000 NA
ATOM     24  C   UNL     1      46.656   9.110  22.275  0.00  0.00    +0.000 A 
ATOM     25  N   UNL     1      47.174   7.905  22.010  0.00  0.00    +0.000 NA
ATOM     26  C   UNL     1      47.716   7.708  20.794  0.00  0.00    +0.000 A 
ATOM     31  C   UNL     1      47.752   8.737  19.842  0.00  0.00    +0.000 A 
BRANCH  26  27
ATOM     27  O   UNL     1      48.306   6.499  20.514  0.00  0.00    +0.000 OA
BRANCH  27  28
ATOM     28  C   UNL     1      48.660   5.708  21.650  0.00  0.00    +0.000 C 
BRANCH  28  29
ATOM     29  C   UNL     1      50.023   5.080  21.392  0.00  0.00    +0.000 C 
ATOM     30  C   UNL     1      50.445   5.243  19.944  0.00  0.00    +0.000 C 
ENDBRANCH  28  29
ENDBRANCH  27  28
ENDBRANCH  26  27
ENDBRANCH  17  19
ENDBRANCH  15  16
TORSDOF 15
ENDMDL
MODEL 8
REMARK VINA RESULT:    -5.543      3.312      6.437
REMARK INTER + INTRA:         -12.220
REMARK INTER:                 -11.104
REMARK INTRA:                  -1.116
REMARK UNBOUND:                -1.818
REMARK  Name = 
REMARK  17 active torsions:
REMARK  status: ('A' for Active; 'I' for Inactive)
REMARK    1  A    between atoms: C_1  and  C_2
REMARK    2  A    between atoms: C_2  and  C_3
REMARK    3  A    between atoms: C_3  and  C_4
REMARK    4  A    between atoms: C_4  and  C_5
REMARK    5  A    between atoms: C_5  and  C_6
REMARK    6  A    between atoms: C_6  and  C_7
REMARK    7  A    between atoms: C_7  and  C_8
REMARK    8  A    between atoms: C_8  and  N_9
REMARK    9  A    between atoms: N_9  and  C_10
REMARK   10  A    between atoms: C_10  and  C_11
REMARK   11  A    between atoms: C_14  and  C_15
REMARK   12  A    between atoms: C_15  and  N_16
REMARK   13  A    between atoms: C_17  and  C_19
REMARK   14  A    between atoms: C_26  and  O_27
REMARK   15  A    between atoms: O_27  and  C_28
REMARK   16  A    between atoms: C_28  and  C_29
REMARK   17  A    between atoms: C_29  and  C_30
REMARK                            x       y       z     vdW  Elec       q    Type
REMARK                         _______ _______ _______ _____ _____    ______ ____
ROOT
ATOM     15  C   UNL     1      44.643   4.473  10.022  0.00  0.00    +0.000 C 
ENDROOT
BRANCH  15  14
ATOM     11  C   UNL     1      46.692   2.090   7.037  0.00  0.00    +0.000 A 
ATOM     12  C   UNL     1      46.053   1.483   8.129  0.00  0.00    +0.000 A 
ATOM     13  C   UNL     1      45.384   2.252   9.085  0.00  0.00    +0.000 A 
ATOM     14  C   UNL     1      45.343   3.647   8.975  0.00  0.00    +0.000 A 
ATOM     32  C   UNL     1      46.000   4.257   7.898  0.00  0.00    +0.000 A 
ATOM     33  C   UNL     1      46.663   3.486   6.936  0.00  0.00    +0.000 A 
BRANCH  11  10
ATOM     10  C   UNL     1      47.412   1.252   6.002  0.00  0.00    +0.000 C 
BRANCH  10   9
ATOM      9  N   UNL     1      47.315   1.853   4.674  0.00  0.00    +0.000 NA
ATOM     34  H   UNL     1      46.805   2.732   4.735  0.00  0.00    +0.000 HD
BRANCH   9   8
ATOM      8  C   UNL     1      46.634   0.962   3.740  0.00  0.00    +0.000 C 
BRANCH   8   7
ATOM      7  C   UNL     1      46.980  -0.486   4.086  0.00  0.00    +0.000 C 
BRANCH   7   6
ATOM      6  C   UNL     1      46.332  -1.447   3.092  0.00  0.00    +0.000 C 
BRANCH   6   5
ATOM      5  C   UNL     1      47.385  -2.233   2.317  0.00  0.00    +0.000 C 
BRANCH   5   4
ATOM      4  C   UNL     1      47.686  -3.561   3.008  0.00  0.00    +0.000 C 
BRANCH   4   3
ATOM      3  C   UNL     1      46.548  -3.966   3.941  0.00  0.00    +0.000 C 
BRANCH   3   2
ATOM      1  C   UNL     1      46.381  -6.056   5.327  0.00  0.00    +0.000 C 
ATOM      2  C   UNL     1      47.076  -4.714   5.161  0.00  0.00    +0.000 C 
ENDBRANCH   3   2
ENDBRANCH   4   3
ENDBRANCH   5   4
ENDBRANCH   6   5
ENDBRANCH   7   6
ENDBRANCH   8   7
ENDBRANCH   9   8
ENDBRANCH  10   9
ENDBRANCH  11  10
ENDBRANCH  15  14
BRANCH  15  16
ATOM     16  N   UNL     1      45.379   4.472  11.262  0.00  0.00    +0.000 N 
ATOM     17  C   UNL     1      45.621   5.632  11.954  0.00  0.00    +0.000 C 
ATOM     18  O   UNL     1      45.131   6.707  11.618  0.00  0.00    +0.000 OA
ATOM     35  H   UNL     1      45.903   3.641  11.494  0.00  0.00    +0.000 HD
BRANCH  17  19
ATOM     19  C   UNL     1      46.446   5.507  13.164  0.00  0.00    +0.000 A 
ATOM     20  C   UNL     1      46.147   4.530  14.100  0.00  0.00    +0.000 A 
ATOM     21  S   UNL     1      47.245   4.477  15.401  0.00  0.00    +0.000 S 
ATOM     22  C   UNL     1      48.113   5.804  14.785  0.00  0.00    +0.000 A 
ATOM     23  N   UNL     1      49.186   6.272  15.450  0.00  0.00    +0.000 NA
ATOM     24  C   UNL     1      49.732   7.334  14.858  0.00  0.00    +0.000 A 
ATOM     25  N   UNL     1      49.330   7.931  13.730  0.00  0.00    +0.000 NA
ATOM     26  C   UNL     1      48.267   7.412  13.090  0.00  0.00    +0.000 A 
ATOM     31  C   UNL     1      47.592   6.292  13.596  0.00  0.00    +0.000 A 
BRANCH  26  27
ATOM     27  O   UNL     1      47.796   8.039  11.960  0.00  0.00    +0.000 OA
BRANCH  27  28
ATOM     28  C   UNL     1      48.356   9.325  11.690  0.00  0.00    +0.000 C 
BRANCH  28  29
ATOM     29  C   UNL     1      47.405  10.386  12.227  0.00  0.00    +0.000 C 
ATOM     30  C   UNL     1      45.968  10.090  11.842  0.00  0.00    +0.000 C 
ENDBRANCH  28  29
ENDBRANCH  27  28
ENDBRANCH  26  27
ENDBRANCH  17  19
ENDBRANCH  15  16
TORSDOF 15
ENDMDL
MODEL 9
REMARK VINA RESULT:    -5.541      4.608      7.315
REMARK INTER + INTRA:         -12.217
REMARK INTER:                 -10.409
REMARK INTRA:                  -1.808
REMARK UNBOUND:                -1.818
REMARK  Name = 
REMARK  17 active torsions:
REMARK  status: ('A' for Active; 'I' for Inactive)
REMARK    1  A    between atoms: C_1  and  C_2
REMARK    2  A    between atoms: C_2  and  C_3
REMARK    3  A    between atoms: C_3  and  C_4
REMARK    4  A    between atoms: C_4  and  C_5
REMARK    5  A    between atoms: C_5  and  C_6
REMARK    6  A    between atoms: C_6  and  C_7
REMARK    7  A    between atoms: C_7  and  C_8
REMARK    8  A    between atoms: C_8  and  N_9
REMARK    9  A    between atoms: N_9  and  C_10
REMARK   10  A    between atoms: C_10  and  C_11
REMARK   11  A    between atoms: C_14  and  C_15
REMARK   12  A    between atoms: C_15  and  N_16
REMARK   13  A    between atoms: C_17  and  C_19
REMARK   14  A    between atoms: C_26  and  O_27
REMARK   15  A    between atoms: O_27  and  C_28
REMARK   16  A    between atoms: C_28  and  C_29
REMARK   17  A    between atoms: C_29  and  C_30
REMARK                            x       y       z     vdW  Elec       q    Type
REMARK                         _______ _______ _______ _____ _____    ______ ____
ROOT
ATOM     15  C   UNL     1      45.725   5.078  13.013  0.00  0.00    +0.000 C 
ENDROOT
BRANCH  15  14
ATOM     11  C   UNL     1      44.432   8.944  11.539  0.00  0.00    +0.000 A 
ATOM     12  C   UNL     1      43.855   7.759  11.057  0.00  0.00    +0.000 A 
ATOM     13  C   UNL     1      44.265   6.513  11.541  0.00  0.00    +0.000 A 
ATOM     14  C   UNL     1      45.268   6.423  12.514  0.00  0.00    +0.000 A 
ATOM     32  C   UNL     1      45.861   7.604  12.981  0.00  0.00    +0.000 A 
ATOM     33  C   UNL     1      45.445   8.851  12.502  0.00  0.00    +0.000 A 
BRANCH  11  10
ATOM     10  C   UNL     1      43.981  10.289  11.015  0.00  0.00    +0.000 C 
BRANCH  10   9
ATOM      9  N   UNL     1      43.268  11.046  12.042  0.00  0.00    +0.000 NA
ATOM     34  H   UNL     1      42.847  10.402  12.708  0.00  0.00    +0.000 HD
BRANCH   9   8
ATOM      8  C   UNL     1      42.228  11.883  11.454  0.00  0.00    +0.000 C 
BRANCH   8   7
ATOM      7  C   UNL     1      40.863  11.412  11.954  0.00  0.00    +0.000 C 
BRANCH   7   6
ATOM      6  C   UNL     1      40.364  10.231  11.126  0.00  0.00    +0.000 C 
BRANCH   6   5
ATOM      5  C   UNL     1      38.923  10.446  10.671  0.00  0.00    +0.000 C 
BRANCH   5   4
ATOM      4  C   UNL     1      37.960  10.327  11.849  0.00  0.00    +0.000 C 
BRANCH   4   3
ATOM      3  C   UNL     1      37.112   9.063  11.740  0.00  0.00    +0.000 C 
BRANCH   3   2
ATOM      1  C   UNL     1      35.186   9.844  10.327  0.00  0.00    +0.000 C 
ATOM      2  C   UNL     1      35.623   9.399  11.713  0.00  0.00    +0.000 C 
ENDBRANCH   3   2
ENDBRANCH   4   3
ENDBRANCH   5   4
ENDBRANCH   6   5
ENDBRANCH   7   6
ENDBRANCH   8   7
ENDBRANCH   9   8
ENDBRANCH  10   9
ENDBRANCH  11  10
ENDBRANCH  15  14
BRANCH  15  16
ATOM     16  N   UNL     1      46.382   5.193  14.291  0.00  0.00    +0.000 N 
ATOM     17  C   UNL     1      47.123   4.162  14.812  0.00  0.00    +0.000 C 
ATOM     18  O   UNL     1      47.359   3.140  14.174  0.00  0.00    +0.000 OA
ATOM     35  H   UNL     1      46.103   5.954  14.893  0.00  0.00    +0.000 HD
BRANCH  17  19
ATOM     19  C   UNL     1      47.679   4.377  16.156  0.00  0.00    +0.000 A 
ATOM     20  C   UNL     1      47.382   3.483  17.173  0.00  0.00    +0.000 A 
ATOM     21  S   UNL     1      48.166   3.840  18.641  0.00  0.00    +0.000 S 
ATOM     22  C   UNL     1      48.874   5.238  17.980  0.00  0.00    +0.000 A 
ATOM     23  N   UNL     1      49.669   6.013  18.741  0.00  0.00    +0.000 NA
ATOM     24  C   UNL     1      50.115   7.086  18.089  0.00  0.00    +0.000 A 
ATOM     25  N   UNL     1      49.854   7.433  16.823  0.00  0.00    +0.000 NA
ATOM     26  C   UNL     1      49.073   6.614  16.096  0.00  0.00    +0.000 A 
ATOM     31  C   UNL     1      48.534   5.445  16.651  0.00  0.00    +0.000 A 
BRANCH  26  27
ATOM     27  O   UNL     1      48.742   6.974  14.810  0.00  0.00    +0.000 OA
BRANCH  27  28
ATOM     28  C   UNL     1      49.830   7.399  13.990  0.00  0.00    +0.000 C 
BRANCH  28  29
ATOM     29  C   UNL     1      49.304   8.409  12.979  0.00  0.00    +0.000 C 
ATOM     30  C   UNL     1      49.225   7.811  11.587  0.00  0.00    +0.000 C 
ENDBRANCH  28  29
ENDBRANCH  27  28
ENDBRANCH  26  27
ENDBRANCH  17  19
ENDBRANCH  15  16
TORSDOF 15
ENDMDL
