MODEL 1
REMARK VINA RESULT:    -5.455      0.000      0.000
REMARK INTER + INTRA:          -5.984
REMARK INTER:                  -5.934
REMARK INTRA:                  -0.050
REMARK UNBOUND:                -0.050
REMARK  Name = 
REMARK  2 active torsions:
REMARK  status: ('A' for Active; 'I' for Inactive)
REMARK    1  A    between atoms: C_2  and  C_4
REMARK    2  A    between atoms: C_7  and  N_8
REMARK                            x       y       z     vdW  Elec       q    Type
REMARK                         _______ _______ _______ _____ _____    ______ ____
ROOT
ATOM      4  C   UNL     1      45.417   2.981   8.505  0.00  0.00    +0.000 A 
ATOM      5  C   UNL     1      45.850   1.663   8.475  0.00  0.00    +0.000 A 
ATOM      6  C   UNL     1      46.880   1.324   7.598  0.00  0.00    +0.000 A 
ATOM      7  C   UNL     1      47.479   2.304   6.809  0.00  0.00    +0.000 A 
ATOM      9  C   UNL     1      46.926   3.587   6.877  0.00  0.00    +0.000 A 
ATOM     10  N   UNL     1      45.927   3.965   7.713  0.00  0.00    +0.000 NA
ENDROOT
BRANCH   4   2
ATOM      1  N   UNL     1      43.819   4.639   9.278  0.00  0.00    +0.000 N 
ATOM      2  C   UNL     1      44.310   3.373   9.434  0.00  0.00    +0.000 C 
ATOM      3  O   UNL     1      43.853   2.608  10.276  0.00  0.00    +0.000 OA
ATOM     11  H   UNL     1      43.021   4.926   9.826  0.00  0.00    +0.000 HD
ATOM     12  H   UNL     1      44.137   5.205   8.500  0.00  0.00    +0.000 HD
ENDBRANCH   4   2
BRANCH   7   8
ATOM      8  N   UNL     1      48.413   1.953   5.830  0.00  0.00    +0.000 N 
ATOM     13  H   UNL     1      49.174   2.619   5.723  0.00  0.00    +0.000 HD
ATOM     14  H   UNL     1      48.009   1.689   4.937  0.00  0.00    +0.000 HD
ENDBRANCH   7   8
TORSDOF 2
ENDMDL
MODEL 2
REMARK VINA RESULT:    -5.403      0.922      1.529
REMARK INTER + INTRA:          -5.928
REMARK INTER:                  -5.879
REMARK INTRA:                  -0.049
REMARK UNBOUND:                -0.050
REMARK  Name = 
REMARK  2 active torsions:
REMARK  status: ('A' for Active; 'I' for Inactive)
REMARK    1  A    between atoms: C_2  and  C_4
REMARK    2  A    between atoms: C_7  and  N_8
REMARK                            x       y       z     vdW  Elec       q    Type
REMARK                         _______ _______ _______ _____ _____    ______ ____
ROOT
ATOM      4  C   UNL     1      45.417   2.894   8.528  0.00  0.00    +0.000 A 
ATOM      5  C   UNL     1      45.939   3.796   7.613  0.00  0.00    +0.000 A 
ATOM      6  C   UNL     1      46.921   3.349   6.729  0.00  0.00    +0.000 A 
ATOM      7  C   UNL     1      47.328   2.016   6.749  0.00  0.00    +0.000 A 
ATOM      9  C   UNL     1      46.778   1.209   7.751  0.00  0.00    +0.000 A 
ATOM     10  N   UNL     1      45.821   1.597   8.629  0.00  0.00    +0.000 NA
ENDROOT
BRANCH   4   2
ATOM      1  N   UNL     1      44.009   4.664   9.415  0.00  0.00    +0.000 N 
ATOM      2  C   UNL     1      44.364   3.346   9.491  0.00  0.00    +0.000 C 
ATOM      3  O   UNL     1      43.833   2.585  10.294  0.00  0.00    +0.000 OA
ATOM     11  H   UNL     1      43.250   5.001   9.989  0.00  0.00    +0.000 HD
ATOM     12  H   UNL     1      44.381   5.238   8.667  0.00  0.00    +0.000 HD
ENDBRANCH   4   2
BRANCH   7   8
ATOM      8  N   UNL     1      48.405   1.592   5.966  0.00  0.00    +0.000 N 
ATOM     13  H   UNL     1      48.570   2.162   5.141  0.00  0.00    +0.000 HD
ATOM     14  H   UNL     1      48.404   0.599   5.749  0.00  0.00    +0.000 HD
ENDBRANCH   7   8
TORSDOF 2
ENDMDL
MODEL 3
REMARK VINA RESULT:    -5.383      1.966      4.200
REMARK INTER + INTRA:          -5.906
REMARK INTER:                  -5.857
REMARK INTRA:                  -0.049
REMARK UNBOUND:                -0.050
REMARK  Name = 
REMARK  2 active torsions:
REMARK  status: ('A' for Active; 'I' for Inactive)
REMARK    1  A    between atoms: C_2  and  C_4
REMARK    2  A    between atoms: C_7  and  N_8
REMARK                            x       y       z     vdW  Elec       q    Type
REMARK                         _______ _______ _______ _____ _____    ______ ____
ROOT
ATOM      4  C   UNL     1      46.148   2.027   8.084  0.00  0.00    +0.000 A 
ATOM      5  C   UNL     1      46.338   3.338   7.672  0.00  0.00    +0.000 A 
ATOM      6  C   UNL     1      45.550   4.334   8.248  0.00  0.00    +0.000 A 
ATOM      7  C   UNL     1      44.630   4.011   9.244  0.00  0.00    +0.000 A 
ATOM      9  C   UNL     1      44.480   2.652   9.541  0.00  0.00    +0.000 A 
ATOM     10  N   UNL     1      45.222   1.650   9.009  0.00  0.00    +0.000 NA
ENDROOT
BRANCH   4   2
ATOM      1  N   UNL     1      47.951   1.339   6.608  0.00  0.00    +0.000 N 
ATOM      2  C   UNL     1      46.976   0.937   7.479  0.00  0.00    +0.000 C 
ATOM      3  O   UNL     1      46.810  -0.247   7.753  0.00  0.00    +0.000 OA
ATOM     11  H   UNL     1      48.586   0.650   6.233  0.00  0.00    +0.000 HD
ATOM     12  H   UNL     1      48.138   2.328   6.491  0.00  0.00    +0.000 HD
ENDBRANCH   4   2
BRANCH   7   8
ATOM      8  N   UNL     1      43.742   4.976   9.729  0.00  0.00    +0.000 N 
ATOM     13  H   UNL     1      44.190   5.827  10.057  0.00  0.00    +0.000 HD
ATOM     14  H   UNL     1      43.059   4.624  10.393  0.00  0.00    +0.000 HD
ENDBRANCH   7   8
TORSDOF 2
ENDMDL
MODEL 4
REMARK VINA RESULT:    -5.127      2.095      4.054
REMARK INTER + INTRA:          -5.627
REMARK INTER:                  -5.585
REMARK INTRA:                  -0.042
REMARK UNBOUND:                -0.050
REMARK  Name = 
REMARK  2 active torsions:
REMARK  status: ('A' for Active; 'I' for Inactive)
REMARK    1  A    between atoms: C_2  and  C_4
REMARK    2  A    between atoms: C_7  and  N_8
REMARK                            x       y       z     vdW  Elec       q    Type
REMARK                         _______ _______ _______ _____ _____    ______ ____
ROOT
ATOM      4  C   UNL     1      46.438   2.878   7.682  0.00  0.00    +0.000 A 
ATOM      5  C   UNL     1      45.820   1.859   8.393  0.00  0.00    +0.000 A 
ATOM      6  C   UNL     1      44.877   2.205   9.360  0.00  0.00    +0.000 A 
ATOM      7  C   UNL     1      44.542   3.542   9.567  0.00  0.00    +0.000 A 
ATOM      9  C   UNL     1      45.268   4.489   8.836  0.00  0.00    +0.000 A 
ATOM     10  N   UNL     1      46.192   4.202   7.886  0.00  0.00    +0.000 NA
ENDROOT
BRANCH   4   2
ATOM      1  N   UNL     1      47.344   3.202   5.451  0.00  0.00    +0.000 N 
ATOM      2  C   UNL     1      47.458   2.537   6.640  0.00  0.00    +0.000 C 
ATOM      3  O   UNL     1      48.355   1.724   6.836  0.00  0.00    +0.000 OA
ATOM     11  H   UNL     1      48.051   3.066   4.744  0.00  0.00    +0.000 HD
ATOM     12  H   UNL     1      46.665   3.949   5.361  0.00  0.00    +0.000 HD
ENDBRANCH   4   2
BRANCH   7   8
ATOM      8  N   UNL     1      43.704   3.909  10.624  0.00  0.00    +0.000 N 
ATOM     13  H   UNL     1      43.985   4.761  11.101  0.00  0.00    +0.000 HD
ATOM     14  H   UNL     1      43.495   3.158  11.275  0.00  0.00    +0.000 HD
ENDBRANCH   7   8
TORSDOF 2
ENDMDL
MODEL 5
REMARK VINA RESULT:    -4.974      4.278      5.638
REMARK INTER + INTRA:          -5.461
REMARK INTER:                  -5.417
REMARK INTRA:                  -0.044
REMARK UNBOUND:                -0.050
REMARK  Name = 
REMARK  2 active torsions:
REMARK  status: ('A' for Active; 'I' for Inactive)
REMARK    1  A    between atoms: C_2  and  C_4
REMARK    2  A    between atoms: C_7  and  N_8
REMARK                            x       y       z     vdW  Elec       q    Type
REMARK                         _______ _______ _______ _____ _____    ______ ____
ROOT
ATOM      4  C   UNL     1      46.134   4.327  13.040  0.00  0.00    +0.000 A 
ATOM      5  C   UNL     1      46.129   5.553  12.390  0.00  0.00    +0.000 A 
ATOM      6  C   UNL     1      45.355   5.689  11.239  0.00  0.00    +0.000 A 
ATOM      7  C   UNL     1      44.577   4.624  10.787  0.00  0.00    +0.000 A 
ATOM      9  C   UNL     1      44.703   3.418  11.483  0.00  0.00    +0.000 A 
ATOM     10  N   UNL     1      45.440   3.237  12.607  0.00  0.00    +0.000 NA
ENDROOT
BRANCH   4   2
ATOM      1  N   UNL     1      47.085   5.253  15.074  0.00  0.00    +0.000 N 
ATOM      2  C   UNL     1      46.959   4.150  14.276  0.00  0.00    +0.000 C 
ATOM      3  O   UNL     1      47.481   3.081  14.574  0.00  0.00    +0.000 OA
ATOM     11  H   UNL     1      47.566   5.166  15.957  0.00  0.00    +0.000 HD
ATOM     12  H   UNL     1      46.549   6.086  14.861  0.00  0.00    +0.000 HD
ENDBRANCH   4   2
BRANCH   7   8
ATOM      8  N   UNL     1      43.909   4.704   9.561  0.00  0.00    +0.000 N 
ATOM     13  H   UNL     1      43.977   3.863   8.994  0.00  0.00    +0.000 HD
ATOM     14  H   UNL     1      44.110   5.543   9.025  0.00  0.00    +0.000 HD
ENDBRANCH   7   8
TORSDOF 2
ENDMDL
MODEL 6
REMARK VINA RESULT:    -4.838      2.868      3.998
REMARK INTER + INTRA:          -5.313
REMARK INTER:                  -5.274
REMARK INTRA:                  -0.039
REMARK UNBOUND:                -0.050
REMARK  Name = 
REMARK  2 active torsions:
REMARK  status: ('A' for Active; 'I' for Inactive)
REMARK    1  A    between atoms: C_2  and  C_4
REMARK    2  A    between atoms: C_7  and  N_8
REMARK                            x       y       z     vdW  Elec       q    Type
REMARK                         _______ _______ _______ _____ _____    ______ ____
ROOT
ATOM      4  C   UNL     1      43.512   4.419  11.246  0.00  0.00    +0.000 A 
ATOM      5  C   UNL     1      44.401   5.046  10.385  0.00  0.00    +0.000 A 
ATOM      6  C   UNL     1      45.105   4.260   9.474  0.00  0.00    +0.000 A 
ATOM      7  C   UNL     1      44.880   2.885   9.412  0.00  0.00    +0.000 A 
ATOM      9  C   UNL     1      44.006   2.351  10.365  0.00  0.00    +0.000 A 
ATOM     10  N   UNL     1      43.298   3.074  11.268  0.00  0.00    +0.000 NA
ENDROOT
BRANCH   4   2
ATOM      1  N   UNL     1      42.053   6.301  11.729  0.00  0.00    +0.000 N 
ATOM      2  C   UNL     1      42.745   5.237  12.238  0.00  0.00    +0.000 C 
ATOM      3  O   UNL     1      42.720   4.970  13.435  0.00  0.00    +0.000 OA
ATOM     11  H   UNL     1      41.458   6.837  12.343  0.00  0.00    +0.000 HD
ATOM     12  H   UNL     1      42.001   6.427  10.724  0.00  0.00    +0.000 HD
ENDBRANCH   4   2
BRANCH   7   8
ATOM      8  N   UNL     1      45.677   2.071   8.602  0.00  0.00    +0.000 N 
ATOM     13  H   UNL     1      45.593   2.264   7.608  0.00  0.00    +0.000 HD
ATOM     14  H   UNL     1      45.608   1.078   8.805  0.00  0.00    +0.000 HD
ENDBRANCH   7   8
TORSDOF 2
ENDMDL
MODEL 7
REMARK VINA RESULT:    -4.780      2.061      2.969
REMARK INTER + INTRA:          -5.250
REMARK INTER:                  -5.206
REMARK INTRA:                  -0.044
REMARK UNBOUND:                -0.050
REMARK  Name = 
REMARK  2 active torsions:
REMARK  status: ('A' for Active; 'I' for Inactive)
REMARK    1  A    between atoms: C_2  and  C_4
REMARK    2  A    between atoms: C_7  and  N_8
REMARK                            x       y       z     vdW  Elec       q    Type
REMARK                         _______ _______ _______ _____ _____    ______ ____
ROOT
ATOM      4  C   UNL     1      44.385   3.606  10.361  0.00  0.00    +0.000 A 
ATOM      5  C   UNL     1      44.966   4.820  10.025  0.00  0.00    +0.000 A 
ATOM      6  C   UNL     1      45.753   4.883   8.876  0.00  0.00    +0.000 A 
ATOM      7  C   UNL     1      45.908   3.755   8.071  0.00  0.00    +0.000 A 
ATOM      9  C   UNL     1      45.327   2.570   8.534  0.00  0.00    +0.000 A 
ATOM     10  N   UNL     1      44.553   2.461   9.642  0.00  0.00    +0.000 NA
ENDROOT
BRANCH   4   2
ATOM      1  N   UNL     1      43.719   2.388  12.354  0.00  0.00    +0.000 N 
ATOM      2  C   UNL     1      43.539   3.508  11.592  0.00  0.00    +0.000 C 
ATOM      3  O   UNL     1      42.741   4.382  11.915  0.00  0.00    +0.000 OA
ATOM     11  H   UNL     1      43.229   2.310  13.234  0.00  0.00    +0.000 HD
ATOM     12  H   UNL     1      44.465   1.742  12.123  0.00  0.00    +0.000 HD
ENDBRANCH   4   2
BRANCH   7   8
ATOM      8  N   UNL     1      46.803   3.768   6.996  0.00  0.00    +0.000 N 
ATOM     13  H   UNL     1      47.181   2.856   6.758  0.00  0.00    +0.000 HD
ATOM     14  H   UNL     1      47.528   4.477   7.060  0.00  0.00    +0.000 HD
ENDBRANCH   7   8
TORSDOF 2
ENDMDL
MODEL 8
REMARK VINA RESULT:    -4.722      2.574      5.264
REMARK INTER + INTRA:          -5.186
REMARK INTER:                  -5.143
REMARK INTRA:                  -0.043
REMARK UNBOUND:                -0.050
REMARK  Name = 
REMARK  2 active torsions:
REMARK  status: ('A' for Active; 'I' for Inactive)
REMARK    1  A    between atoms: C_2  and  C_4
REMARK    2  A    between atoms: C_7  and  N_8
REMARK                            x       y       z     vdW  Elec       q    Type
REMARK                         _______ _______ _______ _____ _____    ______ ____
ROOT
ATOM      4  C   UNL     1      44.678   3.807   9.804  0.00  0.00    +0.000 A 
ATOM      5  C   UNL     1      45.029   5.086  10.210  0.00  0.00    +0.000 A 
ATOM      6  C   UNL     1      44.419   5.611  11.349  0.00  0.00    +0.000 A 
ATOM      7  C   UNL     1      43.513   4.841  12.076  0.00  0.00    +0.000 A 
ATOM      9  C   UNL     1      43.188   3.588  11.545  0.00  0.00    +0.000 A 
ATOM     10  N   UNL     1      43.755   3.036  10.444  0.00  0.00    +0.000 NA
ENDROOT
BRANCH   4   2
ATOM      1  N   UNL     1      45.641   1.894   8.657  0.00  0.00    +0.000 N 
ATOM      2  C   UNL     1      45.314   3.219   8.583  0.00  0.00    +0.000 C 
ATOM      3  O   UNL     1      45.519   3.874   7.566  0.00  0.00    +0.000 OA
ATOM     11  H   UNL     1      46.000   1.432   7.835  0.00  0.00    +0.000 HD
ATOM     12  H   UNL     1      45.355   1.355   9.466  0.00  0.00    +0.000 HD
ENDBRANCH   4   2
BRANCH   7   8
ATOM      8  N   UNL     1      42.794   5.403  13.135  0.00  0.00    +0.000 N 
ATOM     13  H   UNL     1      41.793   5.235  13.095  0.00  0.00    +0.000 HD
ATOM     14  H   UNL     1      43.009   6.379  13.319  0.00  0.00    +0.000 HD
ENDBRANCH   7   8
TORSDOF 2
ENDMDL
MODEL 9
REMARK VINA RESULT:    -4.708      3.870      5.464
REMARK INTER + INTRA:          -5.171
REMARK INTER:                  -5.134
REMARK INTRA:                  -0.037
REMARK UNBOUND:                -0.050
REMARK  Name = 
REMARK  2 active torsions:
REMARK  status: ('A' for Active; 'I' for Inactive)
REMARK    1  A    between atoms: C_2  and  C_4
REMARK    2  A    between atoms: C_7  and  N_8
REMARK                            x       y       z     vdW  Elec       q    Type
REMARK                         _______ _______ _______ _____ _____    ______ ____
ROOT
ATOM      4  C   UNL     1      44.768   3.922  11.714  0.00  0.00    +0.000 A 
ATOM      5  C   UNL     1      45.069   5.058  10.976  0.00  0.00    +0.000 A 
ATOM      6  C   UNL     1      45.787   6.079  11.597  0.00  0.00    +0.000 A 
ATOM      7  C   UNL     1      46.221   5.931  12.913  0.00  0.00    +0.000 A 
ATOM      9  C   UNL     1      45.813   4.771  13.580  0.00  0.00    +0.000 A 
ATOM     10  N   UNL     1      45.117   3.751  13.019  0.00  0.00    +0.000 NA
ENDROOT
BRANCH   4   2
ATOM      1  N   UNL     1      44.551   2.265   9.950  0.00  0.00    +0.000 N 
ATOM      2  C   UNL     1      43.995   2.810  11.074  0.00  0.00    +0.000 C 
ATOM      3  O   UNL     1      42.936   2.396  11.532  0.00  0.00    +0.000 OA
ATOM     11  H   UNL     1      44.109   1.462   9.526  0.00  0.00    +0.000 HD
ATOM     12  H   UNL     1      45.480   2.550   9.664  0.00  0.00    +0.000 HD
ENDBRANCH   4   2
BRANCH   7   8
ATOM      8  N   UNL     1      46.819   7.000  13.587  0.00  0.00    +0.000 N 
ATOM     13  H   UNL     1      46.701   6.974  14.596  0.00  0.00    +0.000 HD
ATOM     14  H   UNL     1      46.603   7.915  13.202  0.00  0.00    +0.000 HD
ENDBRANCH   7   8
TORSDOF 2
ENDMDL
