MODEL 1
REMARK VINA RESULT:    -7.522      0.000      0.000
REMARK INTER + INTRA:         -15.097
REMARK INTER:                 -13.239
REMARK INTRA:                  -1.859
REMARK UNBOUND:                -1.859
REMARK  Name = 
REMARK  14 active torsions:
REMARK  status: ('A' for Active; 'I' for Inactive)
REMARK    1  A    between atoms: C_1  and  C_2
REMARK    2  A    between atoms: C_2  and  C_3
REMARK    3  A    between atoms: C_3  and  C_4
REMARK    4  A    between atoms: C_4  and  C_5
REMARK    5  A    between atoms: C_5  and  C_6
REMARK    6  A    between atoms: C_6  and  O_7
REMARK    7  A    between atoms: O_7  and  C_8
REMARK    8  A    between atoms: C_15  and  C_16
REMARK    9  A    between atoms: N_18  and  C_19
REMARK   10  A    between atoms: C_19  and  C_20
REMARK   11  A    between atoms: C_23  and  C_24
REMARK   12  A    between atoms: C_24  and  N_25
REMARK   13  A    between atoms: N_25  and  C_26
REMARK   14  A    between atoms: C_26  and  C_27
REMARK                            x       y       z     vdW  Elec       q    Type
REMARK                         _______ _______ _______ _____ _____    ______ ____
ROOT
ATOM     16  C   UNL     1      48.995   7.368  15.446  0.00  0.00    +0.000 C 
ATOM     17  O   UNL     1      50.104   6.880  15.232  0.00  0.00    +0.000 OA
ATOM     18  N   UNL     1      47.917   7.062  14.652  0.00  0.00    +0.000 N 
ATOM     36  H   UNL     1      47.028   7.526  14.790  0.00  0.00    +0.000 HD
ENDROOT
BRANCH  16  15
ATOM      8  C   UNL     1      48.599   7.111  18.878  0.00  0.00    +0.000 A 
ATOM      9  N   UNL     1      48.535   7.345  20.209  0.00  0.00    +0.000 NA
ATOM     10  C   UNL     1      48.507   8.606  20.643  0.00  0.00    +0.000 A 
ATOM     11  N   UNL     1      48.518   9.701  19.899  0.00  0.00    +0.000 NA
ATOM     12  C   UNL     1      48.605   9.440  18.585  0.00  0.00    +0.000 A 
ATOM     13  S   UNL     1      48.659  10.741  17.496  0.00  0.00    +0.000 S 
ATOM     14  C   UNL     1      48.822   9.687  16.181  0.00  0.00    +0.000 A 
ATOM     15  C   UNL     1      48.816   8.340  16.529  0.00  0.00    +0.000 A 
ATOM     35  C   UNL     1      48.667   8.188  17.971  0.00  0.00    +0.000 A 
BRANCH   8   7
ATOM      7  O   UNL     1      48.657   5.791  18.461  0.00  0.00    +0.000 OA
BRANCH   7   6
ATOM      6  C   UNL     1      47.358   5.229  18.203  0.00  0.00    +0.000 C 
BRANCH   6   5
ATOM      5  C   UNL     1      47.394   4.308  16.983  0.00  0.00    +0.000 C 
BRANCH   5   4
ATOM      4  C   UNL     1      47.724   2.839  17.278  0.00  0.00    +0.000 C 
BRANCH   4   3
ATOM      3  C   UNL     1      49.015   2.267  16.678  0.00  0.00    +0.000 C 
BRANCH   3   2
ATOM      1  C   UNL     1      51.383   1.543  17.381  0.00  0.00    +0.000 C 
ATOM      2  C   UNL     1      50.337   2.647  17.355  0.00  0.00    +0.000 C 
ENDBRANCH   3   2
ENDBRANCH   4   3
ENDBRANCH   5   4
ENDBRANCH   6   5
ENDBRANCH   7   6
ENDBRANCH   8   7
ENDBRANCH  16  15
BRANCH  18  19
ATOM     19  C   UNL     1      48.104   6.231  13.481  0.00  0.00    +0.000 C 
BRANCH  19  20
ATOM     20  C   UNL     1      46.818   5.799  12.834  0.00  0.00    +0.000 A 
ATOM     21  C   UNL     1      46.375   6.345  11.620  0.00  0.00    +0.000 A 
ATOM     22  C   UNL     1      45.297   5.769  10.932  0.00  0.00    +0.000 A 
ATOM     23  C   UNL     1      44.661   4.629  11.435  0.00  0.00    +0.000 A 
ATOM     33  C   UNL     1      45.057   4.141  12.686  0.00  0.00    +0.000 A 
ATOM     34  C   UNL     1      46.121   4.714  13.375  0.00  0.00    +0.000 A 
BRANCH  23  24
ATOM     24  C   UNL     1      43.555   3.899  10.706  0.00  0.00    +0.000 C 
BRANCH  24  25
ATOM     25  N   UNL     1      43.904   3.527   9.334  0.00  0.00    +0.000 NA
ATOM     37  H   UNL     1      44.470   4.266   8.919  0.00  0.00    +0.000 HD
BRANCH  25  26
ATOM     26  C   UNL     1      44.700   2.295   9.340  0.00  0.00    +0.000 C 
BRANCH  26  27
ATOM     27  C   UNL     1      45.723   2.288   8.231  0.00  0.00    +0.000 A 
ATOM     28  C   UNL     1      46.480   1.140   7.954  0.00  0.00    +0.000 A 
ATOM     29  C   UNL     1      47.402   1.139   6.906  0.00  0.00    +0.000 A 
ATOM     30  C   UNL     1      47.575   2.281   6.125  0.00  0.00    +0.000 A 
ATOM     31  C   UNL     1      46.830   3.428   6.394  0.00  0.00    +0.000 A 
ATOM     32  C   UNL     1      45.907   3.430   7.439  0.00  0.00    +0.000 A 
ENDBRANCH  26  27
ENDBRANCH  25  26
ENDBRANCH  24  25
ENDBRANCH  23  24
ENDBRANCH  19  20
ENDBRANCH  18  19
TORSDOF 13
ENDMDL
MODEL 2
REMARK VINA RESULT:    -7.331      1.350      2.090
REMARK INTER + INTRA:         -14.761
REMARK INTER:                 -12.318
REMARK INTRA:                  -2.443
REMARK UNBOUND:                -1.859
REMARK  Name = 
REMARK  14 active torsions:
REMARK  status: ('A' for Active; 'I' for Inactive)
REMARK    1  A    between atoms: C_1  and  C_2
REMARK    2  A    between atoms: C_2  and  C_3
REMARK    3  A    between atoms: C_3  and  C_4
REMARK    4  A    between atoms: C_4  and  C_5
REMARK    5  A    between atoms: C_5  and  C_6
REMARK    6  A    between atoms: C_6  and  O_7
REMARK    7  A    between atoms: O_7  and  C_8
REMARK    8  A    between atoms: C_15  and  C_16
REMARK    9  A    between atoms: N_18  and  C_19
REMARK   10  A    between atoms: C_19  and  C_20
REMARK   11  A    between atoms: C_23  and  C_24
REMARK   12  A    between atoms: C_24  and  N_25
REMARK   13  A    between atoms: N_25  and  C_26
REMARK   14  A    between atoms: C_26  and  C_27
REMARK                            x       y       z     vdW  Elec       q    Type
REMARK                         _______ _______ _______ _____ _____    ______ ____
ROOT
ATOM     16  C   UNL     1      49.308   7.337  15.716  0.00  0.00    +0.000 C 
ATOM     17  O   UNL     1      50.346   7.173  15.075  0.00  0.00    +0.000 OA
ATOM     18  N   UNL     1      48.092   7.446  15.086  0.00  0.00    +0.000 N 
ATOM     36  H   UNL     1      47.256   7.656  15.615  0.00  0.00    +0.000 HD
ENDROOT
BRANCH  16  15
ATOM      8  C   UNL     1      47.876   5.615  18.358  0.00  0.00    +0.000 A 
ATOM      9  N   UNL     1      47.566   5.101  19.571  0.00  0.00    +0.000 NA
ATOM     10  C   UNL     1      48.072   5.674  20.664  0.00  0.00    +0.000 A 
ATOM     11  N   UNL     1      48.862   6.736  20.709  0.00  0.00    +0.000 NA
ATOM     12  C   UNL     1      49.172   7.211  19.492  0.00  0.00    +0.000 A 
ATOM     13  S   UNL     1      50.199   8.556  19.378  0.00  0.00    +0.000 S 
ATOM     14  C   UNL     1      50.161   8.494  17.686  0.00  0.00    +0.000 A 
ATOM     15  C   UNL     1      49.358   7.479  17.174  0.00  0.00    +0.000 A 
ATOM     35  C   UNL     1      48.748   6.718  18.257  0.00  0.00    +0.000 A 
BRANCH   8   7
ATOM      7  O   UNL     1      47.358   4.979  17.241  0.00  0.00    +0.000 OA
BRANCH   7   6
ATOM      6  C   UNL     1      47.309   3.549  17.386  0.00  0.00    +0.000 C 
BRANCH   6   5
ATOM      5  C   UNL     1      48.480   2.886  16.659  0.00  0.00    +0.000 C 
BRANCH   5   4
ATOM      4  C   UNL     1      49.744   2.677  17.503  0.00  0.00    +0.000 C 
BRANCH   4   3
ATOM      3  C   UNL     1      50.852   3.734  17.396  0.00  0.00    +0.000 C 
BRANCH   3   2
ATOM      1  C   UNL     1      51.764   4.634  19.629  0.00  0.00    +0.000 C 
ATOM      2  C   UNL     1      51.967   3.696  18.447  0.00  0.00    +0.000 C 
ENDBRANCH   3   2
ENDBRANCH   4   3
ENDBRANCH   5   4
ENDBRANCH   6   5
ENDBRANCH   7   6
ENDBRANCH   8   7
ENDBRANCH  16  15
BRANCH  18  19
ATOM     19  C   UNL     1      48.036   7.470  13.639  0.00  0.00    +0.000 C 
BRANCH  19  20
ATOM     20  C   UNL     1      47.241   6.341  13.045  0.00  0.00    +0.000 A 
ATOM     21  C   UNL     1      46.943   5.179  13.770  0.00  0.00    +0.000 A 
ATOM     22  C   UNL     1      46.019   4.248  13.275  0.00  0.00    +0.000 A 
ATOM     23  C   UNL     1      45.363   4.475  12.059  0.00  0.00    +0.000 A 
ATOM     33  C   UNL     1      45.728   5.597  11.306  0.00  0.00    +0.000 A 
ATOM     34  C   UNL     1      46.649   6.519  11.791  0.00  0.00    +0.000 A 
BRANCH  23  24
ATOM     24  C   UNL     1      44.289   3.567  11.507  0.00  0.00    +0.000 C 
BRANCH  24  25
ATOM     25  N   UNL     1      44.815   2.434  10.744  0.00  0.00    +0.000 NA
ATOM     37  H   UNL     1      44.462   1.565  11.145  0.00  0.00    +0.000 HD
BRANCH  25  26
ATOM     26  C   UNL     1      44.353   2.513   9.354  0.00  0.00    +0.000 C 
BRANCH  26  27
ATOM     27  C   UNL     1      45.508   2.506   8.383  0.00  0.00    +0.000 A 
ATOM     28  C   UNL     1      45.906   3.679   7.726  0.00  0.00    +0.000 A 
ATOM     29  C   UNL     1      46.995   3.664   6.852  0.00  0.00    +0.000 A 
ATOM     30  C   UNL     1      47.696   2.480   6.629  0.00  0.00    +0.000 A 
ATOM     31  C   UNL     1      47.307   1.308   7.275  0.00  0.00    +0.000 A 
ATOM     32  C   UNL     1      46.221   1.322   8.149  0.00  0.00    +0.000 A 
ENDBRANCH  26  27
ENDBRANCH  25  26
ENDBRANCH  24  25
ENDBRANCH  23  24
ENDBRANCH  19  20
ENDBRANCH  18  19
TORSDOF 13
ENDMDL
MODEL 3
REMARK VINA RESULT:    -7.325      1.594      2.681
REMARK INTER + INTRA:         -14.751
REMARK INTER:                 -12.322
REMARK INTRA:                  -2.429
REMARK UNBOUND:                -1.859
REMARK  Name = 
REMARK  14 active torsions:
REMARK  status: ('A' for Active; 'I' for Inactive)
REMARK    1  A    between atoms: C_1  and  C_2
REMARK    2  A    between atoms: C_2  and  C_3
REMARK    3  A    between atoms: C_3  and  C_4
REMARK    4  A    between atoms: C_4  and  C_5
REMARK    5  A    between atoms: C_5  and  C_6
REMARK    6  A    between atoms: C_6  and  O_7
REMARK    7  A    between atoms: O_7  and  C_8
REMARK    8  A    between atoms: C_15  and  C_16
REMARK    9  A    between atoms: N_18  and  C_19
REMARK   10  A    between atoms: C_19  and  C_20
REMARK   11  A    between atoms: C_23  and  C_24
REMARK   12  A    between atoms: C_24  and  N_25
REMARK   13  A    between atoms: N_25  and  C_26
REMARK   14  A    between atoms: C_26  and  C_27
REMARK                            x       y       z     vdW  Elec       q    Type
REMARK                         _______ _______ _______ _____ _____    ______ ____
ROOT
ATOM     16  C   UNL     1      49.207   7.156  15.751  0.00  0.00    +0.000 C 
ATOM     17  O   UNL     1      50.048   6.607  15.040  0.00  0.00    +0.000 OA
ATOM     18  N   UNL     1      48.046   7.661  15.220  0.00  0.00    +0.000 N 
ATOM     36  H   UNL     1      47.397   8.177  15.801  0.00  0.00    +0.000 HD
ENDROOT
BRANCH  16  15
ATOM      8  C   UNL     1      50.533   5.138  18.236  0.00  0.00    +0.000 A 
ATOM      9  N   UNL     1      51.087   4.652  19.370  0.00  0.00    +0.000 NA
ATOM     10  C   UNL     1      51.128   5.429  20.454  0.00  0.00    +0.000 A 
ATOM     11  N   UNL     1      50.658   6.663  20.563  0.00  0.00    +0.000 NA
ATOM     12  C   UNL     1      50.135   7.127  19.417  0.00  0.00    +0.000 A 
ATOM     13  S   UNL     1      49.514   8.706  19.383  0.00  0.00    +0.000 S 
ATOM     14  C   UNL     1      49.146   8.571  17.736  0.00  0.00    +0.000 A 
ATOM     15  C   UNL     1      49.459   7.333  17.185  0.00  0.00    +0.000 A 
ATOM     35  C   UNL     1      50.037   6.456  18.196  0.00  0.00    +0.000 A 
BRANCH   8   7
ATOM      7  O   UNL     1      50.533   4.317  17.119  0.00  0.00    +0.000 OA
BRANCH   7   6
ATOM      6  C   UNL     1      50.766   2.935  17.443  0.00  0.00    +0.000 C 
BRANCH   6   5
ATOM      5  C   UNL     1      49.684   2.042  16.836  0.00  0.00    +0.000 C 
BRANCH   5   4
ATOM      4  C   UNL     1      48.425   2.771  16.349  0.00  0.00    +0.000 C 
BRANCH   4   3
ATOM      3  C   UNL     1      47.392   3.187  17.405  0.00  0.00    +0.000 C 
BRANCH   3   2
ATOM      1  C   UNL     1      46.817   5.306  18.749  0.00  0.00    +0.000 C 
ATOM      2  C   UNL     1      46.907   4.641  17.383  0.00  0.00    +0.000 C 
ENDBRANCH   3   2
ENDBRANCH   4   3
ENDBRANCH   5   4
ENDBRANCH   6   5
ENDBRANCH   7   6
ENDBRANCH   8   7
ENDBRANCH  16  15
BRANCH  18  19
ATOM     19  C   UNL     1      47.847   7.643  13.786  0.00  0.00    +0.000 C 
BRANCH  19  20
ATOM     20  C   UNL     1      46.933   6.546  13.316  0.00  0.00    +0.000 A 
ATOM     21  C   UNL     1      47.256   5.191  13.468  0.00  0.00    +0.000 A 
ATOM     22  C   UNL     1      46.295   4.198  13.229  0.00  0.00    +0.000 A 
ATOM     23  C   UNL     1      44.992   4.546  12.855  0.00  0.00    +0.000 A 
ATOM     33  C   UNL     1      44.702   5.897  12.627  0.00  0.00    +0.000 A 
ATOM     34  C   UNL     1      45.655   6.883  12.856  0.00  0.00    +0.000 A 
BRANCH  23  24
ATOM     24  C   UNL     1      43.879   3.540  12.669  0.00  0.00    +0.000 C 
BRANCH  24  25
ATOM     25  N   UNL     1      44.064   2.668  11.508  0.00  0.00    +0.000 NA
ATOM     37  H   UNL     1      43.392   1.903  11.551  0.00  0.00    +0.000 HD
BRANCH  25  26
ATOM     26  C   UNL     1      43.815   3.423  10.275  0.00  0.00    +0.000 C 
BRANCH  26  27
ATOM     27  C   UNL     1      44.850   3.121   9.220  0.00  0.00    +0.000 A 
ATOM     28  C   UNL     1      45.419   4.147   8.451  0.00  0.00    +0.000 A 
ATOM     29  C   UNL     1      46.397   3.855   7.498  0.00  0.00    +0.000 A 
ATOM     30  C   UNL     1      46.816   2.540   7.306  0.00  0.00    +0.000 A 
ATOM     31  C   UNL     1      46.255   1.513   8.062  0.00  0.00    +0.000 A 
ATOM     32  C   UNL     1      45.280   1.802   9.016  0.00  0.00    +0.000 A 
ENDBRANCH  26  27
ENDBRANCH  25  26
ENDBRANCH  24  25
ENDBRANCH  23  24
ENDBRANCH  19  20
ENDBRANCH  18  19
TORSDOF 13
ENDMDL
MODEL 4
REMARK VINA RESULT:    -7.249      1.967      3.787
REMARK INTER + INTRA:         -14.617
REMARK INTER:                 -12.253
REMARK INTRA:                  -2.364
REMARK UNBOUND:                -1.859
REMARK  Name = 
REMARK  14 active torsions:
REMARK  status: ('A' for Active; 'I' for Inactive)
REMARK    1  A    between atoms: C_1  and  C_2
REMARK    2  A    between atoms: C_2  and  C_3
REMARK    3  A    between atoms: C_3  and  C_4
REMARK    4  A    between atoms: C_4  and  C_5
REMARK    5  A    between atoms: C_5  and  C_6
REMARK    6  A    between atoms: C_6  and  O_7
REMARK    7  A    between atoms: O_7  and  C_8
REMARK    8  A    between atoms: C_15  and  C_16
REMARK    9  A    between atoms: N_18  and  C_19
REMARK   10  A    between atoms: C_19  and  C_20
REMARK   11  A    between atoms: C_23  and  C_24
REMARK   12  A    between atoms: C_24  and  N_25
REMARK   13  A    between atoms: N_25  and  C_26
REMARK   14  A    between atoms: C_26  and  C_27
REMARK                            x       y       z     vdW  Elec       q    Type
REMARK                         _______ _______ _______ _____ _____    ______ ____
ROOT
ATOM     16  C   UNL     1      48.898   7.765  15.902  0.00  0.00    +0.000 C 
ATOM     17  O   UNL     1      49.936   7.654  15.251  0.00  0.00    +0.000 OA
ATOM     18  N   UNL     1      47.826   8.473  15.416  0.00  0.00    +0.000 N 
ATOM     36  H   UNL     1      47.005   8.622  15.990  0.00  0.00    +0.000 HD
ENDROOT
BRANCH  16  15
ATOM      8  C   UNL     1      48.436   4.555  17.121  0.00  0.00    +0.000 A 
ATOM      9  N   UNL     1      48.381   3.442  17.887  0.00  0.00    +0.000 NA
ATOM     10  C   UNL     1      48.477   3.564  19.212  0.00  0.00    +0.000 A 
ATOM     11  N   UNL     1      48.610   4.690  19.897  0.00  0.00    +0.000 NA
ATOM     12  C   UNL     1      48.685   5.776  19.110  0.00  0.00    +0.000 A 
ATOM     13  S   UNL     1      48.886   7.297  19.835  0.00  0.00    +0.000 S 
ATOM     14  C   UNL     1      48.956   8.055  18.323  0.00  0.00    +0.000 A 
ATOM     15  C   UNL     1      48.807   7.186  17.246  0.00  0.00    +0.000 A 
ATOM     35  C   UNL     1      48.626   5.818  17.716  0.00  0.00    +0.000 A 
BRANCH   8   7
ATOM      7  O   UNL     1      48.364   4.392  15.747  0.00  0.00    +0.000 OA
BRANCH   7   6
ATOM      6  C   UNL     1      47.010   4.306  15.265  0.00  0.00    +0.000 C 
BRANCH   6   5
ATOM      5  C   UNL     1      46.977   4.245  13.738  0.00  0.00    +0.000 C 
BRANCH   5   4
ATOM      4  C   UNL     1      45.702   3.645  13.132  0.00  0.00    +0.000 C 
BRANCH   4   3
ATOM      3  C   UNL     1      44.388   4.410  13.340  0.00  0.00    +0.000 C 
BRANCH   3   2
ATOM      1  C   UNL     1      43.373   2.774  11.632  0.00  0.00    +0.000 C 
ATOM      2  C   UNL     1      43.220   4.075  12.405  0.00  0.00    +0.000 C 
ENDBRANCH   3   2
ENDBRANCH   4   3
ENDBRANCH   5   4
ENDBRANCH   6   5
ENDBRANCH   7   6
ENDBRANCH   8   7
ENDBRANCH  16  15
BRANCH  18  19
ATOM     19  C   UNL     1      47.949   9.188  14.163  0.00  0.00    +0.000 C 
BRANCH  19  20
ATOM     20  C   UNL     1      47.259   8.513  13.011  0.00  0.00    +0.000 A 
ATOM     21  C   UNL     1      47.922   7.601  12.177  0.00  0.00    +0.000 A 
ATOM     22  C   UNL     1      47.203   6.824  11.258  0.00  0.00    +0.000 A 
ATOM     23  C   UNL     1      45.809   6.930  11.174  0.00  0.00    +0.000 A 
ATOM     33  C   UNL     1      45.167   7.900  11.953  0.00  0.00    +0.000 A 
ATOM     34  C   UNL     1      45.878   8.678  12.860  0.00  0.00    +0.000 A 
BRANCH  23  24
ATOM     24  C   UNL     1      44.958   6.061  10.276  0.00  0.00    +0.000 C 
BRANCH  24  25
ATOM     25  N   UNL     1      45.718   5.379   9.228  0.00  0.00    +0.000 NA
ATOM     37  H   UNL     1      46.567   4.984   9.631  0.00  0.00    +0.000 HD
BRANCH  25  26
ATOM     26  C   UNL     1      44.923   4.278   8.674  0.00  0.00    +0.000 C 
BRANCH  26  27
ATOM     27  C   UNL     1      45.791   3.266   7.968  0.00  0.00    +0.000 A 
ATOM     28  C   UNL     1      46.601   3.639   6.886  0.00  0.00    +0.000 A 
ATOM     29  C   UNL     1      47.421   2.698   6.261  0.00  0.00    +0.000 A 
ATOM     30  C   UNL     1      47.442   1.379   6.711  0.00  0.00    +0.000 A 
ATOM     31  C   UNL     1      46.638   0.997   7.784  0.00  0.00    +0.000 A 
ATOM     32  C   UNL     1      45.820   1.936   8.411  0.00  0.00    +0.000 A 
ENDBRANCH  26  27
ENDBRANCH  25  26
ENDBRANCH  24  25
ENDBRANCH  23  24
ENDBRANCH  19  20
ENDBRANCH  18  19
TORSDOF 13
ENDMDL
MODEL 5
REMARK VINA RESULT:    -7.191      1.955      4.039
REMARK INTER + INTRA:         -14.514
REMARK INTER:                 -12.297
REMARK INTRA:                  -2.217
REMARK UNBOUND:                -1.859
REMARK  Name = 
REMARK  14 active torsions:
REMARK  status: ('A' for Active; 'I' for Inactive)
REMARK    1  A    between atoms: C_1  and  C_2
REMARK    2  A    between atoms: C_2  and  C_3
REMARK    3  A    between atoms: C_3  and  C_4
REMARK    4  A    between atoms: C_4  and  C_5
REMARK    5  A    between atoms: C_5  and  C_6
REMARK    6  A    between atoms: C_6  and  O_7
REMARK    7  A    between atoms: O_7  and  C_8
REMARK    8  A    between atoms: C_15  and  C_16
REMARK    9  A    between atoms: N_18  and  C_19
REMARK   10  A    between atoms: C_19  and  C_20
REMARK   11  A    between atoms: C_23  and  C_24
REMARK   12  A    between atoms: C_24  and  N_25
REMARK   13  A    between atoms: N_25  and  C_26
REMARK   14  A    between atoms: C_26  and  C_27
REMARK                            x       y       z     vdW  Elec       q    Type
REMARK                         _______ _______ _______ _____ _____    ______ ____
ROOT
ATOM     16  C   UNL     1      48.888   6.406  16.243  0.00  0.00    +0.000 C 
ATOM     17  O   UNL     1      50.032   6.098  15.912  0.00  0.00    +0.000 OA
ATOM     18  N   UNL     1      47.899   6.586  15.307  0.00  0.00    +0.000 N 
ATOM     36  H   UNL     1      46.982   6.913  15.583  0.00  0.00    +0.000 HD
ENDROOT
BRANCH  16  15
ATOM      8  C   UNL     1      47.834   9.171  18.045  0.00  0.00    +0.000 A 
ATOM      9  N   UNL     1      47.332  10.010  18.980  0.00  0.00    +0.000 NA
ATOM     10  C   UNL     1      47.136   9.554  20.219  0.00  0.00    +0.000 A 
ATOM     11  N   UNL     1      47.398   8.335  20.666  0.00  0.00    +0.000 NA
ATOM     12  C   UNL     1      47.873   7.518  19.712  0.00  0.00    +0.000 A 
ATOM     13  S   UNL     1      48.232   5.911  20.118  0.00  0.00    +0.000 S 
ATOM     14  C   UNL     1      48.664   5.559  18.519  0.00  0.00    +0.000 A 
ATOM     15  C   UNL     1      48.569   6.645  17.655  0.00  0.00    +0.000 A 
ATOM     35  C   UNL     1      48.112   7.829  18.372  0.00  0.00    +0.000 A 
BRANCH   8   7
ATOM      7  O   UNL     1      47.997   9.666  16.761  0.00  0.00    +0.000 OA
BRANCH   7   6
ATOM      6  C   UNL     1      48.972  10.722  16.690  0.00  0.00    +0.000 C 
BRANCH   6   5
ATOM      5  C   UNL     1      49.541  10.846  15.276  0.00  0.00    +0.000 C 
BRANCH   5   4
ATOM      4  C   UNL     1      48.900   9.930  14.226  0.00  0.00    +0.000 C 
BRANCH   4   3
ATOM      3  C   UNL     1      48.312  10.590  12.972  0.00  0.00    +0.000 C 
BRANCH   3   2
ATOM      1  C   UNL     1      49.699   9.001  11.495  0.00  0.00    +0.000 C 
ATOM      2  C   UNL     1      48.426   9.821  11.651  0.00  0.00    +0.000 C 
ENDBRANCH   3   2
ENDBRANCH   4   3
ENDBRANCH   5   4
ENDBRANCH   6   5
ENDBRANCH   7   6
ENDBRANCH   8   7
ENDBRANCH  16  15
BRANCH  18  19
ATOM     19  C   UNL     1      48.227   6.514  13.898  0.00  0.00    +0.000 C 
BRANCH  19  20
ATOM     20  C   UNL     1      47.125   5.945  13.049  0.00  0.00    +0.000 A 
ATOM     21  C   UNL     1      46.243   4.969  13.531  0.00  0.00    +0.000 A 
ATOM     22  C   UNL     1      45.096   4.622  12.802  0.00  0.00    +0.000 A 
ATOM     23  C   UNL     1      44.804   5.261  11.591  0.00  0.00    +0.000 A 
ATOM     33  C   UNL     1      45.733   6.175  11.079  0.00  0.00    +0.000 A 
ATOM     34  C   UNL     1      46.874   6.515  11.797  0.00  0.00    +0.000 A 
BRANCH  23  24
ATOM     24  C   UNL     1      43.544   5.008  10.796  0.00  0.00    +0.000 C 
BRANCH  24  25
ATOM     25  N   UNL     1      43.794   4.498   9.447  0.00  0.00    +0.000 NA
ATOM     37  H   UNL     1      44.535   5.046   9.012  0.00  0.00    +0.000 HD
BRANCH  25  26
ATOM     26  C   UNL     1      44.243   3.103   9.518  0.00  0.00    +0.000 C 
BRANCH  26  27
ATOM     27  C   UNL     1      45.351   2.825   8.534  0.00  0.00    +0.000 A 
ATOM     28  C   UNL     1      45.865   3.843   7.717  0.00  0.00    +0.000 A 
ATOM     29  C   UNL     1      46.910   3.577   6.831  0.00  0.00    +0.000 A 
ATOM     30  C   UNL     1      47.453   2.296   6.753  0.00  0.00    +0.000 A 
ATOM     31  C   UNL     1      46.948   1.276   7.557  0.00  0.00    +0.000 A 
ATOM     32  C   UNL     1      45.905   1.540   8.445  0.00  0.00    +0.000 A 
ENDBRANCH  26  27
ENDBRANCH  25  26
ENDBRANCH  24  25
ENDBRANCH  23  24
ENDBRANCH  19  20
ENDBRANCH  18  19
TORSDOF 13
ENDMDL
MODEL 6
REMARK VINA RESULT:    -6.957      1.402      2.134
REMARK INTER + INTRA:         -14.103
REMARK INTER:                 -12.162
REMARK INTRA:                  -1.941
REMARK UNBOUND:                -1.859
REMARK  Name = 
REMARK  14 active torsions:
REMARK  status: ('A' for Active; 'I' for Inactive)
REMARK    1  A    between atoms: C_1  and  C_2
REMARK    2  A    between atoms: C_2  and  C_3
REMARK    3  A    between atoms: C_3  and  C_4
REMARK    4  A    between atoms: C_4  and  C_5
REMARK    5  A    between atoms: C_5  and  C_6
REMARK    6  A    between atoms: C_6  and  O_7
REMARK    7  A    between atoms: O_7  and  C_8
REMARK    8  A    between atoms: C_15  and  C_16
REMARK    9  A    between atoms: N_18  and  C_19
REMARK   10  A    between atoms: C_19  and  C_20
REMARK   11  A    between atoms: C_23  and  C_24
REMARK   12  A    between atoms: C_24  and  N_25
REMARK   13  A    between atoms: N_25  and  C_26
REMARK   14  A    between atoms: C_26  and  C_27
REMARK                            x       y       z     vdW  Elec       q    Type
REMARK                         _______ _______ _______ _____ _____    ______ ____
ROOT
ATOM     16  C   UNL     1      48.504   7.089  15.244  0.00  0.00    +0.000 C 
ATOM     17  O   UNL     1      49.281   6.203  14.890  0.00  0.00    +0.000 OA
ATOM     18  N   UNL     1      47.675   7.712  14.343  0.00  0.00    +0.000 N 
ATOM     36  H   UNL     1      47.095   8.490  14.629  0.00  0.00    +0.000 HD
ENDROOT
BRANCH  16  15
ATOM      8  C   UNL     1      48.549   5.470  18.306  0.00  0.00    +0.000 A 
ATOM      9  N   UNL     1      48.663   5.149  19.615  0.00  0.00    +0.000 NA
ATOM     10  C   UNL     1      48.721   6.130  20.518  0.00  0.00    +0.000 A 
ATOM     11  N   UNL     1      48.662   7.431  20.280  0.00  0.00    +0.000 NA
ATOM     12  C   UNL     1      48.572   7.721  18.972  0.00  0.00    +0.000 A 
ATOM     13  S   UNL     1      48.516   9.349  18.497  0.00  0.00    +0.000 S 
ATOM     14  C   UNL     1      48.482   8.915  16.861  0.00  0.00    +0.000 A 
ATOM     15  C   UNL     1      48.489   7.541  16.639  0.00  0.00    +0.000 A 
ATOM     35  C   UNL     1      48.525   6.820  17.906  0.00  0.00    +0.000 A 
BRANCH   8   7
ATOM      7  O   UNL     1      48.521   4.429  17.392  0.00  0.00    +0.000 OA
BRANCH   7   6
ATOM      6  C   UNL     1      49.103   3.218  17.907  0.00  0.00    +0.000 C 
BRANCH   6   5
ATOM      5  C   UNL     1      50.484   2.973  17.298  0.00  0.00    +0.000 C 
BRANCH   5   4
ATOM      4  C   UNL     1      51.672   3.411  18.164  0.00  0.00    +0.000 C 
BRANCH   4   3
ATOM      3  C   UNL     1      52.602   4.493  17.599  0.00  0.00    +0.000 C 
BRANCH   3   2
ATOM      1  C   UNL     1      52.872   6.625  16.182  0.00  0.00    +0.000 C 
ATOM      2  C   UNL     1      51.949   5.753  17.019  0.00  0.00    +0.000 C 
ENDBRANCH   3   2
ENDBRANCH   4   3
ENDBRANCH   5   4
ENDBRANCH   6   5
ENDBRANCH   7   6
ENDBRANCH   8   7
ENDBRANCH  16  15
BRANCH  18  19
ATOM     19  C   UNL     1      47.786   7.396  12.934  0.00  0.00    +0.000 C 
BRANCH  19  20
ATOM     20  C   UNL     1      46.633   6.591  12.402  0.00  0.00    +0.000 A 
ATOM     21  C   UNL     1      46.368   6.486  11.030  0.00  0.00    +0.000 A 
ATOM     22  C   UNL     1      45.432   5.557  10.554  0.00  0.00    +0.000 A 
ATOM     23  C   UNL     1      44.763   4.704  11.440  0.00  0.00    +0.000 A 
ATOM     33  C   UNL     1      44.975   4.872  12.813  0.00  0.00    +0.000 A 
ATOM     34  C   UNL     1      45.897   5.798  13.289  0.00  0.00    +0.000 A 
BRANCH  23  24
ATOM     24  C   UNL     1      43.812   3.617  10.995  0.00  0.00    +0.000 C 
BRANCH  24  25
ATOM     25  N   UNL     1      43.909   3.299   9.570  0.00  0.00    +0.000 NA
ATOM     37  H   UNL     1      44.399   4.054   9.090  0.00  0.00    +0.000 HD
BRANCH  25  26
ATOM     26  C   UNL     1      44.684   2.066   9.387  0.00  0.00    +0.000 C 
BRANCH  26  27
ATOM     27  C   UNL     1      45.679   2.197   8.260  0.00  0.00    +0.000 A 
ATOM     28  C   UNL     1      45.817   3.402   7.555  0.00  0.00    +0.000 A 
ATOM     29  C   UNL     1      46.762   3.517   6.534  0.00  0.00    +0.000 A 
ATOM     30  C   UNL     1      47.577   2.434   6.210  0.00  0.00    +0.000 A 
ATOM     31  C   UNL     1      47.446   1.231   6.902  0.00  0.00    +0.000 A 
ATOM     32  C   UNL     1      46.504   1.115   7.924  0.00  0.00    +0.000 A 
ENDBRANCH  26  27
ENDBRANCH  25  26
ENDBRANCH  24  25
ENDBRANCH  23  24
ENDBRANCH  19  20
ENDBRANCH  18  19
TORSDOF 13
ENDMDL
MODEL 7
REMARK VINA RESULT:    -6.911      2.231      2.832
REMARK INTER + INTRA:         -14.022
REMARK INTER:                 -12.187
REMARK INTRA:                  -1.836
REMARK UNBOUND:                -1.859
REMARK  Name = 
REMARK  14 active torsions:
REMARK  status: ('A' for Active; 'I' for Inactive)
REMARK    1  A    between atoms: C_1  and  C_2
REMARK    2  A    between atoms: C_2  and  C_3
REMARK    3  A    between atoms: C_3  and  C_4
REMARK    4  A    between atoms: C_4  and  C_5
REMARK    5  A    between atoms: C_5  and  C_6
REMARK    6  A    between atoms: C_6  and  O_7
REMARK    7  A    between atoms: O_7  and  C_8
REMARK    8  A    between atoms: C_15  and  C_16
REMARK    9  A    between atoms: N_18  and  C_19
REMARK   10  A    between atoms: C_19  and  C_20
REMARK   11  A    between atoms: C_23  and  C_24
REMARK   12  A    between atoms: C_24  and  N_25
REMARK   13  A    between atoms: N_25  and  C_26
REMARK   14  A    between atoms: C_26  and  C_27
REMARK                            x       y       z     vdW  Elec       q    Type
REMARK                         _______ _______ _______ _____ _____    ______ ____
ROOT
ATOM     16  C   UNL     1      49.123   8.571  13.788  0.00  0.00    +0.000 C 
ATOM     17  O   UNL     1      48.670   9.714  13.829  0.00  0.00    +0.000 OA
ATOM     18  N   UNL     1      48.382   7.528  13.289  0.00  0.00    +0.000 N 
ATOM     36  H   UNL     1      48.735   6.580  13.330  0.00  0.00    +0.000 HD
ENDROOT
BRANCH  16  15
ATOM      8  C   UNL     1      50.305   6.611  16.389  0.00  0.00    +0.000 A 
ATOM      9  N   UNL     1      51.066   5.880  17.235  0.00  0.00    +0.000 NA
ATOM     10  C   UNL     1      52.394   5.982  17.161  0.00  0.00    +0.000 A 
ATOM     11  N   UNL     1      53.086   6.754  16.337  0.00  0.00    +0.000 NA
ATOM     12  C   UNL     1      52.306   7.450  15.494  0.00  0.00    +0.000 A 
ATOM     13  S   UNL     1      53.042   8.468  14.353  0.00  0.00    +0.000 S 
ATOM     14  C   UNL     1      51.540   8.886  13.694  0.00  0.00    +0.000 A 
ATOM     15  C   UNL     1      50.456   8.289  14.330  0.00  0.00    +0.000 A 
ATOM     35  C   UNL     1      50.912   7.440  15.424  0.00  0.00    +0.000 A 
BRANCH   8   7
ATOM      7  O   UNL     1      48.930   6.460  16.471  0.00  0.00    +0.000 OA
BRANCH   7   6
ATOM      6  C   UNL     1      48.463   5.252  15.845  0.00  0.00    +0.000 C 
BRANCH   6   5
ATOM      5  C   UNL     1      47.390   4.574  16.698  0.00  0.00    +0.000 C 
BRANCH   5   4
ATOM      4  C   UNL     1      47.870   3.375  17.527  0.00  0.00    +0.000 C 
BRANCH   4   3
ATOM      3  C   UNL     1      48.969   2.490  16.925  0.00  0.00    +0.000 C 
BRANCH   3   2
ATOM      1  C   UNL     1      51.303   1.445  17.223  0.00  0.00    +0.000 C 
ATOM      2  C   UNL     1      50.379   2.620  17.512  0.00  0.00    +0.000 C 
ENDBRANCH   3   2
ENDBRANCH   4   3
ENDBRANCH   5   4
ENDBRANCH   6   5
ENDBRANCH   7   6
ENDBRANCH   8   7
ENDBRANCH  16  15
BRANCH  18  19
ATOM     19  C   UNL     1      47.006   7.752  12.897  0.00  0.00    +0.000 C 
BRANCH  19  20
ATOM     20  C   UNL     1      46.302   6.511  12.424  0.00  0.00    +0.000 A 
ATOM     21  C   UNL     1      45.704   5.609  13.315  0.00  0.00    +0.000 A 
ATOM     22  C   UNL     1      44.868   4.588  12.841  0.00  0.00    +0.000 A 
ATOM     23  C   UNL     1      44.602   4.466  11.472  0.00  0.00    +0.000 A 
ATOM     33  C   UNL     1      45.268   5.319  10.585  0.00  0.00    +0.000 A 
ATOM     34  C   UNL     1      46.103   6.329  11.052  0.00  0.00    +0.000 A 
BRANCH  23  24
ATOM     24  C   UNL     1      43.641   3.451  10.895  0.00  0.00    +0.000 C 
BRANCH  24  25
ATOM     25  N   UNL     1      43.822   3.222   9.461  0.00  0.00    +0.000 NA
ATOM     37  H   UNL     1      44.375   3.982   9.066  0.00  0.00    +0.000 HD
BRANCH  25  26
ATOM     26  C   UNL     1      44.555   1.969   9.247  0.00  0.00    +0.000 C 
BRANCH  26  27
ATOM     27  C   UNL     1      45.649   2.133   8.221  0.00  0.00    +0.000 A 
ATOM     28  C   UNL     1      45.820   3.345   7.535  0.00  0.00    +0.000 A 
ATOM     29  C   UNL     1      46.855   3.493   6.609  0.00  0.00    +0.000 A 
ATOM     30  C   UNL     1      47.728   2.434   6.362  0.00  0.00    +0.000 A 
ATOM     31  C   UNL     1      47.565   1.225   7.035  0.00  0.00    +0.000 A 
ATOM     32  C   UNL     1      46.534   1.077   7.962  0.00  0.00    +0.000 A 
ENDBRANCH  26  27
ENDBRANCH  25  26
ENDBRANCH  24  25
ENDBRANCH  23  24
ENDBRANCH  19  20
ENDBRANCH  18  19
TORSDOF 13
ENDMDL
MODEL 8
REMARK VINA RESULT:    -6.891      3.216      8.921
REMARK INTER + INTRA:         -13.987
REMARK INTER:                 -12.125
REMARK INTRA:                  -1.862
REMARK UNBOUND:                -1.859
REMARK  Name = 
REMARK  14 active torsions:
REMARK  status: ('A' for Active; 'I' for Inactive)
REMARK    1  A    between atoms: C_1  and  C_2
REMARK    2  A    between atoms: C_2  and  C_3
REMARK    3  A    between atoms: C_3  and  C_4
REMARK    4  A    between atoms: C_4  and  C_5
REMARK    5  A    between atoms: C_5  and  C_6
REMARK    6  A    between atoms: C_6  and  O_7
REMARK    7  A    between atoms: O_7  and  C_8
REMARK    8  A    between atoms: C_15  and  C_16
REMARK    9  A    between atoms: N_18  and  C_19
REMARK   10  A    between atoms: C_19  and  C_20
REMARK   11  A    between atoms: C_23  and  C_24
REMARK   12  A    between atoms: C_24  and  N_25
REMARK   13  A    between atoms: N_25  and  C_26
REMARK   14  A    between atoms: C_26  and  C_27
REMARK                            x       y       z     vdW  Elec       q    Type
REMARK                         _______ _______ _______ _____ _____    ______ ____
ROOT
ATOM     16  C   UNL     1      47.095   4.301  14.578  0.00  0.00    +0.000 C 
ATOM     17  O   UNL     1      47.284   3.170  14.133  0.00  0.00    +0.000 OA
ATOM     18  N   UNL     1      47.120   4.548  15.929  0.00  0.00    +0.000 N 
ATOM     36  H   UNL     1      46.889   5.466  16.288  0.00  0.00    +0.000 HD
ENDROOT
BRANCH  16  15
ATOM      8  C   UNL     1      44.314   5.162  12.701  0.00  0.00    +0.000 A 
ATOM      9  N   UNL     1      43.382   5.809  11.963  0.00  0.00    +0.000 NA
ATOM     10  C   UNL     1      43.696   6.981  11.409  0.00  0.00    +0.000 A 
ATOM     11  N   UNL     1      44.860   7.608  11.485  0.00  0.00    +0.000 NA
ATOM     12  C   UNL     1      45.757   6.956  12.242  0.00  0.00    +0.000 A 
ATOM     13  S   UNL     1      47.293   7.643  12.461  0.00  0.00    +0.000 S 
ATOM     14  C   UNL     1      47.758   6.380  13.488  0.00  0.00    +0.000 A 
ATOM     15  C   UNL     1      46.780   5.407  13.668  0.00  0.00    +0.000 A 
ATOM     35  C   UNL     1      45.583   5.740  12.905  0.00  0.00    +0.000 A 
BRANCH   8   7
ATOM      7  O   UNL     1      43.948   3.962  13.287  0.00  0.00    +0.000 OA
BRANCH   7   6
ATOM      6  C   UNL     1      43.593   2.955  12.322  0.00  0.00    +0.000 C 
BRANCH   6   5
ATOM      5  C   UNL     1      44.708   2.769  11.292  0.00  0.00    +0.000 C 
BRANCH   5   4
ATOM      4  C   UNL     1      44.267   2.839   9.825  0.00  0.00    +0.000 C 
BRANCH   4   3
ATOM      3  C   UNL     1      45.281   2.410   8.756  0.00  0.00    +0.000 C 
BRANCH   3   2
ATOM      1  C   UNL     1      46.798   3.126   6.804  0.00  0.00    +0.000 C 
ATOM      2  C   UNL     1      45.508   3.360   7.576  0.00  0.00    +0.000 C 
ENDBRANCH   3   2
ENDBRANCH   4   3
ENDBRANCH   5   4
ENDBRANCH   6   5
ENDBRANCH   7   6
ENDBRANCH   8   7
ENDBRANCH  16  15
BRANCH  18  19
ATOM     19  C   UNL     1      47.269   3.445  16.855  0.00  0.00    +0.000 C 
BRANCH  19  20
ATOM     20  C   UNL     1      48.666   3.286  17.387  0.00  0.00    +0.000 A 
ATOM     21  C   UNL     1      49.516   2.260  16.953  0.00  0.00    +0.000 A 
ATOM     22  C   UNL     1      50.876   2.269  17.294  0.00  0.00    +0.000 A 
ATOM     23  C   UNL     1      51.411   3.315  18.056  0.00  0.00    +0.000 A 
ATOM     33  C   UNL     1      50.538   4.290  18.553  0.00  0.00    +0.000 A 
ATOM     34  C   UNL     1      49.188   4.280  18.222  0.00  0.00    +0.000 A 
BRANCH  23  24
ATOM     24  C   UNL     1      52.881   3.442  18.385  0.00  0.00    +0.000 C 
BRANCH  24  25
ATOM     25  N   UNL     1      53.664   4.083  17.329  0.00  0.00    +0.000 NA
ATOM     37  H   UNL     1      53.149   4.033  16.450  0.00  0.00    +0.000 HD
BRANCH  25  26
ATOM     26  C   UNL     1      53.872   5.499  17.654  0.00  0.00    +0.000 C 
BRANCH  26  27
ATOM     27  C   UNL     1      53.400   6.400  16.539  0.00  0.00    +0.000 A 
ATOM     28  C   UNL     1      54.291   6.865  15.561  0.00  0.00    +0.000 A 
ATOM     29  C   UNL     1      53.835   7.674  14.519  0.00  0.00    +0.000 A 
ATOM     30  C   UNL     1      52.488   8.025  14.443  0.00  0.00    +0.000 A 
ATOM     31  C   UNL     1      51.595   7.571  15.412  0.00  0.00    +0.000 A 
ATOM     32  C   UNL     1      52.048   6.760  16.452  0.00  0.00    +0.000 A 
ENDBRANCH  26  27
ENDBRANCH  25  26
ENDBRANCH  24  25
ENDBRANCH  23  24
ENDBRANCH  19  20
ENDBRANCH  18  19
TORSDOF 13
ENDMDL
MODEL 9
REMARK VINA RESULT:    -6.663      1.162      1.963
REMARK INTER + INTRA:         -13.585
REMARK INTER:                 -12.056
REMARK INTRA:                  -1.529
REMARK UNBOUND:                -1.859
REMARK  Name = 
REMARK  14 active torsions:
REMARK  status: ('A' for Active; 'I' for Inactive)
REMARK    1  A    between atoms: C_1  and  C_2
REMARK    2  A    between atoms: C_2  and  C_3
REMARK    3  A    between atoms: C_3  and  C_4
REMARK    4  A    between atoms: C_4  and  C_5
REMARK    5  A    between atoms: C_5  and  C_6
REMARK    6  A    between atoms: C_6  and  O_7
REMARK    7  A    between atoms: O_7  and  C_8
REMARK    8  A    between atoms: C_15  and  C_16
REMARK    9  A    between atoms: N_18  and  C_19
REMARK   10  A    between atoms: C_19  and  C_20
REMARK   11  A    between atoms: C_23  and  C_24
REMARK   12  A    between atoms: C_24  and  N_25
REMARK   13  A    between atoms: N_25  and  C_26
REMARK   14  A    between atoms: C_26  and  C_27
REMARK                            x       y       z     vdW  Elec       q    Type
REMARK                         _______ _______ _______ _____ _____    ______ ____
ROOT
ATOM     16  C   UNL     1      49.022   7.939  15.089  0.00  0.00    +0.000 C 
ATOM     17  O   UNL     1      50.083   7.333  14.945  0.00  0.00    +0.000 OA
ATOM     18  N   UNL     1      47.830   7.397  14.673  0.00  0.00    +0.000 N 
ATOM     36  H   UNL     1      46.974   7.934  14.727  0.00  0.00    +0.000 HD
ENDROOT
BRANCH  16  15
ATOM      8  C   UNL     1      48.508   9.209  18.271  0.00  0.00    +0.000 A 
ATOM      9  N   UNL     1      48.463   9.982  19.380  0.00  0.00    +0.000 NA
ATOM     10  C   UNL     1      48.678  11.294  19.261  0.00  0.00    +0.000 A 
ATOM     11  N   UNL     1      48.924  11.959  18.143  0.00  0.00    +0.000 NA
ATOM     12  C   UNL     1      48.986  11.164  17.063  0.00  0.00    +0.000 A 
ATOM     13  S   UNL     1      49.322  11.861  15.553  0.00  0.00    +0.000 S 
ATOM     14  C   UNL     1      49.300  10.345  14.801  0.00  0.00    +0.000 A 
ATOM     15  C   UNL     1      49.017   9.289  15.662  0.00  0.00    +0.000 A 
ATOM     35  C   UNL     1      48.809   9.780  17.019  0.00  0.00    +0.000 A 
BRANCH   8   7
ATOM      7  O   UNL     1      48.311   7.847  18.432  0.00  0.00    +0.000 OA
BRANCH   7   6
ATOM      6  C   UNL     1      47.826   7.504  19.742  0.00  0.00    +0.000 C 
BRANCH   6   5
ATOM      5  C   UNL     1      47.232   6.094  19.754  0.00  0.00    +0.000 C 
BRANCH   5   4
ATOM      4  C   UNL     1      47.542   5.240  18.518  0.00  0.00    +0.000 C 
BRANCH   4   3
ATOM      3  C   UNL     1      48.516   4.067  18.692  0.00  0.00    +0.000 C 
BRANCH   3   2
ATOM      1  C   UNL     1      47.734   3.328  16.354  0.00  0.00    +0.000 C 
ATOM      2  C   UNL     1      48.734   3.146  17.487  0.00  0.00    +0.000 C 
ENDBRANCH   3   2
ENDBRANCH   4   3
ENDBRANCH   5   4
ENDBRANCH   6   5
ENDBRANCH   7   6
ENDBRANCH   8   7
ENDBRANCH  16  15
BRANCH  18  19
ATOM     19  C   UNL     1      47.828   6.137  13.959  0.00  0.00    +0.000 C 
BRANCH  19  20
ATOM     20  C   UNL     1      46.643   5.957  13.052  0.00  0.00    +0.000 A 
ATOM     21  C   UNL     1      46.586   6.540  11.779  0.00  0.00    +0.000 A 
ATOM     22  C   UNL     1      45.579   6.176  10.874  0.00  0.00    +0.000 A 
ATOM     23  C   UNL     1      44.628   5.209  11.220  0.00  0.00    +0.000 A 
ATOM     33  C   UNL     1      44.645   4.694  12.521  0.00  0.00    +0.000 A 
ATOM     34  C   UNL     1      45.639   5.058  13.424  0.00  0.00    +0.000 A 
BRANCH  23  24
ATOM     24  C   UNL     1      43.570   4.698  10.268  0.00  0.00    +0.000 C 
BRANCH  24  25
ATOM     25  N   UNL     1      44.111   4.219   8.995  0.00  0.00    +0.000 NA
ATOM     37  H   UNL     1      44.855   4.844   8.688  0.00  0.00    +0.000 HD
BRANCH  25  26
ATOM     26  C   UNL     1      44.687   2.881   9.172  0.00  0.00    +0.000 C 
BRANCH  26  27
ATOM     27  C   UNL     1      45.691   2.561   8.093  0.00  0.00    +0.000 A 
ATOM     28  C   UNL     1      46.011   3.501   7.102  0.00  0.00    +0.000 A 
ATOM     29  C   UNL     1      46.964   3.202   6.127  0.00  0.00    +0.000 A 
ATOM     30  C   UNL     1      47.607   1.965   6.133  0.00  0.00    +0.000 A 
ATOM     31  C   UNL     1      47.295   1.023   7.111  0.00  0.00    +0.000 A 
ATOM     32  C   UNL     1      46.345   1.320   8.088  0.00  0.00    +0.000 A 
ENDBRANCH  26  27
ENDBRANCH  25  26
ENDBRANCH  24  25
ENDBRANCH  23  24
ENDBRANCH  19  20
ENDBRANCH  18  19
TORSDOF 13
ENDMDL
