MODEL 1
REMARK VINA RESULT:    -7.614      0.000      0.000
REMARK INTER + INTRA:         -11.026
REMARK INTER:                 -10.285
REMARK INTRA:                  -0.741
REMARK UNBOUND:                -0.741
REMARK  Name = 
REMARK  7 active torsions:
REMARK  status: ('A' for Active; 'I' for Inactive)
REMARK    1  A    between atoms: C_1  and  O_2
REMARK    2  A    between atoms: O_2  and  C_3
REMARK    3  A    between atoms: C_10  and  C_11
REMARK    4  A    between atoms: N_13  and  C_14
REMARK    5  A    between atoms: C_14  and  C_15
REMARK    6  A    between atoms: C_18  and  C_19
REMARK    7  A    between atoms: C_19  and  N_20
REMARK                            x       y       z     vdW  Elec       q    Type
REMARK                         _______ _______ _______ _____ _____    ______ ____
ROOT
ATOM     11  C   UNL     1      46.382   4.686  13.727  0.00  0.00    +0.000 C 
ATOM     12  O   UNL     1      46.487   3.461  13.641  0.00  0.00    +0.000 OA
ATOM     13  N   UNL     1      45.274   5.343  13.272  0.00  0.00    +0.000 N 
ATOM     29  H   UNL     1      45.207   6.353  13.355  0.00  0.00    +0.000 HD
ENDROOT
BRANCH  11  10
ATOM      3  C   UNL     1      47.759   4.751  16.893  0.00  0.00    +0.000 A 
ATOM      4  N   UNL     1      48.452   5.008  18.023  0.00  0.00    +0.000 NA
ATOM      5  C   UNL     1      49.365   5.977  17.999  0.00  0.00    +0.000 A 
ATOM      6  N   UNL     1      49.682   6.747  16.961  0.00  0.00    +0.000 NA
ATOM      7  C   UNL     1      48.966   6.468  15.861  0.00  0.00    +0.000 A 
ATOM      8  S   UNL     1      49.250   7.355  14.442  0.00  0.00    +0.000 S 
ATOM      9  C   UNL     1      48.074   6.471  13.597  0.00  0.00    +0.000 A 
ATOM     10  C   UNL     1      47.436   5.502  14.360  0.00  0.00    +0.000 A 
ATOM     28  C   UNL     1      47.977   5.496  15.722  0.00  0.00    +0.000 A 
BRANCH   3   2
ATOM      1  C   UNL     1      47.237   2.671  17.806  0.00  0.00    +0.000 C 
ATOM      2  O   UNL     1      46.824   3.734  16.944  0.00  0.00    +0.000 OA
ENDBRANCH   3   2
ENDBRANCH  11  10
BRANCH  13  14
ATOM     14  C   UNL     1      44.178   4.664  12.618  0.00  0.00    +0.000 C 
BRANCH  14  15
ATOM     15  C   UNL     1      44.499   4.285  11.188  0.00  0.00    +0.000 A 
ATOM     16  C   UNL     1      44.116   3.041  10.663  0.00  0.00    +0.000 A 
ATOM     17  C   UNL     1      44.393   2.687   9.324  0.00  0.00    +0.000 A 
ATOM     18  C   UNL     1      45.100   3.548   8.471  0.00  0.00    +0.000 A 
ATOM     26  C   UNL     1      45.487   4.789   9.004  0.00  0.00    +0.000 A 
ATOM     27  C   UNL     1      45.201   5.149  10.340  0.00  0.00    +0.000 A 
BRANCH  18  19
ATOM     19  C   UNL     1      45.601   3.074   7.094  0.00  0.00    +0.000 C 
BRANCH  19  20
ATOM     20  N   UNL     1      47.056   2.988   6.821  0.00  0.00    +0.000 NA
ATOM     21  C   UNL     1      47.335   3.085   5.350  0.00  0.00    +0.000 C 
ATOM     22  C   UNL     1      46.867   1.860   4.533  0.00  0.00    +0.000 C 
ATOM     23  O   UNL     1      47.459   0.656   5.037  0.00  0.00    +0.000 OA
ATOM     24  C   UNL     1      47.208   0.503   6.441  0.00  0.00    +0.000 C 
ATOM     25  C   UNL     1      47.685   1.722   7.251  0.00  0.00    +0.000 C 
ENDBRANCH  19  20
ENDBRANCH  18  19
ENDBRANCH  14  15
ENDBRANCH  13  14
TORSDOF 6
ENDMDL
MODEL 2
REMARK VINA RESULT:    -7.254      1.441      2.710
REMARK INTER + INTRA:         -10.539
REMARK INTER:                  -9.776
REMARK INTRA:                  -0.762
REMARK UNBOUND:                -0.741
REMARK  Name = 
REMARK  7 active torsions:
REMARK  status: ('A' for Active; 'I' for Inactive)
REMARK    1  A    between atoms: C_1  and  O_2
REMARK    2  A    between atoms: O_2  and  C_3
REMARK    3  A    between atoms: C_10  and  C_11
REMARK    4  A    between atoms: N_13  and  C_14
REMARK    5  A    between atoms: C_14  and  C_15
REMARK    6  A    between atoms: C_18  and  C_19
REMARK    7  A    between atoms: C_19  and  N_20
REMARK                            x       y       z     vdW  Elec       q    Type
REMARK                         _______ _______ _______ _____ _____    ______ ____
ROOT
ATOM     11  C   UNL     1      45.902   4.584  13.693  0.00  0.00    +0.000 C 
ATOM     12  O   UNL     1      45.720   3.423  13.321  0.00  0.00    +0.000 OA
ATOM     13  N   UNL     1      45.096   5.604  13.276  0.00  0.00    +0.000 N 
ATOM     29  H   UNL     1      45.263   6.553  13.596  0.00  0.00    +0.000 HD
ENDROOT
BRANCH  11  10
ATOM      3  C   UNL     1      48.508   6.848  13.606  0.00  0.00    +0.000 A 
ATOM      4  N   UNL     1      49.599   7.609  13.834  0.00  0.00    +0.000 NA
ATOM      5  C   UNL     1      50.257   7.446  14.981  0.00  0.00    +0.000 A 
ATOM      6  N   UNL     1      49.956   6.593  15.957  0.00  0.00    +0.000 NA
ATOM      7  C   UNL     1      48.872   5.849  15.690  0.00  0.00    +0.000 A 
ATOM      8  S   UNL     1      48.347   4.712  16.834  0.00  0.00    +0.000 S 
ATOM      9  C   UNL     1      47.047   4.246  15.848  0.00  0.00    +0.000 A 
ATOM     10  C   UNL     1      46.985   4.923  14.637  0.00  0.00    +0.000 A 
ATOM     28  C   UNL     1      48.081   5.891  14.543  0.00  0.00    +0.000 A 
BRANCH   3   2
ATOM      1  C   UNL     1      47.632   8.432  12.137  0.00  0.00    +0.000 C 
ATOM      2  O   UNL     1      47.840   7.044  12.412  0.00  0.00    +0.000 OA
ENDBRANCH   3   2
ENDBRANCH  11  10
BRANCH  13  14
ATOM     14  C   UNL     1      44.011   5.408  12.340  0.00  0.00    +0.000 C 
BRANCH  14  15
ATOM     15  C   UNL     1      44.478   4.829  11.022  0.00  0.00    +0.000 A 
ATOM     16  C   UNL     1      45.411   5.506  10.221  0.00  0.00    +0.000 A 
ATOM     17  C   UNL     1      45.867   4.965   8.999  0.00  0.00    +0.000 A 
ATOM     18  C   UNL     1      45.377   3.743   8.512  0.00  0.00    +0.000 A 
ATOM     26  C   UNL     1      44.439   3.073   9.315  0.00  0.00    +0.000 A 
ATOM     27  C   UNL     1      43.990   3.608  10.542  0.00  0.00    +0.000 A 
BRANCH  18  19
ATOM     19  C   UNL     1      45.697   3.267   7.084  0.00  0.00    +0.000 C 
BRANCH  19  20
ATOM     20  N   UNL     1      47.107   3.118   6.647  0.00  0.00    +0.000 NA
ATOM     21  C   UNL     1      47.200   3.012   5.153  0.00  0.00    +0.000 C 
ATOM     22  C   UNL     1      46.633   1.696   4.574  0.00  0.00    +0.000 C 
ATOM     23  O   UNL     1      47.281   0.561   5.160  0.00  0.00    +0.000 OA
ATOM     24  C   UNL     1      47.208   0.602   6.592  0.00  0.00    +0.000 C 
ATOM     25  C   UNL     1      47.783   1.911   7.163  0.00  0.00    +0.000 C 
ENDBRANCH  19  20
ENDBRANCH  18  19
ENDBRANCH  14  15
ENDBRANCH  13  14
TORSDOF 6
ENDMDL
MODEL 3
REMARK VINA RESULT:    -6.800      2.366      3.592
REMARK INTER + INTRA:          -9.925
REMARK INTER:                  -9.000
REMARK INTRA:                  -0.925
REMARK UNBOUND:                -0.741
REMARK  Name = 
REMARK  7 active torsions:
REMARK  status: ('A' for Active; 'I' for Inactive)
REMARK    1  A    between atoms: C_1  and  O_2
REMARK    2  A    between atoms: O_2  and  C_3
REMARK    3  A    between atoms: C_10  and  C_11
REMARK    4  A    between atoms: N_13  and  C_14
REMARK    5  A    between atoms: C_14  and  C_15
REMARK    6  A    between atoms: C_18  and  C_19
REMARK    7  A    between atoms: C_19  and  N_20
REMARK                            x       y       z     vdW  Elec       q    Type
REMARK                         _______ _______ _______ _____ _____    ______ ____
ROOT
ATOM     11  C   UNL     1      46.821   5.854  13.524  0.00  0.00    +0.000 C 
ATOM     12  O   UNL     1      47.262   4.705  13.586  0.00  0.00    +0.000 OA
ATOM     13  N   UNL     1      45.528   6.106  13.164  0.00  0.00    +0.000 N 
ATOM     29  H   UNL     1      45.184   7.060  13.121  0.00  0.00    +0.000 HD
ENDROOT
BRANCH  11  10
ATOM      3  C   UNL     1      46.881   9.143  12.472  0.00  0.00    +0.000 A 
ATOM      4  N   UNL     1      47.143  10.446  12.239  0.00  0.00    +0.000 NA
ATOM      5  C   UNL     1      48.143  11.020  12.905  0.00  0.00    +0.000 A 
ATOM      6  N   UNL     1      48.941  10.440  13.798  0.00  0.00    +0.000 NA
ATOM      7  C   UNL     1      48.656   9.144  13.996  0.00  0.00    +0.000 A 
ATOM      8  S   UNL     1      49.575   8.254  15.110  0.00  0.00    +0.000 S 
ATOM      9  C   UNL     1      48.666   6.853  14.816  0.00  0.00    +0.000 A 
ATOM     10  C   UNL     1      47.662   7.017  13.870  0.00  0.00    +0.000 A 
ATOM     28  C   UNL     1      47.653   8.397  13.379  0.00  0.00    +0.000 A 
BRANCH   3   2
ATOM      1  C   UNL     1      44.782   9.514  11.530  0.00  0.00    +0.000 C 
ATOM      2  O   UNL     1      45.832   8.575  11.773  0.00  0.00    +0.000 OA
ENDBRANCH   3   2
ENDBRANCH  11  10
BRANCH  13  14
ATOM     14  C   UNL     1      44.606   5.059  12.786  0.00  0.00    +0.000 C 
BRANCH  14  15
ATOM     15  C   UNL     1      44.816   4.584  11.364  0.00  0.00    +0.000 A 
ATOM     16  C   UNL     1      44.407   3.305  10.957  0.00  0.00    +0.000 A 
ATOM     17  C   UNL     1      44.581   2.860   9.628  0.00  0.00    +0.000 A 
ATOM     18  C   UNL     1      45.208   3.665   8.664  0.00  0.00    +0.000 A 
ATOM     26  C   UNL     1      45.622   4.942   9.078  0.00  0.00    +0.000 A 
ATOM     27  C   UNL     1      45.438   5.392  10.405  0.00  0.00    +0.000 A 
BRANCH  18  19
ATOM     19  C   UNL     1      45.603   3.100   7.287  0.00  0.00    +0.000 C 
BRANCH  19  20
ATOM     20  N   UNL     1      47.026   3.082   6.871  0.00  0.00    +0.000 NA
ATOM     21  C   UNL     1      47.153   3.176   5.379  0.00  0.00    +0.000 C 
ATOM     22  C   UNL     1      46.668   1.919   4.621  0.00  0.00    +0.000 C 
ATOM     23  O   UNL     1      47.367   0.752   5.072  0.00  0.00    +0.000 OA
ATOM     24  C   UNL     1      47.264   0.604   6.494  0.00  0.00    +0.000 C 
ATOM     25  C   UNL     1      47.757   1.854   7.244  0.00  0.00    +0.000 C 
ENDBRANCH  19  20
ENDBRANCH  18  19
ENDBRANCH  14  15
ENDBRANCH  13  14
TORSDOF 6
ENDMDL
MODEL 4
REMARK VINA RESULT:    -6.770      4.320      9.802
REMARK INTER + INTRA:          -9.885
REMARK INTER:                  -9.071
REMARK INTRA:                  -0.814
REMARK UNBOUND:                -0.741
REMARK  Name = 
REMARK  7 active torsions:
REMARK  status: ('A' for Active; 'I' for Inactive)
REMARK    1  A    between atoms: C_1  and  O_2
REMARK    2  A    between atoms: O_2  and  C_3
REMARK    3  A    between atoms: C_10  and  C_11
REMARK    4  A    between atoms: N_13  and  C_14
REMARK    5  A    between atoms: C_14  and  C_15
REMARK    6  A    between atoms: C_18  and  C_19
REMARK    7  A    between atoms: C_19  and  N_20
REMARK                            x       y       z     vdW  Elec       q    Type
REMARK                         _______ _______ _______ _____ _____    ______ ____
ROOT
ATOM     11  C   UNL     1      46.894   4.229  14.429  0.00  0.00    +0.000 C 
ATOM     12  O   UNL     1      47.247   3.156  13.937  0.00  0.00    +0.000 OA
ATOM     13  N   UNL     1      46.924   4.443  15.778  0.00  0.00    +0.000 N 
ATOM     29  H   UNL     1      46.630   5.336  16.162  0.00  0.00    +0.000 HD
ENDROOT
BRANCH  11  10
ATOM      3  C   UNL     1      43.973   4.903  12.714  0.00  0.00    +0.000 A 
ATOM      4  N   UNL     1      42.981   5.407  11.950  0.00  0.00    +0.000 NA
ATOM      5  C   UNL     1      43.178   6.579  11.348  0.00  0.00    +0.000 A 
ATOM      6  N   UNL     1      44.274   7.331  11.410  0.00  0.00    +0.000 NA
ATOM      7  C   UNL     1      45.240   6.793  12.170  0.00  0.00    +0.000 A 
ATOM      8  S   UNL     1      46.704   7.628  12.361  0.00  0.00    +0.000 S 
ATOM      9  C   UNL     1      47.322   6.413  13.371  0.00  0.00    +0.000 A 
ATOM     10  C   UNL     1      46.450   5.351  13.579  0.00  0.00    +0.000 A 
ATOM     28  C   UNL     1      45.195   5.582  12.859  0.00  0.00    +0.000 A 
BRANCH   3   2
ATOM      1  C   UNL     1      43.601   2.625  12.391  0.00  0.00    +0.000 C 
ATOM      2  O   UNL     1      43.737   3.690  13.335  0.00  0.00    +0.000 OA
ENDBRANCH   3   2
ENDBRANCH  11  10
BRANCH  13  14
ATOM     14  C   UNL     1      47.322   3.422  16.720  0.00  0.00    +0.000 C 
BRANCH  14  15
ATOM     15  C   UNL     1      48.788   3.508  17.086  0.00  0.00    +0.000 A 
ATOM     16  C   UNL     1      49.384   4.736  17.412  0.00  0.00    +0.000 A 
ATOM     17  C   UNL     1      50.747   4.824  17.773  0.00  0.00    +0.000 A 
ATOM     18  C   UNL     1      51.575   3.691  17.783  0.00  0.00    +0.000 A 
ATOM     26  C   UNL     1      50.975   2.465  17.449  0.00  0.00    +0.000 A 
ATOM     27  C   UNL     1      49.610   2.375  17.098  0.00  0.00    +0.000 A 
BRANCH  18  19
ATOM     19  C   UNL     1      53.100   3.818  17.951  0.00  0.00    +0.000 C 
BRANCH  19  20
ATOM     20  N   UNL     1      53.749   3.383  19.212  0.00  0.00    +0.000 NA
ATOM     21  C   UNL     1      53.000   3.894  20.407  0.00  0.00    +0.000 C 
ATOM     22  C   UNL     1      53.094   5.424  20.608  0.00  0.00    +0.000 C 
ATOM     23  O   UNL     1      54.461   5.842  20.705  0.00  0.00    +0.000 OA
ATOM     24  C   UNL     1      55.222   5.393  19.576  0.00  0.00    +0.000 C 
ATOM     25  C   UNL     1      55.133   3.868  19.386  0.00  0.00    +0.000 C 
ENDBRANCH  19  20
ENDBRANCH  18  19
ENDBRANCH  14  15
ENDBRANCH  13  14
TORSDOF 6
ENDMDL
MODEL 5
REMARK VINA RESULT:    -6.742      3.620      5.872
REMARK INTER + INTRA:          -9.848
REMARK INTER:                  -8.864
REMARK INTRA:                  -0.984
REMARK UNBOUND:                -0.741
REMARK  Name = 
REMARK  7 active torsions:
REMARK  status: ('A' for Active; 'I' for Inactive)
REMARK    1  A    between atoms: C_1  and  O_2
REMARK    2  A    between atoms: O_2  and  C_3
REMARK    3  A    between atoms: C_10  and  C_11
REMARK    4  A    between atoms: N_13  and  C_14
REMARK    5  A    between atoms: C_14  and  C_15
REMARK    6  A    between atoms: C_18  and  C_19
REMARK    7  A    between atoms: C_19  and  N_20
REMARK                            x       y       z     vdW  Elec       q    Type
REMARK                         _______ _______ _______ _____ _____    ______ ____
ROOT
ATOM     11  C   UNL     1      50.362   5.996  17.551  0.00  0.00    +0.000 C 
ATOM     12  O   UNL     1      49.533   6.397  18.370  0.00  0.00    +0.000 OA
ATOM     13  N   UNL     1      50.409   6.492  16.279  0.00  0.00    +0.000 N 
ATOM     29  H   UNL     1      51.102   6.149  15.620  0.00  0.00    +0.000 HD
ENDROOT
BRANCH  11  10
ATOM      3  C   UNL     1      50.527   2.567  17.172  0.00  0.00    +0.000 A 
ATOM      4  N   UNL     1      50.847   1.257  17.176  0.00  0.00    +0.000 NA
ATOM      5  C   UNL     1      52.007   0.889  17.717  0.00  0.00    +0.000 A 
ATOM      6  N   UNL     1      52.914   1.688  18.275  0.00  0.00    +0.000 NA
ATOM      7  C   UNL     1      52.556   2.981  18.261  0.00  0.00    +0.000 A 
ATOM      8  S   UNL     1      53.603   4.136  18.929  0.00  0.00    +0.000 S 
ATOM      9  C   UNL     1      52.536   5.398  18.543  0.00  0.00    +0.000 A 
ATOM     10  C   UNL     1      51.369   4.981  17.916  0.00  0.00    +0.000 A 
ATOM     28  C   UNL     1      51.383   3.526  17.742  0.00  0.00    +0.000 A 
BRANCH   3   2
ATOM      1  C   UNL     1      48.256   2.930  17.550  0.00  0.00    +0.000 C 
ATOM      2  O   UNL     1      49.321   2.921  16.596  0.00  0.00    +0.000 OA
ENDBRANCH   3   2
ENDBRANCH  11  10
BRANCH  13  14
ATOM     14  C   UNL     1      49.471   7.477  15.791  0.00  0.00    +0.000 C 
BRANCH  14  15
ATOM     15  C   UNL     1      48.512   6.909  14.766  0.00  0.00    +0.000 A 
ATOM     16  C   UNL     1      47.870   5.678  14.976  0.00  0.00    +0.000 A 
ATOM     17  C   UNL     1      46.960   5.149  14.036  0.00  0.00    +0.000 A 
ATOM     18  C   UNL     1      46.686   5.812  12.829  0.00  0.00    +0.000 A 
ATOM     26  C   UNL     1      47.337   7.040  12.621  0.00  0.00    +0.000 A 
ATOM     27  C   UNL     1      48.240   7.575  13.566  0.00  0.00    +0.000 A 
BRANCH  18  19
ATOM     19  C   UNL     1      45.879   5.132  11.709  0.00  0.00    +0.000 C 
BRANCH  19  20
ATOM     20  N   UNL     1      44.426   5.400  11.571  0.00  0.00    +0.000 NA
ATOM     21  C   UNL     1      43.651   4.750  12.678  0.00  0.00    +0.000 C 
ATOM     22  C   UNL     1      43.614   3.206  12.605  0.00  0.00    +0.000 C 
ATOM     23  O   UNL     1      43.083   2.768  11.349  0.00  0.00    +0.000 OA
ATOM     24  C   UNL     1      43.801   3.348  10.251  0.00  0.00    +0.000 C 
ATOM     25  C   UNL     1      43.825   4.886  10.324  0.00  0.00    +0.000 C 
ENDBRANCH  19  20
ENDBRANCH  18  19
ENDBRANCH  14  15
ENDBRANCH  13  14
TORSDOF 6
ENDMDL
MODEL 6
REMARK VINA RESULT:    -6.275      4.592      6.813
REMARK INTER + INTRA:          -9.217
REMARK INTER:                  -8.208
REMARK INTRA:                  -1.010
REMARK UNBOUND:                -0.741
REMARK  Name = 
REMARK  7 active torsions:
REMARK  status: ('A' for Active; 'I' for Inactive)
REMARK    1  A    between atoms: C_1  and  O_2
REMARK    2  A    between atoms: O_2  and  C_3
REMARK    3  A    between atoms: C_10  and  C_11
REMARK    4  A    between atoms: N_13  and  C_14
REMARK    5  A    between atoms: C_14  and  C_15
REMARK    6  A    between atoms: C_18  and  C_19
REMARK    7  A    between atoms: C_19  and  N_20
REMARK                            x       y       z     vdW  Elec       q    Type
REMARK                         _______ _______ _______ _____ _____    ______ ____
ROOT
ATOM     11  C   UNL     1      47.269   4.227  14.902  0.00  0.00    +0.000 C 
ATOM     12  O   UNL     1      47.351   3.154  14.300  0.00  0.00    +0.000 OA
ATOM     13  N   UNL     1      46.605   5.296  14.373  0.00  0.00    +0.000 N 
ATOM     29  H   UNL     1      46.548   6.170  14.887  0.00  0.00    +0.000 HD
ENDROOT
BRANCH  11  10
ATOM      3  C   UNL     1      49.112   6.741  16.387  0.00  0.00    +0.000 A 
ATOM      4  N   UNL     1      49.843   7.534  17.198  0.00  0.00    +0.000 NA
ATOM      5  C   UNL     1      50.102   7.110  18.434  0.00  0.00    +0.000 A 
ATOM      6  N   UNL     1      49.716   5.958  18.978  0.00  0.00    +0.000 NA
ATOM      7  C   UNL     1      49.001   5.194  18.138  0.00  0.00    +0.000 A 
ATOM      8  S   UNL     1      48.424   3.692  18.676  0.00  0.00    +0.000 S 
ATOM      9  C   UNL     1      47.682   3.387  17.181  0.00  0.00    +0.000 A 
ATOM     10  C   UNL     1      47.859   4.397  16.244  0.00  0.00    +0.000 A 
ATOM     28  C   UNL     1      48.649   5.487  16.822  0.00  0.00    +0.000 A 
BRANCH   3   2
ATOM      1  C   UNL     1      50.040   7.642  14.449  0.00  0.00    +0.000 C 
ATOM      2  O   UNL     1      48.850   7.211  15.114  0.00  0.00    +0.000 OA
ENDBRANCH   3   2
ENDBRANCH  11  10
BRANCH  13  14
ATOM     14  C   UNL     1      45.997   5.266  13.062  0.00  0.00    +0.000 C 
BRANCH  14  15
ATOM     15  C   UNL     1      45.578   6.639  12.583  0.00  0.00    +0.000 A 
ATOM     16  C   UNL     1      44.600   6.794  11.589  0.00  0.00    +0.000 A 
ATOM     17  C   UNL     1      44.188   8.072  11.149  0.00  0.00    +0.000 A 
ATOM     18  C   UNL     1      44.769   9.244  11.659  0.00  0.00    +0.000 A 
ATOM     26  C   UNL     1      45.754   9.082  12.650  0.00  0.00    +0.000 A 
ATOM     27  C   UNL     1      46.158   7.805  13.097  0.00  0.00    +0.000 A 
BRANCH  18  19
ATOM     19  C   UNL     1      44.490  10.617  11.022  0.00  0.00    +0.000 C 
BRANCH  19  20
ATOM     20  N   UNL     1      43.553  11.563  11.675  0.00  0.00    +0.000 NA
ATOM     21  C   UNL     1      42.143  11.054  11.613  0.00  0.00    +0.000 C 
ATOM     22  C   UNL     1      41.530  11.054  10.195  0.00  0.00    +0.000 C 
ATOM     23  O   UNL     1      41.573  12.367   9.622  0.00  0.00    +0.000 OA
ATOM     24  C   UNL     1      42.905  12.897   9.640  0.00  0.00    +0.000 C 
ATOM     25  C   UNL     1      43.507  12.903  11.057  0.00  0.00    +0.000 C 
ENDBRANCH  19  20
ENDBRANCH  18  19
ENDBRANCH  14  15
ENDBRANCH  13  14
TORSDOF 6
ENDMDL
MODEL 7
REMARK VINA RESULT:    -6.169      3.547      5.480
REMARK INTER + INTRA:          -9.074
REMARK INTER:                  -8.108
REMARK INTRA:                  -0.966
REMARK UNBOUND:                -0.741
REMARK  Name = 
REMARK  7 active torsions:
REMARK  status: ('A' for Active; 'I' for Inactive)
REMARK    1  A    between atoms: C_1  and  O_2
REMARK    2  A    between atoms: O_2  and  C_3
REMARK    3  A    between atoms: C_10  and  C_11
REMARK    4  A    between atoms: N_13  and  C_14
REMARK    5  A    between atoms: C_14  and  C_15
REMARK    6  A    between atoms: C_18  and  C_19
REMARK    7  A    between atoms: C_19  and  N_20
REMARK                            x       y       z     vdW  Elec       q    Type
REMARK                         _______ _______ _______ _____ _____    ______ ____
ROOT
ATOM     11  C   UNL     1      48.632   8.830  16.984  0.00  0.00    +0.000 C 
ATOM     12  O   UNL     1      49.799   8.563  16.692  0.00  0.00    +0.000 OA
ATOM     13  N   UNL     1      47.724   9.206  16.035  0.00  0.00    +0.000 N 
ATOM     29  H   UNL     1      46.767   9.421  16.297  0.00  0.00    +0.000 HD
ENDROOT
BRANCH  11  10
ATOM      3  C   UNL     1      48.432   6.224  19.240  0.00  0.00    +0.000 A 
ATOM      4  N   UNL     1      48.222   5.410  20.296  0.00  0.00    +0.000 NA
ATOM      5  C   UNL     1      47.681   5.927  21.397  0.00  0.00    +0.000 A 
ATOM      6  N   UNL     1      47.309   7.190  21.583  0.00  0.00    +0.000 NA
ATOM      7  C   UNL     1      47.524   7.966  20.510  0.00  0.00    +0.000 A 
ATOM      8  S   UNL     1      47.111   9.610  20.581  0.00  0.00    +0.000 S 
ATOM      9  C   UNL     1      47.655   9.866  18.994  0.00  0.00    +0.000 A 
ATOM     10  C   UNL     1      48.147   8.725  18.374  0.00  0.00    +0.000 A 
ATOM     28  C   UNL     1      48.073   7.582  19.288  0.00  0.00    +0.000 A 
BRANCH   3   2
ATOM      1  C   UNL     1      48.018   5.133  17.223  0.00  0.00    +0.000 C 
ATOM      2  O   UNL     1      49.003   5.663  18.114  0.00  0.00    +0.000 OA
ENDBRANCH   3   2
ENDBRANCH  11  10
BRANCH  13  14
ATOM     14  C   UNL     1      48.074   9.364  14.641  0.00  0.00    +0.000 C 
BRANCH  14  15
ATOM     15  C   UNL     1      47.430   8.316  13.758  0.00  0.00    +0.000 A 
ATOM     16  C   UNL     1      47.834   6.972  13.814  0.00  0.00    +0.000 A 
ATOM     17  C   UNL     1      47.226   5.984  13.009  0.00  0.00    +0.000 A 
ATOM     18  C   UNL     1      46.218   6.308  12.087  0.00  0.00    +0.000 A 
ATOM     26  C   UNL     1      45.823   7.656  12.031  0.00  0.00    +0.000 A 
ATOM     27  C   UNL     1      46.423   8.643  12.844  0.00  0.00    +0.000 A 
BRANCH  18  19
ATOM     19  C   UNL     1      45.720   5.282  11.054  0.00  0.00    +0.000 C 
BRANCH  19  20
ATOM     20  N   UNL     1      44.289   5.253  10.665  0.00  0.00    +0.000 NA
ATOM     21  C   UNL     1      43.417   4.933  11.843  0.00  0.00    +0.000 C 
ATOM     22  C   UNL     1      43.552   3.481  12.357  0.00  0.00    +0.000 C 
ATOM     23  O   UNL     1      43.278   2.543  11.309  0.00  0.00    +0.000 OA
ATOM     24  C   UNL     1      44.099   2.793  10.161  0.00  0.00    +0.000 C 
ATOM     25  C   UNL     1      43.952   4.237   9.647  0.00  0.00    +0.000 C 
ENDBRANCH  19  20
ENDBRANCH  18  19
ENDBRANCH  14  15
ENDBRANCH  13  14
TORSDOF 6
ENDMDL
MODEL 8
REMARK VINA RESULT:    -6.116      3.725      9.041
REMARK INTER + INTRA:          -9.001
REMARK INTER:                  -7.921
REMARK INTRA:                  -1.081
REMARK UNBOUND:                -0.741
REMARK  Name = 
REMARK  7 active torsions:
REMARK  status: ('A' for Active; 'I' for Inactive)
REMARK    1  A    between atoms: C_1  and  O_2
REMARK    2  A    between atoms: O_2  and  C_3
REMARK    3  A    between atoms: C_10  and  C_11
REMARK    4  A    between atoms: N_13  and  C_14
REMARK    5  A    between atoms: C_14  and  C_15
REMARK    6  A    between atoms: C_18  and  C_19
REMARK    7  A    between atoms: C_19  and  N_20
REMARK                            x       y       z     vdW  Elec       q    Type
REMARK                         _______ _______ _______ _____ _____    ______ ____
ROOT
ATOM     11  C   UNL     1      46.365   6.971  11.424  0.00  0.00    +0.000 C 
ATOM     12  O   UNL     1      45.706   7.939  11.809  0.00  0.00    +0.000 OA
ATOM     13  N   UNL     1      47.722   6.926  11.571  0.00  0.00    +0.000 N 
ATOM     29  H   UNL     1      48.247   6.119  11.248  0.00  0.00    +0.000 HD
ENDROOT
BRANCH  11  10
ATOM      3  C   UNL     1      44.528   4.339  12.697  0.00  0.00    +0.000 A 
ATOM      4  N   UNL     1      43.813   3.215  12.911  0.00  0.00    +0.000 NA
ATOM      5  C   UNL     1      43.499   2.454  11.863  0.00  0.00    +0.000 A 
ATOM      6  N   UNL     1      43.821   2.678  10.592  0.00  0.00    +0.000 NA
ATOM      7  C   UNL     1      44.540   3.798  10.421  0.00  0.00    +0.000 A 
ATOM      8  S   UNL     1      45.029   4.236   8.856  0.00  0.00    +0.000 S 
ATOM      9  C   UNL     1      45.798   5.633   9.435  0.00  0.00    +0.000 A 
ATOM     10  C   UNL     1      45.715   5.797  10.811  0.00  0.00    +0.000 A 
ATOM     28  C   UNL     1      44.953   4.694  11.405  0.00  0.00    +0.000 A 
BRANCH   3   2
ATOM      1  C   UNL     1      46.154   4.860  14.283  0.00  0.00    +0.000 C 
ATOM      2  O   UNL     1      44.833   5.114  13.800  0.00  0.00    +0.000 OA
ENDBRANCH   3   2
ENDBRANCH  11  10
BRANCH  13  14
ATOM     14  C   UNL     1      48.482   8.017  12.140  0.00  0.00    +0.000 C 
BRANCH  14  15
ATOM     15  C   UNL     1      48.604   7.918  13.645  0.00  0.00    +0.000 A 
ATOM     16  C   UNL     1      49.411   6.938  14.245  0.00  0.00    +0.000 A 
ATOM     17  C   UNL     1      49.546   6.850  15.648  0.00  0.00    +0.000 A 
ATOM     18  C   UNL     1      48.848   7.714  16.507  0.00  0.00    +0.000 A 
ATOM     26  C   UNL     1      48.037   8.688  15.900  0.00  0.00    +0.000 A 
ATOM     27  C   UNL     1      47.909   8.784  14.497  0.00  0.00    +0.000 A 
BRANCH  18  19
ATOM     19  C   UNL     1      48.814   7.474  18.027  0.00  0.00    +0.000 C 
BRANCH  19  20
ATOM     20  N   UNL     1      47.676   6.747  18.641  0.00  0.00    +0.000 NA
ATOM     21  C   UNL     1      47.806   6.706  20.135  0.00  0.00    +0.000 C 
ATOM     22  C   UNL     1      48.960   5.814  20.647  0.00  0.00    +0.000 C 
ATOM     23  O   UNL     1      48.825   4.475  20.157  0.00  0.00    +0.000 OA
ATOM     24  C   UNL     1      48.714   4.454  18.727  0.00  0.00    +0.000 C 
ATOM     25  C   UNL     1      47.556   5.335  18.224  0.00  0.00    +0.000 C 
ENDBRANCH  19  20
ENDBRANCH  18  19
ENDBRANCH  14  15
ENDBRANCH  13  14
TORSDOF 6
ENDMDL
MODEL 9
REMARK VINA RESULT:    -6.004      3.667      5.402
REMARK INTER + INTRA:          -8.851
REMARK INTER:                  -7.863
REMARK INTRA:                  -0.988
REMARK UNBOUND:                -0.741
REMARK  Name = 
REMARK  7 active torsions:
REMARK  status: ('A' for Active; 'I' for Inactive)
REMARK    1  A    between atoms: C_1  and  O_2
REMARK    2  A    between atoms: O_2  and  C_3
REMARK    3  A    between atoms: C_10  and  C_11
REMARK    4  A    between atoms: N_13  and  C_14
REMARK    5  A    between atoms: C_14  and  C_15
REMARK    6  A    between atoms: C_18  and  C_19
REMARK    7  A    between atoms: C_19  and  N_20
REMARK                            x       y       z     vdW  Elec       q    Type
REMARK                         _______ _______ _______ _____ _____    ______ ____
ROOT
ATOM     11  C   UNL     1      49.850   7.604  16.016  0.00  0.00    +0.000 C 
ATOM     12  O   UNL     1      50.473   6.841  15.275  0.00  0.00    +0.000 OA
ATOM     13  N   UNL     1      49.198   8.701  15.528  0.00  0.00    +0.000 N 
ATOM     29  H   UNL     1      48.689   9.316  16.156  0.00  0.00    +0.000 HD
ENDROOT
BRANCH  11  10
ATOM      3  C   UNL     1      48.945   4.849  17.891  0.00  0.00    +0.000 A 
ATOM      4  N   UNL     1      48.628   3.959  18.855  0.00  0.00    +0.000 NA
ATOM      5  C   UNL     1      48.722   4.342  20.127  0.00  0.00    +0.000 A 
ATOM      6  N   UNL     1      49.099   5.538  20.572  0.00  0.00    +0.000 NA
ATOM      7  C   UNL     1      49.395   6.398  19.586  0.00  0.00    +0.000 A 
ATOM      8  S   UNL     1      49.901   7.968  19.982  0.00  0.00    +0.000 S 
ATOM      9  C   UNL     1      50.076   8.377  18.344  0.00  0.00    +0.000 A 
ATOM     10  C   UNL     1      49.750   7.351  17.466  0.00  0.00    +0.000 A 
ATOM     28  C   UNL     1      49.345   6.158  18.214  0.00  0.00    +0.000 A 
BRANCH   3   2
ATOM      1  C   UNL     1      47.487   4.325  16.150  0.00  0.00    +0.000 C 
ATOM      2  O   UNL     1      48.847   4.422  16.580  0.00  0.00    +0.000 OA
ENDBRANCH   3   2
ENDBRANCH  11  10
BRANCH  13  14
ATOM     14  C   UNL     1      49.230   9.070  14.131  0.00  0.00    +0.000 C 
BRANCH  14  15
ATOM     15  C   UNL     1      48.106   8.441  13.337  0.00  0.00    +0.000 A 
ATOM     16  C   UNL     1      46.770   8.817  13.549  0.00  0.00    +0.000 A 
ATOM     17  C   UNL     1      45.715   8.250  12.799  0.00  0.00    +0.000 A 
ATOM     18  C   UNL     1      45.953   7.256  11.837  0.00  0.00    +0.000 A 
ATOM     26  C   UNL     1      47.292   6.880  11.635  0.00  0.00    +0.000 A 
ATOM     27  C   UNL     1      48.348   7.454  12.376  0.00  0.00    +0.000 A 
BRANCH  18  19
ATOM     19  C   UNL     1      44.794   6.479  11.188  0.00  0.00    +0.000 C 
BRANCH  19  20
ATOM     20  N   UNL     1      43.854   5.701  12.032  0.00  0.00    +0.000 NA
ATOM     21  C   UNL     1      44.596   4.865  13.034  0.00  0.00    +0.000 C 
ATOM     22  C   UNL     1      45.388   3.690  12.417  0.00  0.00    +0.000 C 
ATOM     23  O   UNL     1      44.525   2.840  11.653  0.00  0.00    +0.000 OA
ATOM     24  C   UNL     1      43.802   3.587  10.665  0.00  0.00    +0.000 C 
ATOM     25  C   UNL     1      43.006   4.749  11.287  0.00  0.00    +0.000 C 
ENDBRANCH  19  20
ENDBRANCH  18  19
ENDBRANCH  14  15
ENDBRANCH  13  14
TORSDOF 6
ENDMDL
