MODEL 1
REMARK VINA RESULT:    -7.628      0.000      0.000
REMARK INTER + INTRA:         -10.263
REMARK INTER:                 -10.080
REMARK INTRA:                  -0.183
REMARK UNBOUND:                -0.183
REMARK  Name = 
REMARK  6 active torsions:
REMARK  status: ('A' for Active; 'I' for Inactive)
REMARK    1  A    between atoms: N_1  and  C_2
REMARK    2  A    between atoms: C_2  and  C_3
REMARK    3  A    between atoms: C_6  and  C_7
REMARK    4  A    between atoms: C_7  and  N_8
REMARK    5  A    between atoms: C_9  and  C_10
REMARK    6  A    between atoms: C_16  and  C_17
REMARK                            x       y       z     vdW  Elec       q    Type
REMARK                         _______ _______ _______ _____ _____    ______ ____
ROOT
ATOM      8  N   UNL     1      44.653   4.627  10.121  0.00  0.00    +0.000 N 
ATOM      9  C   UNL     1      43.995   3.595  10.768  0.00  0.00    +0.000 A 
ATOM     13  C   UNL     1      44.316   2.421  10.115  0.00  0.00    +0.000 A 
ATOM     14  C   UNL     1      45.205   2.734   9.063  0.00  0.00    +0.000 A 
ATOM     15  C   UNL     1      45.867   1.983   8.078  0.00  0.00    +0.000 A 
ATOM     16  C   UNL     1      46.679   2.670   7.174  0.00  0.00    +0.000 A 
ATOM     20  C   UNL     1      46.798   4.054   7.311  0.00  0.00    +0.000 A 
ATOM     21  N   UNL     1      46.176   4.822   8.243  0.00  0.00    +0.000 NA
ATOM     22  C   UNL     1      45.400   4.109   9.084  0.00  0.00    +0.000 A 
ENDROOT
BRANCH  16  17
ATOM     17  C   UNL     1      47.408   2.005   6.069  0.00  0.00    +0.000 C 
ATOM     18  N   UNL     1      48.113   2.777   5.189  0.00  0.00    +0.000 N 
ATOM     19  O   UNL     1      47.395   0.787   5.944  0.00  0.00    +0.000 OA
ATOM     27  H   UNL     1      48.193   3.779   5.219  0.00  0.00    +0.000 HD
ATOM     28  H   UNL     1      48.614   2.286   4.455  0.00  0.00    +0.000 HD
ENDBRANCH  16  17
BRANCH   9  10
ATOM     10  C   UNL     1      43.092   3.691  11.997  0.00  0.00    +0.000 C 
ATOM     11  C   UNL     1      42.737   5.079  12.506  0.00  0.00    +0.000 C 
ATOM     12  C   UNL     1      43.670   4.228  13.293  0.00  0.00    +0.000 C 
ENDBRANCH   9  10
BRANCH   8   7
ATOM      7  C   UNL     1      44.532   6.060  10.379  0.00  0.00    +0.000 C 
BRANCH   7   6
ATOM      3  C   UNL     1      47.240   7.780  13.318  0.00  0.00    +0.000 A 
ATOM      4  C   UNL     1      47.556   6.562  12.705  0.00  0.00    +0.000 A 
ATOM      5  C   UNL     1      46.711   5.996  11.745  0.00  0.00    +0.000 A 
ATOM      6  C   UNL     1      45.518   6.630  11.377  0.00  0.00    +0.000 A 
ATOM     23  C   UNL     1      45.219   7.870  11.972  0.00  0.00    +0.000 A 
ATOM     24  C   UNL     1      46.068   8.439  12.929  0.00  0.00    +0.000 A 
BRANCH   3   2
ATOM      2  C   UNL     1      48.123   8.341  14.403  0.00  0.00    +0.000 C 
BRANCH   2   1
ATOM      1  N   UNL     1      47.376   9.159  15.351  0.00  0.00    +0.000 NA
ATOM     25  H   UNL     1      46.870   8.550  15.990  0.00  0.00    +0.000 HD
ATOM     26  H   UNL     1      46.672   9.692  14.841  0.00  0.00    +0.000 HD
ENDBRANCH   2   1
ENDBRANCH   3   2
ENDBRANCH   7   6
ENDBRANCH   8   7
TORSDOF 6
ENDMDL
MODEL 2
REMARK VINA RESULT:    -7.172      3.357      7.076
REMARK INTER + INTRA:          -9.661
REMARK INTER:                  -8.819
REMARK INTRA:                  -0.842
REMARK UNBOUND:                -0.183
REMARK  Name = 
REMARK  6 active torsions:
REMARK  status: ('A' for Active; 'I' for Inactive)
REMARK    1  A    between atoms: N_1  and  C_2
REMARK    2  A    between atoms: C_2  and  C_3
REMARK    3  A    between atoms: C_6  and  C_7
REMARK    4  A    between atoms: C_7  and  N_8
REMARK    5  A    between atoms: C_9  and  C_10
REMARK    6  A    between atoms: C_16  and  C_17
REMARK                            x       y       z     vdW  Elec       q    Type
REMARK                         _______ _______ _______ _____ _____    ______ ____
ROOT
ATOM      8  N   UNL     1      44.411   6.213  11.954  0.00  0.00    +0.000 N 
ATOM      9  C   UNL     1      45.331   5.886  12.935  0.00  0.00    +0.000 A 
ATOM     13  C   UNL     1      46.011   7.041  13.271  0.00  0.00    +0.000 A 
ATOM     14  C   UNL     1      45.484   8.100  12.500  0.00  0.00    +0.000 A 
ATOM     15  C   UNL     1      45.754   9.474  12.402  0.00  0.00    +0.000 A 
ATOM     16  C   UNL     1      45.009  10.218  11.485  0.00  0.00    +0.000 A 
ATOM     20  C   UNL     1      44.033   9.560  10.735  0.00  0.00    +0.000 A 
ATOM     21  N   UNL     1      43.738   8.235  10.793  0.00  0.00    +0.000 NA
ATOM     22  C   UNL     1      44.491   7.564  11.688  0.00  0.00    +0.000 A 
ENDROOT
BRANCH  16  17
ATOM     17  C   UNL     1      45.214  11.668  11.258  0.00  0.00    +0.000 C 
ATOM     18  N   UNL     1      45.608  12.447  12.309  0.00  0.00    +0.000 N 
ATOM     19  O   UNL     1      45.048  12.167  10.152  0.00  0.00    +0.000 OA
ATOM     27  H   UNL     1      45.781  12.127  13.246  0.00  0.00    +0.000 HD
ATOM     28  H   UNL     1      45.755  13.432  12.113  0.00  0.00    +0.000 HD
ENDBRANCH  16  17
BRANCH   9  10
ATOM     10  C   UNL     1      45.565   4.519  13.575  0.00  0.00    +0.000 C 
ATOM     11  C   UNL     1      46.957   4.216  14.108  0.00  0.00    +0.000 C 
ATOM     12  C   UNL     1      46.479   3.527  12.878  0.00  0.00    +0.000 C 
ENDBRANCH   9  10
BRANCH   8   7
ATOM      7  C   UNL     1      43.544   5.304  11.209  0.00  0.00    +0.000 C 
BRANCH   7   6
ATOM      3  C   UNL     1      45.685   2.769   8.395  0.00  0.00    +0.000 A 
ATOM      4  C   UNL     1      44.756   2.205   9.276  0.00  0.00    +0.000 A 
ATOM      5  C   UNL     1      44.042   3.000  10.179  0.00  0.00    +0.000 A 
ATOM      6  C   UNL     1      44.245   4.385  10.231  0.00  0.00    +0.000 A 
ATOM     23  C   UNL     1      45.157   4.952   9.322  0.00  0.00    +0.000 A 
ATOM     24  C   UNL     1      45.868   4.157   8.416  0.00  0.00    +0.000 A 
BRANCH   3   2
ATOM      2  C   UNL     1      46.501   1.892   7.479  0.00  0.00    +0.000 C 
BRANCH   2   1
ATOM      1  N   UNL     1      46.581   0.519   7.963  0.00  0.00    +0.000 NA
ATOM     25  H   UNL     1      47.054   0.510   8.862  0.00  0.00    +0.000 HD
ATOM     26  H   UNL     1      47.163  -0.020   7.323  0.00  0.00    +0.000 HD
ENDBRANCH   2   1
ENDBRANCH   3   2
ENDBRANCH   7   6
ENDBRANCH   8   7
TORSDOF 6
ENDMDL
MODEL 3
REMARK VINA RESULT:    -6.963      4.707      6.972
REMARK INTER + INTRA:          -9.385
REMARK INTER:                  -8.714
REMARK INTRA:                  -0.671
REMARK UNBOUND:                -0.183
REMARK  Name = 
REMARK  6 active torsions:
REMARK  status: ('A' for Active; 'I' for Inactive)
REMARK    1  A    between atoms: N_1  and  C_2
REMARK    2  A    between atoms: C_2  and  C_3
REMARK    3  A    between atoms: C_6  and  C_7
REMARK    4  A    between atoms: C_7  and  N_8
REMARK    5  A    between atoms: C_9  and  C_10
REMARK    6  A    between atoms: C_16  and  C_17
REMARK                            x       y       z     vdW  Elec       q    Type
REMARK                         _______ _______ _______ _____ _____    ______ ____
ROOT
ATOM      8  N   UNL     1      47.455   5.425  15.203  0.00  0.00    +0.000 N 
ATOM      9  C   UNL     1      48.356   6.439  14.929  0.00  0.00    +0.000 A 
ATOM     13  C   UNL     1      48.181   6.809  13.610  0.00  0.00    +0.000 A 
ATOM     14  C   UNL     1      47.138   6.024  13.070  0.00  0.00    +0.000 A 
ATOM     15  C   UNL     1      46.516   5.945  11.814  0.00  0.00    +0.000 A 
ATOM     16  C   UNL     1      45.497   5.004  11.652  0.00  0.00    +0.000 A 
ATOM     20  C   UNL     1      45.146   4.213  12.747  0.00  0.00    +0.000 A 
ATOM     21  N   UNL     1      45.720   4.251  13.978  0.00  0.00    +0.000 NA
ATOM     22  C   UNL     1      46.701   5.171  14.076  0.00  0.00    +0.000 A 
ENDROOT
BRANCH  16  17
ATOM     17  C   UNL     1      44.780   4.795  10.372  0.00  0.00    +0.000 C 
ATOM     18  N   UNL     1      45.440   5.048   9.202  0.00  0.00    +0.000 N 
ATOM     19  O   UNL     1      43.624   4.393  10.351  0.00  0.00    +0.000 OA
ATOM     27  H   UNL     1      46.390   5.367   9.119  0.00  0.00    +0.000 HD
ATOM     28  H   UNL     1      44.924   4.878   8.345  0.00  0.00    +0.000 HD
ENDBRANCH  16  17
BRANCH   9  10
ATOM     10  C   UNL     1      49.358   7.078  15.889  0.00  0.00    +0.000 C 
ATOM     11  C   UNL     1      48.820   8.044  16.933  0.00  0.00    +0.000 C 
ATOM     12  C   UNL     1      49.619   8.571  15.793  0.00  0.00    +0.000 C 
ENDBRANCH   9  10
BRANCH   8   7
ATOM      7  C   UNL     1      47.343   4.640  16.430  0.00  0.00    +0.000 C 
BRANCH   7   6
ATOM      3  C   UNL     1      50.836   2.219  17.362  0.00  0.00    +0.000 A 
ATOM      4  C   UNL     1      50.747   3.531  17.841  0.00  0.00    +0.000 A 
ATOM      5  C   UNL     1      49.627   4.325  17.570  0.00  0.00    +0.000 A 
ATOM      6  C   UNL     1      48.567   3.829  16.802  0.00  0.00    +0.000 A 
ATOM     23  C   UNL     1      48.645   2.499  16.349  0.00  0.00    +0.000 A 
ATOM     24  C   UNL     1      49.764   1.704  16.625  0.00  0.00    +0.000 A 
BRANCH   3   2
ATOM      2  C   UNL     1      52.080   1.402  17.599  0.00  0.00    +0.000 C 
BRANCH   2   1
ATOM      1  N   UNL     1      51.775   0.079  18.131  0.00  0.00    +0.000 NA
ATOM     25  H   UNL     1      51.689   0.139  19.143  0.00  0.00    +0.000 HD
ATOM     26  H   UNL     1      52.564  -0.539  17.944  0.00  0.00    +0.000 HD
ENDBRANCH   2   1
ENDBRANCH   3   2
ENDBRANCH   7   6
ENDBRANCH   8   7
TORSDOF 6
ENDMDL
MODEL 4
REMARK VINA RESULT:    -6.653      3.056      6.875
REMARK INTER + INTRA:          -8.975
REMARK INTER:                  -8.414
REMARK INTRA:                  -0.561
REMARK UNBOUND:                -0.183
REMARK  Name = 
REMARK  6 active torsions:
REMARK  status: ('A' for Active; 'I' for Inactive)
REMARK    1  A    between atoms: N_1  and  C_2
REMARK    2  A    between atoms: C_2  and  C_3
REMARK    3  A    between atoms: C_6  and  C_7
REMARK    4  A    between atoms: C_7  and  N_8
REMARK    5  A    between atoms: C_9  and  C_10
REMARK    6  A    between atoms: C_16  and  C_17
REMARK                            x       y       z     vdW  Elec       q    Type
REMARK                         _______ _______ _______ _____ _____    ______ ____
ROOT
ATOM      8  N   UNL     1      45.307   5.651  11.757  0.00  0.00    +0.000 N 
ATOM      9  C   UNL     1      45.605   6.993  11.921  0.00  0.00    +0.000 A 
ATOM     13  C   UNL     1      46.409   7.108  13.038  0.00  0.00    +0.000 A 
ATOM     14  C   UNL     1      46.628   5.814  13.556  0.00  0.00    +0.000 A 
ATOM     15  C   UNL     1      47.348   5.299  14.647  0.00  0.00    +0.000 A 
ATOM     16  C   UNL     1      47.315   3.919  14.853  0.00  0.00    +0.000 A 
ATOM     20  C   UNL     1      46.587   3.133  13.960  0.00  0.00    +0.000 A 
ATOM     21  N   UNL     1      45.874   3.584  12.894  0.00  0.00    +0.000 NA
ATOM     22  C   UNL     1      45.934   4.923  12.746  0.00  0.00    +0.000 A 
ENDROOT
BRANCH  16  17
ATOM     17  C   UNL     1      48.003   3.250  15.983  0.00  0.00    +0.000 C 
ATOM     18  N   UNL     1      47.682   3.621  17.259  0.00  0.00    +0.000 N 
ATOM     19  O   UNL     1      48.836   2.374  15.789  0.00  0.00    +0.000 OA
ATOM     27  H   UNL     1      47.006   4.318  17.516  0.00  0.00    +0.000 HD
ATOM     28  H   UNL     1      48.161   3.130  18.007  0.00  0.00    +0.000 HD
ENDBRANCH  16  17
BRANCH   9  10
ATOM     10  C   UNL     1      45.167   8.158  11.036  0.00  0.00    +0.000 C 
ATOM     11  C   UNL     1      44.782   9.460  11.721  0.00  0.00    +0.000 C 
ATOM     12  C   UNL     1      43.724   8.624  11.093  0.00  0.00    +0.000 C 
ENDBRANCH   9  10
BRANCH   8   7
ATOM      7  C   UNL     1      44.398   5.053  10.782  0.00  0.00    +0.000 C 
BRANCH   7   6
ATOM      3  C   UNL     1      46.410   2.930   7.561  0.00  0.00    +0.000 A 
ATOM      4  C   UNL     1      45.626   2.224   8.481  0.00  0.00    +0.000 A 
ATOM      5  C   UNL     1      44.955   2.885   9.515  0.00  0.00    +0.000 A 
ATOM      6  C   UNL     1      45.058   4.273   9.665  0.00  0.00    +0.000 A 
ATOM     23  C   UNL     1      45.822   4.983   8.719  0.00  0.00    +0.000 A 
ATOM     24  C   UNL     1      46.489   4.322   7.682  0.00  0.00    +0.000 A 
BRANCH   3   2
ATOM      2  C   UNL     1      47.186   2.197   6.497  0.00  0.00    +0.000 C 
BRANCH   2   1
ATOM      1  N   UNL     1      47.855   1.013   7.023  0.00  0.00    +0.000 NA
ATOM     25  H   UNL     1      48.368   1.265   7.863  0.00  0.00    +0.000 HD
ATOM     26  H   UNL     1      48.547   0.699   6.343  0.00  0.00    +0.000 HD
ENDBRANCH   2   1
ENDBRANCH   3   2
ENDBRANCH   7   6
ENDBRANCH   8   7
TORSDOF 6
ENDMDL
MODEL 5
REMARK VINA RESULT:    -6.564      3.517      5.445
REMARK INTER + INTRA:          -8.857
REMARK INTER:                  -7.776
REMARK INTRA:                  -1.081
REMARK UNBOUND:                -0.183
REMARK  Name = 
REMARK  6 active torsions:
REMARK  status: ('A' for Active; 'I' for Inactive)
REMARK    1  A    between atoms: N_1  and  C_2
REMARK    2  A    between atoms: C_2  and  C_3
REMARK    3  A    between atoms: C_6  and  C_7
REMARK    4  A    between atoms: C_7  and  N_8
REMARK    5  A    between atoms: C_9  and  C_10
REMARK    6  A    between atoms: C_16  and  C_17
REMARK                            x       y       z     vdW  Elec       q    Type
REMARK                         _______ _______ _______ _____ _____    ______ ____
ROOT
ATOM      8  N   UNL     1      47.172   7.060  12.777  0.00  0.00    +0.000 N 
ATOM      9  C   UNL     1      47.578   6.616  14.023  0.00  0.00    +0.000 A 
ATOM     13  C   UNL     1      47.035   5.360  14.216  0.00  0.00    +0.000 A 
ATOM     14  C   UNL     1      46.302   5.017  13.059  0.00  0.00    +0.000 A 
ATOM     15  C   UNL     1      45.551   3.898  12.666  0.00  0.00    +0.000 A 
ATOM     16  C   UNL     1      44.940   3.934  11.411  0.00  0.00    +0.000 A 
ATOM     20  C   UNL     1      45.124   5.066  10.617  0.00  0.00    +0.000 A 
ATOM     21  N   UNL     1      45.838   6.172  10.954  0.00  0.00    +0.000 NA
ATOM     22  C   UNL     1      46.399   6.087  12.178  0.00  0.00    +0.000 A 
ENDROOT
BRANCH  16  17
ATOM     17  C   UNL     1      44.095   2.834  10.887  0.00  0.00    +0.000 C 
ATOM     18  N   UNL     1      44.555   2.101   9.830  0.00  0.00    +0.000 N 
ATOM     19  O   UNL     1      43.011   2.573  11.392  0.00  0.00    +0.000 OA
ATOM     27  H   UNL     1      45.433   2.232   9.360  0.00  0.00    +0.000 HD
ATOM     28  H   UNL     1      43.957   1.346   9.509  0.00  0.00    +0.000 HD
ENDBRANCH  16  17
BRANCH   9  10
ATOM     10  C   UNL     1      48.482   7.338  15.020  0.00  0.00    +0.000 C 
ATOM     11  C   UNL     1      49.984   7.144  14.882  0.00  0.00    +0.000 C 
ATOM     12  C   UNL     1      49.268   6.519  16.027  0.00  0.00    +0.000 C 
ENDBRANCH   9  10
BRANCH   8   7
ATOM      7  C   UNL     1      47.400   8.375  12.182  0.00  0.00    +0.000 C 
BRANCH   7   6
ATOM      3  C   UNL     1      51.467   9.295  10.940  0.00  0.00    +0.000 A 
ATOM      4  C   UNL     1      51.032   7.965  10.978  0.00  0.00    +0.000 A 
ATOM      5  C   UNL     1      49.724   7.644  11.358  0.00  0.00    +0.000 A 
ATOM      6  C   UNL     1      48.816   8.646  11.719  0.00  0.00    +0.000 A 
ATOM     23  C   UNL     1      49.248   9.984  11.649  0.00  0.00    +0.000 A 
ATOM     24  C   UNL     1      50.555  10.305  11.264  0.00  0.00    +0.000 A 
BRANCH   3   2
ATOM      2  C   UNL     1      52.900   9.620  10.601  0.00  0.00    +0.000 C 
BRANCH   2   1
ATOM      1  N   UNL     1      53.667   8.429  10.257  0.00  0.00    +0.000 NA
ATOM     25  H   UNL     1      54.640   8.574  10.516  0.00  0.00    +0.000 HD
ATOM     26  H   UNL     1      53.650   8.310   9.245  0.00  0.00    +0.000 HD
ENDBRANCH   2   1
ENDBRANCH   3   2
ENDBRANCH   7   6
ENDBRANCH   8   7
TORSDOF 6
ENDMDL
MODEL 6
REMARK VINA RESULT:    -6.357      4.362      6.686
REMARK INTER + INTRA:          -8.584
REMARK INTER:                  -7.758
REMARK INTRA:                  -0.825
REMARK UNBOUND:                -0.183
REMARK  Name = 
REMARK  6 active torsions:
REMARK  status: ('A' for Active; 'I' for Inactive)
REMARK    1  A    between atoms: N_1  and  C_2
REMARK    2  A    between atoms: C_2  and  C_3
REMARK    3  A    between atoms: C_6  and  C_7
REMARK    4  A    between atoms: C_7  and  N_8
REMARK    5  A    between atoms: C_9  and  C_10
REMARK    6  A    between atoms: C_16  and  C_17
REMARK                            x       y       z     vdW  Elec       q    Type
REMARK                         _______ _______ _______ _____ _____    ______ ____
ROOT
ATOM      8  N   UNL     1      47.509   5.059  14.842  0.00  0.00    +0.000 N 
ATOM      9  C   UNL     1      48.188   6.253  14.674  0.00  0.00    +0.000 A 
ATOM     13  C   UNL     1      47.665   6.876  13.558  0.00  0.00    +0.000 A 
ATOM     14  C   UNL     1      46.632   6.062  13.044  0.00  0.00    +0.000 A 
ATOM     15  C   UNL     1      45.749   6.162  11.957  0.00  0.00    +0.000 A 
ATOM     16  C   UNL     1      44.847   5.116  11.756  0.00  0.00    +0.000 A 
ATOM     20  C   UNL     1      44.863   4.046  12.651  0.00  0.00    +0.000 A 
ATOM     21  N   UNL     1      45.698   3.904  13.714  0.00  0.00    +0.000 NA
ATOM     22  C   UNL     1      46.552   4.938  13.857  0.00  0.00    +0.000 A 
ENDROOT
BRANCH  16  17
ATOM     17  C   UNL     1      43.884   5.080  10.629  0.00  0.00    +0.000 C 
ATOM     18  N   UNL     1      44.315   4.631   9.412  0.00  0.00    +0.000 N 
ATOM     19  O   UNL     1      42.721   5.431  10.779  0.00  0.00    +0.000 OA
ATOM     27  H   UNL     1      45.243   4.311   9.198  0.00  0.00    +0.000 HD
ATOM     28  H   UNL     1      43.624   4.604   8.669  0.00  0.00    +0.000 HD
ENDBRANCH  16  17
BRANCH   9  10
ATOM     10  C   UNL     1      49.298   6.825  15.554  0.00  0.00    +0.000 C 
ATOM     11  C   UNL     1      48.932   7.948  16.512  0.00  0.00    +0.000 C 
ATOM     12  C   UNL     1      49.764   8.250  15.316  0.00  0.00    +0.000 C 
ENDBRANCH   9  10
BRANCH   8   7
ATOM      7  C   UNL     1      47.786   4.007  15.818  0.00  0.00    +0.000 C 
BRANCH   7   6
ATOM      3  C   UNL     1      48.169   5.345  19.940  0.00  0.00    +0.000 A 
ATOM      4  C   UNL     1      49.215   4.639  19.334  0.00  0.00    +0.000 A 
ATOM      5  C   UNL     1      49.124   4.213  18.005  0.00  0.00    +0.000 A 
ATOM      6  C   UNL     1      47.976   4.473  17.246  0.00  0.00    +0.000 A 
ATOM     23  C   UNL     1      46.940   5.210  17.849  0.00  0.00    +0.000 A 
ATOM     24  C   UNL     1      47.034   5.641  19.177  0.00  0.00    +0.000 A 
BRANCH   3   2
ATOM      2  C   UNL     1      48.251   5.733  21.395  0.00  0.00    +0.000 C 
BRANCH   2   1
ATOM      1  N   UNL     1      47.506   4.818  22.250  0.00  0.00    +0.000 NA
ATOM     25  H   UNL     1      48.068   3.989  22.421  0.00  0.00    +0.000 HD
ATOM     26  H   UNL     1      46.674   4.507  21.750  0.00  0.00    +0.000 HD
ENDBRANCH   2   1
ENDBRANCH   3   2
ENDBRANCH   7   6
ENDBRANCH   8   7
TORSDOF 6
ENDMDL
MODEL 7
REMARK VINA RESULT:    -6.330      3.091      7.088
REMARK INTER + INTRA:          -8.549
REMARK INTER:                  -8.118
REMARK INTRA:                  -0.431
REMARK UNBOUND:                -0.183
REMARK  Name = 
REMARK  6 active torsions:
REMARK  status: ('A' for Active; 'I' for Inactive)
REMARK    1  A    between atoms: N_1  and  C_2
REMARK    2  A    between atoms: C_2  and  C_3
REMARK    3  A    between atoms: C_6  and  C_7
REMARK    4  A    between atoms: C_7  and  N_8
REMARK    5  A    between atoms: C_9  and  C_10
REMARK    6  A    between atoms: C_16  and  C_17
REMARK                            x       y       z     vdW  Elec       q    Type
REMARK                         _______ _______ _______ _____ _____    ______ ____
ROOT
ATOM      8  N   UNL     1      44.870   7.100  12.058  0.00  0.00    +0.000 N 
ATOM      9  C   UNL     1      44.731   8.447  11.772  0.00  0.00    +0.000 A 
ATOM     13  C   UNL     1      45.775   9.113  12.385  0.00  0.00    +0.000 A 
ATOM     14  C   UNL     1      46.582   8.157  13.040  0.00  0.00    +0.000 A 
ATOM     15  C   UNL     1      47.756   8.220  13.807  0.00  0.00    +0.000 A 
ATOM     16  C   UNL     1      48.265   7.023  14.314  0.00  0.00    +0.000 A 
ATOM     20  C   UNL     1      47.591   5.838  14.017  0.00  0.00    +0.000 A 
ATOM     21  N   UNL     1      46.453   5.727  13.282  0.00  0.00    +0.000 NA
ATOM     22  C   UNL     1      46.001   6.913  12.825  0.00  0.00    +0.000 A 
ENDROOT
BRANCH  16  17
ATOM     17  C   UNL     1      49.477   6.951  15.164  0.00  0.00    +0.000 C 
ATOM     18  N   UNL     1      50.405   7.951  15.069  0.00  0.00    +0.000 N 
ATOM     19  O   UNL     1      49.648   6.026  15.948  0.00  0.00    +0.000 OA
ATOM     27  H   UNL     1      50.346   8.753  14.468  0.00  0.00    +0.000 HD
ATOM     28  H   UNL     1      51.213   7.877  15.679  0.00  0.00    +0.000 HD
ENDBRANCH  16  17
BRANCH   9  10
ATOM     10  C   UNL     1      43.653   9.112  10.919  0.00  0.00    +0.000 C 
ATOM     11  C   UNL     1      44.073  10.269  10.025  0.00  0.00    +0.000 C 
ATOM     12  C   UNL     1      43.244  10.540  11.231  0.00  0.00    +0.000 C 
ENDBRANCH   9  10
BRANCH   8   7
ATOM      7  C   UNL     1      43.946   6.019  11.724  0.00  0.00    +0.000 C 
BRANCH   7   6
ATOM      3  C   UNL     1      45.475   3.318   8.674  0.00  0.00    +0.000 A 
ATOM      4  C   UNL     1      44.535   2.862   9.605  0.00  0.00    +0.000 A 
ATOM      5  C   UNL     1      44.015   3.714  10.584  0.00  0.00    +0.000 A 
ATOM      6  C   UNL     1      44.430   5.049  10.666  0.00  0.00    +0.000 A 
ATOM     23  C   UNL     1      45.351   5.513   9.709  0.00  0.00    +0.000 A 
ATOM     24  C   UNL     1      45.867   4.661   8.727  0.00  0.00    +0.000 A 
BRANCH   3   2
ATOM      2  C   UNL     1      46.081   2.370   7.672  0.00  0.00    +0.000 C 
BRANCH   2   1
ATOM      1  N   UNL     1      46.286   1.039   8.229  0.00  0.00    +0.000 NA
ATOM     25  H   UNL     1      45.610   0.398   7.820  0.00  0.00    +0.000 HD
ATOM     26  H   UNL     1      46.089   1.068   9.229  0.00  0.00    +0.000 HD
ENDBRANCH   2   1
ENDBRANCH   3   2
ENDBRANCH   7   6
ENDBRANCH   8   7
TORSDOF 6
ENDMDL
MODEL 8
REMARK VINA RESULT:    -6.300      3.614      5.701
REMARK INTER + INTRA:          -8.508
REMARK INTER:                  -7.755
REMARK INTRA:                  -0.754
REMARK UNBOUND:                -0.183
REMARK  Name = 
REMARK  6 active torsions:
REMARK  status: ('A' for Active; 'I' for Inactive)
REMARK    1  A    between atoms: N_1  and  C_2
REMARK    2  A    between atoms: C_2  and  C_3
REMARK    3  A    between atoms: C_6  and  C_7
REMARK    4  A    between atoms: C_7  and  N_8
REMARK    5  A    between atoms: C_9  and  C_10
REMARK    6  A    between atoms: C_16  and  C_17
REMARK                            x       y       z     vdW  Elec       q    Type
REMARK                         _______ _______ _______ _____ _____    ______ ____
ROOT
ATOM      8  N   UNL     1      46.148   8.156  12.877  0.00  0.00    +0.000 N 
ATOM      9  C   UNL     1      45.439   9.040  12.082  0.00  0.00    +0.000 A 
ATOM     13  C   UNL     1      44.538   8.301  11.339  0.00  0.00    +0.000 A 
ATOM     14  C   UNL     1      44.681   6.944  11.700  0.00  0.00    +0.000 A 
ATOM     15  C   UNL     1      44.056   5.750  11.305  0.00  0.00    +0.000 A 
ATOM     16  C   UNL     1      44.492   4.563  11.896  0.00  0.00    +0.000 A 
ATOM     20  C   UNL     1      45.506   4.632  12.852  0.00  0.00    +0.000 A 
ATOM     21  N   UNL     1      46.141   5.761  13.264  0.00  0.00    +0.000 NA
ATOM     22  C   UNL     1      45.686   6.875  12.656  0.00  0.00    +0.000 A 
ENDROOT
BRANCH  16  17
ATOM     17  C   UNL     1      43.941   3.232  11.547  0.00  0.00    +0.000 C 
ATOM     18  N   UNL     1      43.731   2.326  12.548  0.00  0.00    +0.000 N 
ATOM     19  O   UNL     1      43.666   2.943  10.389  0.00  0.00    +0.000 OA
ATOM     27  H   UNL     1      43.914   2.475  13.525  0.00  0.00    +0.000 HD
ATOM     28  H   UNL     1      43.338   1.431  12.274  0.00  0.00    +0.000 HD
ENDBRANCH  16  17
BRANCH   9  10
ATOM     10  C   UNL     1      45.577  10.560  12.026  0.00  0.00    +0.000 C 
ATOM     11  C   UNL     1      45.540  11.223  10.658  0.00  0.00    +0.000 C 
ATOM     12  C   UNL     1      46.825  11.163  11.407  0.00  0.00    +0.000 C 
ENDBRANCH   9  10
BRANCH   8   7
ATOM      7  C   UNL     1      47.283   8.455  13.747  0.00  0.00    +0.000 C 
BRANCH   7   6
ATOM      3  C   UNL     1      51.259   8.417  11.980  0.00  0.00    +0.000 A 
ATOM      4  C   UNL     1      50.203   7.756  11.341  0.00  0.00    +0.000 A 
ATOM      5  C   UNL     1      48.912   7.768  11.879  0.00  0.00    +0.000 A 
ATOM      6  C   UNL     1      48.642   8.434  13.081  0.00  0.00    +0.000 A 
ATOM     23  C   UNL     1      49.699   9.124  13.704  0.00  0.00    +0.000 A 
ATOM     24  C   UNL     1      50.989   9.116  13.162  0.00  0.00    +0.000 A 
BRANCH   3   2
ATOM      2  C   UNL     1      52.658   8.333  11.427  0.00  0.00    +0.000 C 
BRANCH   2   1
ATOM      1  N   UNL     1      53.549   7.576  12.298  0.00  0.00    +0.000 NA
ATOM     25  H   UNL     1      53.006   7.164  13.053  0.00  0.00    +0.000 HD
ATOM     26  H   UNL     1      54.207   8.221  12.734  0.00  0.00    +0.000 HD
ENDBRANCH   2   1
ENDBRANCH   3   2
ENDBRANCH   7   6
ENDBRANCH   8   7
TORSDOF 6
ENDMDL
MODEL 9
REMARK VINA RESULT:    -6.278      4.951      8.706
REMARK INTER + INTRA:          -8.480
REMARK INTER:                  -7.517
REMARK INTRA:                  -0.963
REMARK UNBOUND:                -0.183
REMARK  Name = 
REMARK  6 active torsions:
REMARK  status: ('A' for Active; 'I' for Inactive)
REMARK    1  A    between atoms: N_1  and  C_2
REMARK    2  A    between atoms: C_2  and  C_3
REMARK    3  A    between atoms: C_6  and  C_7
REMARK    4  A    between atoms: C_7  and  N_8
REMARK    5  A    between atoms: C_9  and  C_10
REMARK    6  A    between atoms: C_16  and  C_17
REMARK                            x       y       z     vdW  Elec       q    Type
REMARK                         _______ _______ _______ _____ _____    ______ ____
ROOT
ATOM      8  N   UNL     1      48.603   7.176  14.607  0.00  0.00    +0.000 N 
ATOM      9  C   UNL     1      48.542   8.530  14.887  0.00  0.00    +0.000 A 
ATOM     13  C   UNL     1      48.550   8.673  16.260  0.00  0.00    +0.000 A 
ATOM     14  C   UNL     1      48.640   7.386  16.835  0.00  0.00    +0.000 A 
ATOM     15  C   UNL     1      48.693   6.896  18.150  0.00  0.00    +0.000 A 
ATOM     16  C   UNL     1      48.767   5.513  18.325  0.00  0.00    +0.000 A 
ATOM     20  C   UNL     1      48.800   4.702  17.190  0.00  0.00    +0.000 A 
ATOM     21  N   UNL     1      48.749   5.128  15.901  0.00  0.00    +0.000 NA
ATOM     22  C   UNL     1      48.671   6.470  15.790  0.00  0.00    +0.000 A 
ENDROOT
BRANCH  16  17
ATOM     17  C   UNL     1      48.796   4.864  19.657  0.00  0.00    +0.000 C 
ATOM     18  N   UNL     1      48.526   3.527  19.741  0.00  0.00    +0.000 N 
ATOM     19  O   UNL     1      49.067   5.501  20.667  0.00  0.00    +0.000 OA
ATOM     27  H   UNL     1      48.308   2.921  18.970  0.00  0.00    +0.000 HD
ATOM     28  H   UNL     1      48.572   3.113  20.667  0.00  0.00    +0.000 HD
ENDBRANCH  16  17
BRANCH   9  10
ATOM     10  C   UNL     1      48.501   9.686  13.890  0.00  0.00    +0.000 C 
ATOM     11  C   UNL     1      49.803  10.081  13.210  0.00  0.00    +0.000 C 
ATOM     12  C   UNL     1      49.211  10.982  14.236  0.00  0.00    +0.000 C 
ENDBRANCH   9  10
BRANCH   8   7
ATOM      7  C   UNL     1      48.506   6.532  13.299  0.00  0.00    +0.000 C 
BRANCH   7   6
ATOM      3  C   UNL     1      44.502   5.651  11.841  0.00  0.00    +0.000 A 
ATOM      4  C   UNL     1      45.145   4.756  12.705  0.00  0.00    +0.000 A 
ATOM      5  C   UNL     1      46.425   5.024  13.201  0.00  0.00    +0.000 A 
ATOM      6  C   UNL     1      47.104   6.193  12.838  0.00  0.00    +0.000 A 
ATOM     23  C   UNL     1      46.442   7.105  11.995  0.00  0.00    +0.000 A 
ATOM     24  C   UNL     1      45.160   6.839  11.503  0.00  0.00    +0.000 A 
BRANCH   3   2
ATOM      2  C   UNL     1      43.155   5.314  11.256  0.00  0.00    +0.000 C 
BRANCH   2   1
ATOM      1  N   UNL     1      42.110   6.212  11.731  0.00  0.00    +0.000 NA
ATOM     25  H   UNL     1      41.529   5.721  12.406  0.00  0.00    +0.000 HD
ATOM     26  H   UNL     1      41.504   6.453  10.947  0.00  0.00    +0.000 HD
ENDBRANCH   2   1
ENDBRANCH   3   2
ENDBRANCH   7   6
ENDBRANCH   8   7
TORSDOF 6
ENDMDL
