MODEL 1
REMARK VINA RESULT:    -8.336      0.000      0.000
REMARK INTER + INTRA:         -12.073
REMARK INTER:                 -11.261
REMARK INTRA:                  -0.812
REMARK UNBOUND:                -0.812
REMARK  Name = 
REMARK  8 active torsions:
REMARK  status: ('A' for Active; 'I' for Inactive)
REMARK    1  A    between atoms: C_1  and  C_2
REMARK    2  A    between atoms: C_2  and  C_3
REMARK    3  A    between atoms: C_2  and  C_4
REMARK    4  A    between atoms: C_2  and  C_15
REMARK    5  A    between atoms: C_4  and  N_5
REMARK    6  A    between atoms: C_9  and  C_10
REMARK    7  A    between atoms: C_19  and  N_20
REMARK    8  A    between atoms: N_20  and  C_21
REMARK                            x       y       z     vdW  Elec       q    Type
REMARK                         _______ _______ _______ _____ _____    ______ ____
ROOT
ATOM      1  C   UNL     1      43.191   6.708  11.289  0.00  0.00    +0.000 C 
ATOM      2  C   UNL     1      43.631   5.393  11.979  0.00  0.00    +0.000 C 
ATOM      3  C   UNL     1      42.634   5.151  13.140  0.00  0.00    +0.000 C 
ENDROOT
BRANCH   2  15
ATOM     15  C   UNL     1      45.091   5.492  12.490  0.00  0.00    +0.000 A 
ATOM     16  C   UNL     1      46.028   6.338  11.872  0.00  0.00    +0.000 A 
ATOM     17  C   UNL     1      47.351   6.403  12.315  0.00  0.00    +0.000 A 
ATOM     18  C   UNL     1      47.783   5.597  13.367  0.00  0.00    +0.000 A 
ATOM     19  C   UNL     1      46.896   4.726  13.990  0.00  0.00    +0.000 A 
ATOM     25  C   UNL     1      45.559   4.694  13.554  0.00  0.00    +0.000 A 
BRANCH  19  20
ATOM     20  N   UNL     1      47.270   3.878  15.056  0.00  0.00    +0.000 N 
ATOM     29  H   UNL     1      46.936   2.932  14.876  0.00  0.00    +0.000 HD
BRANCH  20  21
ATOM     21  C   UNL     1      47.250   4.227  16.455  0.00  0.00    +0.000 C 
ATOM     22  C   UNL     1      48.656   4.557  16.997  0.00  0.00    +0.000 C 
ATOM     23  N   UNL     1      48.420   3.664  18.146  0.00  0.00    +0.000 NA
ATOM     24  C   UNL     1      47.271   3.055  17.448  0.00  0.00    +0.000 C 
ATOM     30  H   UNL     1      48.161   4.164  18.997  0.00  0.00    +0.000 HD
ENDBRANCH  20  21
ENDBRANCH  19  20
ENDBRANCH   2  15
BRANCH   2   4
ATOM      4  C   UNL     1      43.563   4.203  10.970  0.00  0.00    +0.000 C 
BRANCH   4   5
ATOM      5  N   UNL     1      43.955   4.592   9.617  0.00  0.00    +0.000 N 
ATOM      6  C   UNL     1      44.875   3.840   8.910  0.00  0.00    +0.000 A 
ATOM      7  C   UNL     1      44.979   2.456   9.011  0.00  0.00    +0.000 A 
ATOM      8  C   UNL     1      45.896   1.774   8.210  0.00  0.00    +0.000 A 
ATOM      9  C   UNL     1      46.686   2.476   7.301  0.00  0.00    +0.000 A 
ATOM     13  C   UNL     1      46.513   3.850   7.262  0.00  0.00    +0.000 A 
ATOM     14  N   UNL     1      45.636   4.537   8.046  0.00  0.00    +0.000 NA
ATOM     26  H   UNL     1      44.204   5.568   9.476  0.00  0.00    +0.000 HD
BRANCH   9  10
ATOM     10  C   UNL     1      47.639   1.726   6.448  0.00  0.00    +0.000 C 
ATOM     11  N   UNL     1      48.805   2.323   6.063  0.00  0.00    +0.000 N 
ATOM     12  O   UNL     1      47.391   0.582   6.080  0.00  0.00    +0.000 OA
ATOM     27  H   UNL     1      49.097   3.262   6.283  0.00  0.00    +0.000 HD
ATOM     28  H   UNL     1      49.414   1.773   5.468  0.00  0.00    +0.000 HD
ENDBRANCH   9  10
ENDBRANCH   4   5
ENDBRANCH   2   4
TORSDOF 6
ENDMDL
MODEL 2
REMARK VINA RESULT:    -7.731      3.046      4.828
REMARK INTER + INTRA:         -11.255
REMARK INTER:                 -10.724
REMARK INTRA:                  -0.530
REMARK UNBOUND:                -0.812
REMARK  Name = 
REMARK  8 active torsions:
REMARK  status: ('A' for Active; 'I' for Inactive)
REMARK    1  A    between atoms: C_1  and  C_2
REMARK    2  A    between atoms: C_2  and  C_3
REMARK    3  A    between atoms: C_2  and  C_4
REMARK    4  A    between atoms: C_2  and  C_15
REMARK    5  A    between atoms: C_4  and  N_5
REMARK    6  A    between atoms: C_9  and  C_10
REMARK    7  A    between atoms: C_19  and  N_20
REMARK    8  A    between atoms: N_20  and  C_21
REMARK                            x       y       z     vdW  Elec       q    Type
REMARK                         _______ _______ _______ _____ _____    ______ ____
ROOT
ATOM      1  C   UNL     1      43.374   4.436  13.431  0.00  0.00    +0.000 C 
ATOM      2  C   UNL     1      44.231   4.477  12.141  0.00  0.00    +0.000 C 
ATOM      3  C   UNL     1      45.145   3.227  12.182  0.00  0.00    +0.000 C 
ENDROOT
BRANCH   2  15
ATOM     15  C   UNL     1      45.056   5.787  12.062  0.00  0.00    +0.000 A 
ATOM     16  C   UNL     1      46.459   5.777  12.153  0.00  0.00    +0.000 A 
ATOM     17  C   UNL     1      47.197   6.962  12.111  0.00  0.00    +0.000 A 
ATOM     18  C   UNL     1      46.552   8.193  12.013  0.00  0.00    +0.000 A 
ATOM     19  C   UNL     1      45.163   8.251  11.947  0.00  0.00    +0.000 A 
ATOM     25  C   UNL     1      44.434   7.048  11.958  0.00  0.00    +0.000 A 
BRANCH  19  20
ATOM     20  N   UNL     1      44.447   9.464  11.854  0.00  0.00    +0.000 N 
ATOM     29  H   UNL     1      43.870   9.588  12.686  0.00  0.00    +0.000 HD
BRANCH  20  21
ATOM     21  C   UNL     1      43.834   9.989  10.659  0.00  0.00    +0.000 C 
ATOM     22  C   UNL     1      43.681  11.523  10.703  0.00  0.00    +0.000 C 
ATOM     23  N   UNL     1      42.275  11.393  10.278  0.00  0.00    +0.000 NA
ATOM     24  C   UNL     1      42.298   9.955  10.612  0.00  0.00    +0.000 C 
ATOM     30  H   UNL     1      42.136  11.579   9.285  0.00  0.00    +0.000 HD
ENDBRANCH  20  21
ENDBRANCH  19  20
ENDBRANCH   2  15
BRANCH   2   4
ATOM      4  C   UNL     1      43.313   4.419  10.879  0.00  0.00    +0.000 C 
BRANCH   4   5
ATOM      5  N   UNL     1      43.980   4.916   9.678  0.00  0.00    +0.000 N 
ATOM      6  C   UNL     1      44.845   4.103   8.969  0.00  0.00    +0.000 A 
ATOM      7  C   UNL     1      44.672   2.728   8.833  0.00  0.00    +0.000 A 
ATOM      8  C   UNL     1      45.562   1.998   8.044  0.00  0.00    +0.000 A 
ATOM      9  C   UNL     1      46.603   2.647   7.382  0.00  0.00    +0.000 A 
ATOM     13  C   UNL     1      46.697   4.016   7.567  0.00  0.00    +0.000 A 
ATOM     14  N   UNL     1      45.849   4.746   8.346  0.00  0.00    +0.000 NA
ATOM     26  H   UNL     1      44.425   5.829   9.746  0.00  0.00    +0.000 HD
BRANCH   9  10
ATOM     10  C   UNL     1      47.523   1.850   6.535  0.00  0.00    +0.000 C 
ATOM     11  N   UNL     1      48.616   2.456   5.982  0.00  0.00    +0.000 N 
ATOM     12  O   UNL     1      47.313   0.661   6.320  0.00  0.00    +0.000 OA
ATOM     27  H   UNL     1      48.869   3.427   6.069  0.00  0.00    +0.000 HD
ATOM     28  H   UNL     1      49.204   1.870   5.400  0.00  0.00    +0.000 HD
ENDBRANCH   9  10
ENDBRANCH   4   5
ENDBRANCH   2   4
TORSDOF 6
ENDMDL
MODEL 3
REMARK VINA RESULT:    -7.251      3.151      8.235
REMARK INTER + INTRA:         -10.606
REMARK INTER:                  -9.959
REMARK INTRA:                  -0.647
REMARK UNBOUND:                -0.812
REMARK  Name = 
REMARK  8 active torsions:
REMARK  status: ('A' for Active; 'I' for Inactive)
REMARK    1  A    between atoms: C_1  and  C_2
REMARK    2  A    between atoms: C_2  and  C_3
REMARK    3  A    between atoms: C_2  and  C_4
REMARK    4  A    between atoms: C_2  and  C_15
REMARK    5  A    between atoms: C_4  and  N_5
REMARK    6  A    between atoms: C_9  and  C_10
REMARK    7  A    between atoms: C_19  and  N_20
REMARK    8  A    between atoms: N_20  and  C_21
REMARK                            x       y       z     vdW  Elec       q    Type
REMARK                         _______ _______ _______ _____ _____    ______ ____
ROOT
ATOM      1  C   UNL     1      44.242   6.895  11.445  0.00  0.00    +0.000 C 
ATOM      2  C   UNL     1      45.402   5.868  11.467  0.00  0.00    +0.000 C 
ATOM      3  C   UNL     1      46.650   6.604  10.920  0.00  0.00    +0.000 C 
ENDROOT
BRANCH   2  15
ATOM     15  C   UNL     1      45.056   4.618  10.618  0.00  0.00    +0.000 A 
ATOM     16  C   UNL     1      44.322   3.547  11.156  0.00  0.00    +0.000 A 
ATOM     17  C   UNL     1      44.038   2.409  10.397  0.00  0.00    +0.000 A 
ATOM     18  C   UNL     1      44.511   2.294   9.091  0.00  0.00    +0.000 A 
ATOM     19  C   UNL     1      45.265   3.320   8.529  0.00  0.00    +0.000 A 
ATOM     25  C   UNL     1      45.516   4.474   9.293  0.00  0.00    +0.000 A 
BRANCH  19  20
ATOM     20  N   UNL     1      45.779   3.265   7.215  0.00  0.00    +0.000 N 
ATOM     29  H   UNL     1      45.122   2.775   6.609  0.00  0.00    +0.000 HD
BRANCH  20  21
ATOM     21  C   UNL     1      47.157   3.031   6.860  0.00  0.00    +0.000 C 
ATOM     22  C   UNL     1      47.343   2.807   5.345  0.00  0.00    +0.000 C 
ATOM     23  N   UNL     1      48.155   1.609   5.624  0.00  0.00    +0.000 NA
ATOM     24  C   UNL     1      47.662   1.587   7.015  0.00  0.00    +0.000 C 
ATOM     30  H   UNL     1      49.158   1.776   5.550  0.00  0.00    +0.000 HD
ENDBRANCH  20  21
ENDBRANCH  19  20
ENDBRANCH   2  15
BRANCH   2   4
ATOM      4  C   UNL     1      45.671   5.387  12.928  0.00  0.00    +0.000 C 
BRANCH   4   5
ATOM      5  N   UNL     1      47.040   5.653  13.363  0.00  0.00    +0.000 N 
ATOM      6  C   UNL     1      47.462   5.272  14.624  0.00  0.00    +0.000 A 
ATOM      7  C   UNL     1      47.016   4.123  15.271  0.00  0.00    +0.000 A 
ATOM      8  C   UNL     1      47.546   3.785  16.517  0.00  0.00    +0.000 A 
ATOM      9  C   UNL     1      48.529   4.584  17.097  0.00  0.00    +0.000 A 
ATOM     13  C   UNL     1      48.919   5.704  16.382  0.00  0.00    +0.000 A 
ATOM     14  N   UNL     1      48.403   6.061  15.172  0.00  0.00    +0.000 NA
ATOM     26  H   UNL     1      47.395   6.593  13.207  0.00  0.00    +0.000 HD
BRANCH   9  10
ATOM     10  C   UNL     1      49.090   4.192  18.413  0.00  0.00    +0.000 C 
ATOM     11  N   UNL     1      50.259   3.488  18.459  0.00  0.00    +0.000 N 
ATOM     12  O   UNL     1      48.516   4.486  19.456  0.00  0.00    +0.000 OA
ATOM     27  H   UNL     1      50.798   3.172  17.668  0.00  0.00    +0.000 HD
ATOM     28  H   UNL     1      50.592   3.233  19.382  0.00  0.00    +0.000 HD
ENDBRANCH   9  10
ENDBRANCH   4   5
ENDBRANCH   2   4
TORSDOF 6
ENDMDL
MODEL 4
REMARK VINA RESULT:    -7.203      2.486      3.023
REMARK INTER + INTRA:         -10.542
REMARK INTER:                  -9.808
REMARK INTRA:                  -0.735
REMARK UNBOUND:                -0.812
REMARK  Name = 
REMARK  8 active torsions:
REMARK  status: ('A' for Active; 'I' for Inactive)
REMARK    1  A    between atoms: C_1  and  C_2
REMARK    2  A    between atoms: C_2  and  C_3
REMARK    3  A    between atoms: C_2  and  C_4
REMARK    4  A    between atoms: C_2  and  C_15
REMARK    5  A    between atoms: C_4  and  N_5
REMARK    6  A    between atoms: C_9  and  C_10
REMARK    7  A    between atoms: C_19  and  N_20
REMARK    8  A    between atoms: N_20  and  C_21
REMARK                            x       y       z     vdW  Elec       q    Type
REMARK                         _______ _______ _______ _____ _____    ______ ____
ROOT
ATOM      1  C   UNL     1      42.162   5.502  11.920  0.00  0.00    +0.000 C 
ATOM      2  C   UNL     1      43.679   5.237  11.754  0.00  0.00    +0.000 C 
ATOM      3  C   UNL     1      44.038   4.100  12.743  0.00  0.00    +0.000 C 
ENDROOT
BRANCH   2  15
ATOM     15  C   UNL     1      44.503   6.520  12.032  0.00  0.00    +0.000 A 
ATOM     16  C   UNL     1      44.229   7.726  11.365  0.00  0.00    +0.000 A 
ATOM     17  C   UNL     1      44.993   8.873  11.597  0.00  0.00    +0.000 A 
ATOM     18  C   UNL     1      46.075   8.836  12.475  0.00  0.00    +0.000 A 
ATOM     19  C   UNL     1      46.398   7.655  13.136  0.00  0.00    +0.000 A 
ATOM     25  C   UNL     1      45.601   6.517  12.918  0.00  0.00    +0.000 A 
BRANCH  19  20
ATOM     20  N   UNL     1      47.484   7.547  14.032  0.00  0.00    +0.000 N 
ATOM     29  H   UNL     1      47.575   8.410  14.567  0.00  0.00    +0.000 HD
BRANCH  20  21
ATOM     21  C   UNL     1      48.752   6.924  13.745  0.00  0.00    +0.000 C 
ATOM     22  C   UNL     1      49.854   7.351  14.738  0.00  0.00    +0.000 C 
ATOM     23  N   UNL     1      50.760   7.629  13.609  0.00  0.00    +0.000 NA
ATOM     24  C   UNL     1      49.617   7.607  12.674  0.00  0.00    +0.000 C 
ATOM     30  H   UNL     1      51.437   6.884  13.443  0.00  0.00    +0.000 HD
ENDBRANCH  20  21
ENDBRANCH  19  20
ENDBRANCH   2  15
BRANCH   2   4
ATOM      4  C   UNL     1      43.992   4.782  10.293  0.00  0.00    +0.000 C 
BRANCH   4   5
ATOM      5  N   UNL     1      44.852   3.602  10.244  0.00  0.00    +0.000 N 
ATOM      6  C   UNL     1      45.421   3.197   9.051  0.00  0.00    +0.000 A 
ATOM      7  C   UNL     1      45.840   4.080   8.059  0.00  0.00    +0.000 A 
ATOM      8  C   UNL     1      46.462   3.583   6.914  0.00  0.00    +0.000 A 
ATOM      9  C   UNL     1      46.681   2.214   6.776  0.00  0.00    +0.000 A 
ATOM     13  C   UNL     1      46.239   1.408   7.813  0.00  0.00    +0.000 A 
ATOM     14  N   UNL     1      45.614   1.871   8.932  0.00  0.00    +0.000 NA
ATOM     26  H   UNL     1      44.502   2.763  10.701  0.00  0.00    +0.000 HD
BRANCH   9  10
ATOM     10  C   UNL     1      47.363   1.713   5.558  0.00  0.00    +0.000 C 
ATOM     11  N   UNL     1      46.663   1.626   4.388  0.00  0.00    +0.000 N 
ATOM     12  O   UNL     1      48.540   1.372   5.589  0.00  0.00    +0.000 OA
ATOM     27  H   UNL     1      45.690   1.852   4.255  0.00  0.00    +0.000 HD
ATOM     28  H   UNL     1      47.172   1.264   3.590  0.00  0.00    +0.000 HD
ENDBRANCH   9  10
ENDBRANCH   4   5
ENDBRANCH   2   4
TORSDOF 6
ENDMDL
MODEL 5
REMARK VINA RESULT:    -7.037      3.272      8.322
REMARK INTER + INTRA:         -10.318
REMARK INTER:                  -9.624
REMARK INTRA:                  -0.694
REMARK UNBOUND:                -0.812
REMARK  Name = 
REMARK  8 active torsions:
REMARK  status: ('A' for Active; 'I' for Inactive)
REMARK    1  A    between atoms: C_1  and  C_2
REMARK    2  A    between atoms: C_2  and  C_3
REMARK    3  A    between atoms: C_2  and  C_4
REMARK    4  A    between atoms: C_2  and  C_15
REMARK    5  A    between atoms: C_4  and  N_5
REMARK    6  A    between atoms: C_9  and  C_10
REMARK    7  A    between atoms: C_19  and  N_20
REMARK    8  A    between atoms: N_20  and  C_21
REMARK                            x       y       z     vdW  Elec       q    Type
REMARK                         _______ _______ _______ _____ _____    ______ ____
ROOT
ATOM      1  C   UNL     1      46.070   7.773  13.176  0.00  0.00    +0.000 C 
ATOM      2  C   UNL     1      46.507   6.504  12.403  0.00  0.00    +0.000 C 
ATOM      3  C   UNL     1      47.284   6.995  11.156  0.00  0.00    +0.000 C 
ENDROOT
BRANCH   2  15
ATOM     15  C   UNL     1      45.281   5.641  12.010  0.00  0.00    +0.000 A 
ATOM     16  C   UNL     1      43.975   6.013  12.374  0.00  0.00    +0.000 A 
ATOM     17  C   UNL     1      42.875   5.217  12.044  0.00  0.00    +0.000 A 
ATOM     18  C   UNL     1      43.054   4.008  11.374  0.00  0.00    +0.000 A 
ATOM     19  C   UNL     1      44.332   3.588  11.019  0.00  0.00    +0.000 A 
ATOM     25  C   UNL     1      45.427   4.415  11.328  0.00  0.00    +0.000 A 
BRANCH  19  20
ATOM     20  N   UNL     1      44.583   2.373  10.345  0.00  0.00    +0.000 N 
ATOM     29  H   UNL     1      45.318   1.857  10.829  0.00  0.00    +0.000 HD
BRANCH  20  21
ATOM     21  C   UNL     1      44.616   2.196   8.915  0.00  0.00    +0.000 C 
ATOM     22  C   UNL     1      45.984   1.681   8.419  0.00  0.00    +0.000 C 
ATOM     23  N   UNL     1      45.999   2.728   7.381  0.00  0.00    +0.000 NA
ATOM     24  C   UNL     1      44.921   3.452   8.083  0.00  0.00    +0.000 C 
ATOM     30  H   UNL     1      45.727   2.385   6.460  0.00  0.00    +0.000 HD
ENDBRANCH  20  21
ENDBRANCH  19  20
ENDBRANCH   2  15
BRANCH   2   4
ATOM      4  C   UNL     1      47.440   5.623  13.293  0.00  0.00    +0.000 C 
BRANCH   4   5
ATOM      5  N   UNL     1      46.752   5.082  14.463  0.00  0.00    +0.000 N 
ATOM      6  C   UNL     1      47.425   4.925  15.661  0.00  0.00    +0.000 A 
ATOM      7  C   UNL     1      48.421   5.791  16.104  0.00  0.00    +0.000 A 
ATOM      8  C   UNL     1      49.001   5.589  17.357  0.00  0.00    +0.000 A 
ATOM      9  C   UNL     1      48.568   4.540  18.166  0.00  0.00    +0.000 A 
ATOM     13  C   UNL     1      47.568   3.732  17.650  0.00  0.00    +0.000 A 
ATOM     14  N   UNL     1      47.000   3.901  16.423  0.00  0.00    +0.000 NA
ATOM     26  H   UNL     1      46.204   4.237  14.322  0.00  0.00    +0.000 HD
BRANCH   9  10
ATOM     10  C   UNL     1      49.186   4.359  19.501  0.00  0.00    +0.000 C 
ATOM     11  N   UNL     1      48.510   3.663  20.463  0.00  0.00    +0.000 N 
ATOM     12  O   UNL     1      50.290   4.829  19.754  0.00  0.00    +0.000 OA
ATOM     27  H   UNL     1      47.591   3.259  20.374  0.00  0.00    +0.000 HD
ATOM     28  H   UNL     1      48.970   3.581  21.362  0.00  0.00    +0.000 HD
ENDBRANCH   9  10
ENDBRANCH   4   5
ENDBRANCH   2   4
TORSDOF 6
ENDMDL
MODEL 6
REMARK VINA RESULT:    -6.674      3.563      7.769
REMARK INTER + INTRA:          -9.828
REMARK INTER:                  -8.803
REMARK INTRA:                  -1.025
REMARK UNBOUND:                -0.812
REMARK  Name = 
REMARK  8 active torsions:
REMARK  status: ('A' for Active; 'I' for Inactive)
REMARK    1  A    between atoms: C_1  and  C_2
REMARK    2  A    between atoms: C_2  and  C_3
REMARK    3  A    between atoms: C_2  and  C_4
REMARK    4  A    between atoms: C_2  and  C_15
REMARK    5  A    between atoms: C_4  and  N_5
REMARK    6  A    between atoms: C_9  and  C_10
REMARK    7  A    between atoms: C_19  and  N_20
REMARK    8  A    between atoms: N_20  and  C_21
REMARK                            x       y       z     vdW  Elec       q    Type
REMARK                         _______ _______ _______ _____ _____    ______ ____
ROOT
ATOM      1  C   UNL     1      49.414   9.701  11.631  0.00  0.00    +0.000 C 
ATOM      2  C   UNL     1      48.969   8.420  12.380  0.00  0.00    +0.000 C 
ATOM      3  C   UNL     1      49.887   7.277  11.878  0.00  0.00    +0.000 C 
ENDROOT
BRANCH   2  15
ATOM     15  C   UNL     1      47.473   8.111  12.118  0.00  0.00    +0.000 A 
ATOM     16  C   UNL     1      46.465   9.032  12.451  0.00  0.00    +0.000 A 
ATOM     17  C   UNL     1      45.116   8.738  12.241  0.00  0.00    +0.000 A 
ATOM     18  C   UNL     1      44.734   7.501  11.724  0.00  0.00    +0.000 A 
ATOM     19  C   UNL     1      45.699   6.550  11.405  0.00  0.00    +0.000 A 
ATOM     25  C   UNL     1      47.055   6.871  11.592  0.00  0.00    +0.000 A 
BRANCH  19  20
ATOM     20  N   UNL     1      45.380   5.276  10.885  0.00  0.00    +0.000 N 
ATOM     29  H   UNL     1      45.012   5.373   9.940  0.00  0.00    +0.000 HD
BRANCH  20  21
ATOM     21  C   UNL     1      44.771   4.196  11.621  0.00  0.00    +0.000 C 
ATOM     22  C   UNL     1      44.244   3.080  10.695  0.00  0.00    +0.000 C 
ATOM     23  N   UNL     1      42.958   3.092  11.415  0.00  0.00    +0.000 NA
ATOM     24  C   UNL     1      43.301   4.393  12.023  0.00  0.00    +0.000 C 
ATOM     30  H   UNL     1      42.870   2.336  12.094  0.00  0.00    +0.000 HD
ENDBRANCH  20  21
ENDBRANCH  19  20
ENDBRANCH   2  15
BRANCH   2   4
ATOM      4  C   UNL     1      49.150   8.604  13.920  0.00  0.00    +0.000 C 
BRANCH   4   5
ATOM      5  N   UNL     1      49.931   7.528  14.526  0.00  0.00    +0.000 N 
ATOM      6  C   UNL     1      49.317   6.579  15.322  0.00  0.00    +0.000 A 
ATOM      7  C   UNL     1      48.025   6.108  15.102  0.00  0.00    +0.000 A 
ATOM      8  C   UNL     1      47.511   5.101  15.920  0.00  0.00    +0.000 A 
ATOM      9  C   UNL     1      48.295   4.559  16.936  0.00  0.00    +0.000 A 
ATOM     13  C   UNL     1      49.570   5.082  17.082  0.00  0.00    +0.000 A 
ATOM     14  N   UNL     1      50.085   6.075  16.305  0.00  0.00    +0.000 NA
ATOM     26  H   UNL     1      50.790   7.797  15.001  0.00  0.00    +0.000 HD
BRANCH   9  10
ATOM     10  C   UNL     1      47.731   3.477  17.780  0.00  0.00    +0.000 C 
ATOM     11  N   UNL     1      48.362   3.138  18.942  0.00  0.00    +0.000 N 
ATOM     12  O   UNL     1      46.713   2.881  17.444  0.00  0.00    +0.000 OA
ATOM     27  H   UNL     1      49.214   3.540  19.299  0.00  0.00    +0.000 HD
ATOM     28  H   UNL     1      47.944   2.382  19.474  0.00  0.00    +0.000 HD
ENDBRANCH   9  10
ENDBRANCH   4   5
ENDBRANCH   2   4
TORSDOF 6
ENDMDL
MODEL 7
REMARK VINA RESULT:    -6.498      3.358      5.340
REMARK INTER + INTRA:          -9.590
REMARK INTER:                  -8.492
REMARK INTRA:                  -1.099
REMARK UNBOUND:                -0.812
REMARK  Name = 
REMARK  8 active torsions:
REMARK  status: ('A' for Active; 'I' for Inactive)
REMARK    1  A    between atoms: C_1  and  C_2
REMARK    2  A    between atoms: C_2  and  C_3
REMARK    3  A    between atoms: C_2  and  C_4
REMARK    4  A    between atoms: C_2  and  C_15
REMARK    5  A    between atoms: C_4  and  N_5
REMARK    6  A    between atoms: C_9  and  C_10
REMARK    7  A    between atoms: C_19  and  N_20
REMARK    8  A    between atoms: N_20  and  C_21
REMARK                            x       y       z     vdW  Elec       q    Type
REMARK                         _______ _______ _______ _____ _____    ______ ____
ROOT
ATOM      1  C   UNL     1      50.631   9.184  13.822  0.00  0.00    +0.000 C 
ATOM      2  C   UNL     1      49.211   8.576  13.940  0.00  0.00    +0.000 C 
ATOM      3  C   UNL     1      48.218   9.710  13.581  0.00  0.00    +0.000 C 
ENDROOT
BRANCH   2  15
ATOM     15  C   UNL     1      48.957   8.023  15.365  0.00  0.00    +0.000 A 
ATOM     16  C   UNL     1      48.439   8.838  16.387  0.00  0.00    +0.000 A 
ATOM     17  C   UNL     1      48.240   8.345  17.678  0.00  0.00    +0.000 A 
ATOM     18  C   UNL     1      48.587   7.032  17.994  0.00  0.00    +0.000 A 
ATOM     19  C   UNL     1      49.127   6.198  17.020  0.00  0.00    +0.000 A 
ATOM     25  C   UNL     1      49.292   6.699  15.716  0.00  0.00    +0.000 A 
BRANCH  19  20
ATOM     20  N   UNL     1      49.505   4.862  17.274  0.00  0.00    +0.000 N 
ATOM     29  H   UNL     1      50.477   4.721  16.998  0.00  0.00    +0.000 HD
BRANCH  20  21
ATOM     21  C   UNL     1      48.682   3.699  17.055  0.00  0.00    +0.000 C 
ATOM     22  C   UNL     1      47.238   4.070  16.655  0.00  0.00    +0.000 C 
ATOM     23  N   UNL     1      46.719   3.129  17.665  0.00  0.00    +0.000 NA
ATOM     24  C   UNL     1      48.047   3.071  18.307  0.00  0.00    +0.000 C 
ATOM     30  H   UNL     1      46.419   2.239  17.268  0.00  0.00    +0.000 HD
ENDBRANCH  20  21
ENDBRANCH  19  20
ENDBRANCH   2  15
BRANCH   2   4
ATOM      4  C   UNL     1      49.044   7.392  12.937  0.00  0.00    +0.000 C 
BRANCH   4   5
ATOM      5  N   UNL     1      47.771   7.437  12.221  0.00  0.00    +0.000 N 
ATOM      6  C   UNL     1      46.946   6.328  12.186  0.00  0.00    +0.000 A 
ATOM      7  C   UNL     1      46.818   5.430  13.242  0.00  0.00    +0.000 A 
ATOM      8  C   UNL     1      45.912   4.374  13.140  0.00  0.00    +0.000 A 
ATOM      9  C   UNL     1      45.127   4.235  11.997  0.00  0.00    +0.000 A 
ATOM     13  C   UNL     1      45.313   5.177  10.999  0.00  0.00    +0.000 A 
ATOM     14  N   UNL     1      46.204   6.205  11.070  0.00  0.00    +0.000 NA
ATOM     26  H   UNL     1      47.791   7.818  11.277  0.00  0.00    +0.000 HD
BRANCH   9  10
ATOM     10  C   UNL     1      44.157   3.115  11.923  0.00  0.00    +0.000 C 
ATOM     11  N   UNL     1      44.011   2.434  10.748  0.00  0.00    +0.000 N 
ATOM     12  O   UNL     1      43.484   2.798  12.898  0.00  0.00    +0.000 OA
ATOM     27  H   UNL     1      44.490   2.625   9.883  0.00  0.00    +0.000 HD
ATOM     28  H   UNL     1      43.325   1.687  10.747  0.00  0.00    +0.000 HD
ENDBRANCH   9  10
ENDBRANCH   4   5
ENDBRANCH   2   4
TORSDOF 6
ENDMDL
MODEL 8
REMARK VINA RESULT:    -6.469      3.559      7.333
REMARK INTER + INTRA:          -9.551
REMARK INTER:                  -9.580
REMARK INTRA:                   0.029
REMARK UNBOUND:                -0.812
REMARK  Name = 
REMARK  8 active torsions:
REMARK  status: ('A' for Active; 'I' for Inactive)
REMARK    1  A    between atoms: C_1  and  C_2
REMARK    2  A    between atoms: C_2  and  C_3
REMARK    3  A    between atoms: C_2  and  C_4
REMARK    4  A    between atoms: C_2  and  C_15
REMARK    5  A    between atoms: C_4  and  N_5
REMARK    6  A    between atoms: C_9  and  C_10
REMARK    7  A    between atoms: C_19  and  N_20
REMARK    8  A    between atoms: N_20  and  C_21
REMARK                            x       y       z     vdW  Elec       q    Type
REMARK                         _______ _______ _______ _____ _____    ______ ____
ROOT
ATOM      1  C   UNL     1      43.612   2.687  12.141  0.00  0.00    +0.000 C 
ATOM      2  C   UNL     1      44.097   4.066  11.629  0.00  0.00    +0.000 C 
ATOM      3  C   UNL     1      42.832   4.949  11.480  0.00  0.00    +0.000 C 
ENDROOT
BRANCH   2  15
ATOM     15  C   UNL     1      44.860   3.926  10.288  0.00  0.00    +0.000 A 
ATOM     16  C   UNL     1      45.210   5.052   9.522  0.00  0.00    +0.000 A 
ATOM     17  C   UNL     1      45.871   4.921   8.299  0.00  0.00    +0.000 A 
ATOM     18  C   UNL     1      46.168   3.658   7.788  0.00  0.00    +0.000 A 
ATOM     19  C   UNL     1      45.816   2.516   8.500  0.00  0.00    +0.000 A 
ATOM     25  C   UNL     1      45.179   2.664   9.746  0.00  0.00    +0.000 A 
BRANCH  19  20
ATOM     20  N   UNL     1      46.081   1.208   8.038  0.00  0.00    +0.000 N 
ATOM     29  H   UNL     1      45.783   0.529   8.738  0.00  0.00    +0.000 HD
BRANCH  20  21
ATOM     21  C   UNL     1      47.259   0.795   7.316  0.00  0.00    +0.000 C 
ATOM     22  C   UNL     1      48.155   1.988   6.924  0.00  0.00    +0.000 C 
ATOM     23  N   UNL     1      48.233   1.474   5.545  0.00  0.00    +0.000 NA
ATOM     24  C   UNL     1      47.087   0.579   5.804  0.00  0.00    +0.000 C 
ATOM     30  H   UNL     1      49.102   0.976   5.349  0.00  0.00    +0.000 HD
ENDBRANCH  20  21
ENDBRANCH  19  20
ENDBRANCH   2  15
BRANCH   2   4
ATOM      4  C   UNL     1      45.073   4.714  12.662  0.00  0.00    +0.000 C 
BRANCH   4   5
ATOM      5  N   UNL     1      44.949   6.169  12.715  0.00  0.00    +0.000 N 
ATOM      6  C   UNL     1      46.066   6.973  12.584  0.00  0.00    +0.000 A 
ATOM      7  C   UNL     1      47.150   6.659  11.768  0.00  0.00    +0.000 A 
ATOM      8  C   UNL     1      48.207   7.562  11.650  0.00  0.00    +0.000 A 
ATOM      9  C   UNL     1      48.164   8.779  12.328  0.00  0.00    +0.000 A 
ATOM     13  C   UNL     1      47.046   9.013  13.112  0.00  0.00    +0.000 A 
ATOM     14  N   UNL     1      46.012   8.138  13.255  0.00  0.00    +0.000 NA
ATOM     26  H   UNL     1      44.399   6.554  13.480  0.00  0.00    +0.000 HD
BRANCH   9  10
ATOM     10  C   UNL     1      49.291   9.730  12.169  0.00  0.00    +0.000 C 
ATOM     11  N   UNL     1      49.067  11.067  12.338  0.00  0.00    +0.000 N 
ATOM     12  O   UNL     1      50.416   9.334  11.884  0.00  0.00    +0.000 OA
ATOM     27  H   UNL     1      48.183  11.503  12.547  0.00  0.00    +0.000 HD
ATOM     28  H   UNL     1      49.867  11.675  12.205  0.00  0.00    +0.000 HD
ENDBRANCH   9  10
ENDBRANCH   4   5
ENDBRANCH   2   4
TORSDOF 6
ENDMDL
MODEL 9
REMARK VINA RESULT:    -6.415      4.198      7.351
REMARK INTER + INTRA:          -9.477
REMARK INTER:                  -8.302
REMARK INTRA:                  -1.175
REMARK UNBOUND:                -0.812
REMARK  Name = 
REMARK  8 active torsions:
REMARK  status: ('A' for Active; 'I' for Inactive)
REMARK    1  A    between atoms: C_1  and  C_2
REMARK    2  A    between atoms: C_2  and  C_3
REMARK    3  A    between atoms: C_2  and  C_4
REMARK    4  A    between atoms: C_2  and  C_15
REMARK    5  A    between atoms: C_4  and  N_5
REMARK    6  A    between atoms: C_9  and  C_10
REMARK    7  A    between atoms: C_19  and  N_20
REMARK    8  A    between atoms: N_20  and  C_21
REMARK                            x       y       z     vdW  Elec       q    Type
REMARK                         _______ _______ _______ _____ _____    ______ ____
ROOT
ATOM      1  C   UNL     1      48.443   8.752  14.205  0.00  0.00    +0.000 C 
ATOM      2  C   UNL     1      48.951   9.002  12.762  0.00  0.00    +0.000 C 
ATOM      3  C   UNL     1      50.379   9.587  12.895  0.00  0.00    +0.000 C 
ENDROOT
BRANCH   2  15
ATOM     15  C   UNL     1      48.006   9.964  11.998  0.00  0.00    +0.000 A 
ATOM     16  C   UNL     1      48.502  10.887  11.061  0.00  0.00    +0.000 A 
ATOM     17  C   UNL     1      47.652  11.774  10.396  0.00  0.00    +0.000 A 
ATOM     18  C   UNL     1      46.286  11.786  10.675  0.00  0.00    +0.000 A 
ATOM     19  C   UNL     1      45.757  10.908  11.615  0.00  0.00    +0.000 A 
ATOM     25  C   UNL     1      46.620   9.999  12.254  0.00  0.00    +0.000 A 
BRANCH  19  20
ATOM     20  N   UNL     1      44.385  10.873  11.949  0.00  0.00    +0.000 N 
ATOM     29  H   UNL     1      44.253  10.325  12.799  0.00  0.00    +0.000 HD
BRANCH  20  21
ATOM     21  C   UNL     1      43.296  10.738  11.015  0.00  0.00    +0.000 C 
ATOM     22  C   UNL     1      41.918  10.879  11.696  0.00  0.00    +0.000 C 
ATOM     23  N   UNL     1      41.459   9.654  11.016  0.00  0.00    +0.000 NA
ATOM     24  C   UNL     1      42.855   9.303  10.688  0.00  0.00    +0.000 C 
ATOM     30  H   UNL     1      40.883   9.842  10.196  0.00  0.00    +0.000 HD
ENDBRANCH  20  21
ENDBRANCH  19  20
ENDBRANCH   2  15
BRANCH   2   4
ATOM      4  C   UNL     1      49.002   7.659  11.967  0.00  0.00    +0.000 C 
BRANCH   4   5
ATOM      5  N   UNL     1      48.361   6.558  12.681  0.00  0.00    +0.000 N 
ATOM      6  C   UNL     1      47.044   6.225  12.420  0.00  0.00    +0.000 A 
ATOM      7  C   UNL     1      46.460   6.324  11.161  0.00  0.00    +0.000 A 
ATOM      8  C   UNL     1      45.142   5.905  10.979  0.00  0.00    +0.000 A 
ATOM      9  C   UNL     1      44.425   5.372  12.048  0.00  0.00    +0.000 A 
ATOM     13  C   UNL     1      45.085   5.304  13.265  0.00  0.00    +0.000 A 
ATOM     14  N   UNL     1      46.365   5.724  13.468  0.00  0.00    +0.000 NA
ATOM     26  H   UNL     1      48.472   6.543  13.693  0.00  0.00    +0.000 HD
BRANCH   9  10
ATOM     10  C   UNL     1      43.032   4.915  11.824  0.00  0.00    +0.000 C 
ATOM     11  N   UNL     1      42.781   3.581  11.671  0.00  0.00    +0.000 N 
ATOM     12  O   UNL     1      42.106   5.718  11.768  0.00  0.00    +0.000 OA
ATOM     27  H   UNL     1      43.465   2.841  11.672  0.00  0.00    +0.000 HD
ATOM     28  H   UNL     1      41.815   3.324  11.506  0.00  0.00    +0.000 HD
ENDBRANCH   9  10
ENDBRANCH   4   5
ENDBRANCH   2   4
TORSDOF 6
ENDMDL
