MODEL 1
REMARK VINA RESULT:    -6.189      0.000      0.000
REMARK INTER + INTRA:         -13.263
REMARK INTER:                 -10.892
REMARK INTRA:                  -2.371
REMARK UNBOUND:                -2.371
REMARK  Name = 
REMARK  15 active torsions:
REMARK  status: ('A' for Active; 'I' for Inactive)
REMARK    1  A    between atoms: C_1  and  C_2
REMARK    2  A    between atoms: C_2  and  C_3
REMARK    3  A    between atoms: C_3  and  C_4
REMARK    4  A    between atoms: C_4  and  C_5
REMARK    5  A    between atoms: C_5  and  C_6
REMARK    6  A    between atoms: C_6  and  C_7
REMARK    7  A    between atoms: C_7  and  C_8
REMARK    8  A    between atoms: C_8  and  N_9
REMARK    9  A    between atoms: N_9  and  C_10
REMARK   10  A    between atoms: C_10  and  C_11
REMARK   11  A    between atoms: C_14  and  C_15
REMARK   12  A    between atoms: C_15  and  N_16
REMARK   13  A    between atoms: C_17  and  C_19
REMARK   14  A    between atoms: C_26  and  O_27
REMARK   15  A    between atoms: O_27  and  C_28
REMARK                            x       y       z     vdW  Elec       q    Type
REMARK                         _______ _______ _______ _____ _____    ______ ____
ROOT
ATOM     11  C   UNL     1      44.764   7.292  11.385  0.00  0.00    +0.000 A 
ATOM     12  C   UNL     1      45.786   6.421  10.982  0.00  0.00    +0.000 A 
ATOM     13  C   UNL     1      47.085   6.561  11.472  0.00  0.00    +0.000 A 
ATOM     14  C   UNL     1      47.401   7.589  12.372  0.00  0.00    +0.000 A 
ATOM     30  C   UNL     1      46.379   8.470  12.756  0.00  0.00    +0.000 A 
ATOM     31  C   UNL     1      45.069   8.316  12.286  0.00  0.00    +0.000 A 
ENDROOT
BRANCH  11  10
ATOM     10  C   UNL     1      43.371   7.144  10.822  0.00  0.00    +0.000 C 
BRANCH  10   9
ATOM      9  N   UNL     1      42.464   6.572  11.812  0.00  0.00    +0.000 NA
ATOM     32  H   UNL     1      42.783   6.814  12.748  0.00  0.00    +0.000 HD
BRANCH   9   8
ATOM      8  C   UNL     1      42.407   5.123  11.686  0.00  0.00    +0.000 C 
BRANCH   8   7
ATOM      7  C   UNL     1      43.139   4.500  12.868  0.00  0.00    +0.000 C 
BRANCH   7   6
ATOM      6  C   UNL     1      43.700   3.144  12.462  0.00  0.00    +0.000 C 
BRANCH   6   5
ATOM      5  C   UNL     1      43.671   2.975  10.950  0.00  0.00    +0.000 C 
BRANCH   5   4
ATOM      4  C   UNL     1      45.090   2.914  10.399  0.00  0.00    +0.000 C 
BRANCH   4   3
ATOM      3  C   UNL     1      45.069   2.614   8.906  0.00  0.00    +0.000 C 
BRANCH   3   2
ATOM      1  C   UNL     1      46.336   3.438   6.910  0.00  0.00    +0.000 C 
ATOM      2  C   UNL     1      45.480   3.840   8.098  0.00  0.00    +0.000 C 
ENDBRANCH   3   2
ENDBRANCH   4   3
ENDBRANCH   5   4
ENDBRANCH   6   5
ENDBRANCH   7   6
ENDBRANCH   8   7
ENDBRANCH   9   8
ENDBRANCH  10   9
ENDBRANCH  11  10
BRANCH  14  15
ATOM     15  C   UNL     1      48.796   7.745  12.924  0.00  0.00    +0.000 C 
BRANCH  15  16
ATOM     16  N   UNL     1      49.022   6.932  14.093  0.00  0.00    +0.000 N 
ATOM     17  C   UNL     1      48.809   7.407  15.369  0.00  0.00    +0.000 C 
ATOM     18  O   UNL     1      48.362   8.520  15.588  0.00  0.00    +0.000 OA
ATOM     33  H   UNL     1      49.640   6.142  13.978  0.00  0.00    +0.000 HD
BRANCH  17  19
ATOM     19  C   UNL     1      49.105   6.461  16.461  0.00  0.00    +0.000 A 
ATOM     20  C   UNL     1      50.098   6.754  17.387  0.00  0.00    +0.000 A 
ATOM     21  S   UNL     1      50.293   5.544  18.574  0.00  0.00    +0.000 S 
ATOM     22  C   UNL     1      49.080   4.582  17.870  0.00  0.00    +0.000 A 
ATOM     23  N   UNL     1      48.772   3.383  18.395  0.00  0.00    +0.000 NA
ATOM     24  C   UNL     1      47.802   2.761  17.720  0.00  0.00    +0.000 A 
ATOM     25  N   UNL     1      47.147   3.202  16.637  0.00  0.00    +0.000 NA
ATOM     26  C   UNL     1      47.499   4.403  16.148  0.00  0.00    +0.000 A 
ATOM     29  C   UNL     1      48.503   5.172  16.755  0.00  0.00    +0.000 A 
BRANCH  26  27
ATOM     27  O   UNL     1      46.868   4.900  15.032  0.00  0.00    +0.000 OA
ATOM     28  C   UNL     1      46.905   4.069  13.885  0.00  0.00    +0.000 C 
ENDBRANCH  26  27
ENDBRANCH  17  19
ENDBRANCH  15  16
ENDBRANCH  14  15
TORSDOF 13
ENDMDL
MODEL 2
REMARK VINA RESULT:    -6.178      2.176      3.360
REMARK INTER + INTRA:         -13.244
REMARK INTER:                 -11.742
REMARK INTRA:                  -1.503
REMARK UNBOUND:                -2.371
REMARK  Name = 
REMARK  15 active torsions:
REMARK  status: ('A' for Active; 'I' for Inactive)
REMARK    1  A    between atoms: C_1  and  C_2
REMARK    2  A    between atoms: C_2  and  C_3
REMARK    3  A    between atoms: C_3  and  C_4
REMARK    4  A    between atoms: C_4  and  C_5
REMARK    5  A    between atoms: C_5  and  C_6
REMARK    6  A    between atoms: C_6  and  C_7
REMARK    7  A    between atoms: C_7  and  C_8
REMARK    8  A    between atoms: C_8  and  N_9
REMARK    9  A    between atoms: N_9  and  C_10
REMARK   10  A    between atoms: C_10  and  C_11
REMARK   11  A    between atoms: C_14  and  C_15
REMARK   12  A    between atoms: C_15  and  N_16
REMARK   13  A    between atoms: C_17  and  C_19
REMARK   14  A    between atoms: C_26  and  O_27
REMARK   15  A    between atoms: O_27  and  C_28
REMARK                            x       y       z     vdW  Elec       q    Type
REMARK                         _______ _______ _______ _____ _____    ______ ____
ROOT
ATOM     11  C   UNL     1      44.797   4.549  11.648  0.00  0.00    +0.000 A 
ATOM     12  C   UNL     1      45.524   4.197  12.795  0.00  0.00    +0.000 A 
ATOM     13  C   UNL     1      46.537   5.020  13.285  0.00  0.00    +0.000 A 
ATOM     14  C   UNL     1      46.862   6.218  12.632  0.00  0.00    +0.000 A 
ATOM     30  C   UNL     1      46.146   6.555  11.473  0.00  0.00    +0.000 A 
ATOM     31  C   UNL     1      45.112   5.743  10.993  0.00  0.00    +0.000 A 
ENDROOT
BRANCH  11  10
ATOM     10  C   UNL     1      43.725   3.631  11.114  0.00  0.00    +0.000 C 
BRANCH  10   9
ATOM      9  N   UNL     1      44.297   2.369  10.655  0.00  0.00    +0.000 NA
ATOM     32  H   UNL     1      45.245   2.274  11.010  0.00  0.00    +0.000 HD
BRANCH   9   8
ATOM      8  C   UNL     1      44.322   2.310   9.201  0.00  0.00    +0.000 C 
BRANCH   8   7
ATOM      7  C   UNL     1      45.760   2.482   8.729  0.00  0.00    +0.000 C 
BRANCH   7   6
ATOM      6  C   UNL     1      45.900   3.809   7.995  0.00  0.00    +0.000 C 
BRANCH   6   5
ATOM      5  C   UNL     1      46.845   3.676   6.810  0.00  0.00    +0.000 C 
BRANCH   5   4
ATOM      4  C   UNL     1      47.015   2.210   6.433  0.00  0.00    +0.000 C 
BRANCH   4   3
ATOM      3  C   UNL     1      46.901   2.031   4.925  0.00  0.00    +0.000 C 
BRANCH   3   2
ATOM      1  C   UNL     1      46.711   0.347   3.083  0.00  0.00    +0.000 C 
ATOM      2  C   UNL     1      47.101   0.572   4.533  0.00  0.00    +0.000 C 
ENDBRANCH   3   2
ENDBRANCH   4   3
ENDBRANCH   5   4
ENDBRANCH   6   5
ENDBRANCH   7   6
ENDBRANCH   8   7
ENDBRANCH   9   8
ENDBRANCH  10   9
ENDBRANCH  11  10
BRANCH  14  15
ATOM     15  C   UNL     1      47.943   7.129  13.157  0.00  0.00    +0.000 C 
BRANCH  15  16
ATOM     16  N   UNL     1      47.890   7.280  14.590  0.00  0.00    +0.000 N 
ATOM     17  C   UNL     1      48.958   6.960  15.401  0.00  0.00    +0.000 C 
ATOM     18  O   UNL     1      50.030   6.587  14.956  0.00  0.00    +0.000 OA
ATOM     33  H   UNL     1      46.970   7.306  15.005  0.00  0.00    +0.000 HD
BRANCH  17  19
ATOM     19  C   UNL     1      48.741   7.149  16.847  0.00  0.00    +0.000 A 
ATOM     20  C   UNL     1      48.589   8.428  17.369  0.00  0.00    +0.000 A 
ATOM     21  S   UNL     1      48.345   8.445  19.057  0.00  0.00    +0.000 S 
ATOM     22  C   UNL     1      48.464   6.750  19.145  0.00  0.00    +0.000 A 
ATOM     23  N   UNL     1      48.369   6.122  20.331  0.00  0.00    +0.000 NA
ATOM     24  C   UNL     1      48.487   4.797  20.220  0.00  0.00    +0.000 A 
ATOM     25  N   UNL     1      48.673   4.083  19.101  0.00  0.00    +0.000 NA
ATOM     26  C   UNL     1      48.767   4.760  17.944  0.00  0.00    +0.000 A 
ATOM     29  C   UNL     1      48.663   6.158  17.907  0.00  0.00    +0.000 A 
BRANCH  26  27
ATOM     27  O   UNL     1      48.970   4.079  16.767  0.00  0.00    +0.000 OA
ATOM     28  C   UNL     1      47.839   3.405  16.244  0.00  0.00    +0.000 C 
ENDBRANCH  26  27
ENDBRANCH  17  19
ENDBRANCH  15  16
ENDBRANCH  14  15
TORSDOF 13
ENDMDL
MODEL 3
REMARK VINA RESULT:    -5.991      2.669      4.000
REMARK INTER + INTRA:         -12.915
REMARK INTER:                 -11.481
REMARK INTRA:                  -1.435
REMARK UNBOUND:                -2.371
REMARK  Name = 
REMARK  15 active torsions:
REMARK  status: ('A' for Active; 'I' for Inactive)
REMARK    1  A    between atoms: C_1  and  C_2
REMARK    2  A    between atoms: C_2  and  C_3
REMARK    3  A    between atoms: C_3  and  C_4
REMARK    4  A    between atoms: C_4  and  C_5
REMARK    5  A    between atoms: C_5  and  C_6
REMARK    6  A    between atoms: C_6  and  C_7
REMARK    7  A    between atoms: C_7  and  C_8
REMARK    8  A    between atoms: C_8  and  N_9
REMARK    9  A    between atoms: N_9  and  C_10
REMARK   10  A    between atoms: C_10  and  C_11
REMARK   11  A    between atoms: C_14  and  C_15
REMARK   12  A    between atoms: C_15  and  N_16
REMARK   13  A    between atoms: C_17  and  C_19
REMARK   14  A    between atoms: C_26  and  O_27
REMARK   15  A    between atoms: O_27  and  C_28
REMARK                            x       y       z     vdW  Elec       q    Type
REMARK                         _______ _______ _______ _____ _____    ______ ____
ROOT
ATOM     11  C   UNL     1      44.782   5.181  11.787  0.00  0.00    +0.000 A 
ATOM     12  C   UNL     1      45.168   4.549  12.978  0.00  0.00    +0.000 A 
ATOM     13  C   UNL     1      46.293   4.973  13.686  0.00  0.00    +0.000 A 
ATOM     14  C   UNL     1      47.074   6.038  13.212  0.00  0.00    +0.000 A 
ATOM     30  C   UNL     1      46.695   6.653  12.010  0.00  0.00    +0.000 A 
ATOM     31  C   UNL     1      45.553   6.246  11.311  0.00  0.00    +0.000 A 
ENDROOT
BRANCH  11  10
ATOM     10  C   UNL     1      43.580   4.690  11.019  0.00  0.00    +0.000 C 
BRANCH  10   9
ATOM      9  N   UNL     1      43.613   3.239  10.866  0.00  0.00    +0.000 NA
ATOM     32  H   UNL     1      43.945   2.812  11.728  0.00  0.00    +0.000 HD
BRANCH   9   8
ATOM      8  C   UNL     1      44.492   2.853   9.772  0.00  0.00    +0.000 C 
BRANCH   8   7
ATOM      7  C   UNL     1      44.422   3.920   8.688  0.00  0.00    +0.000 C 
BRANCH   7   6
ATOM      6  C   UNL     1      45.797   4.099   8.059  0.00  0.00    +0.000 C 
BRANCH   6   5
ATOM      5  C   UNL     1      45.985   3.151   6.885  0.00  0.00    +0.000 C 
BRANCH   5   4
ATOM      4  C   UNL     1      47.438   2.702   6.797  0.00  0.00    +0.000 C 
BRANCH   4   3
ATOM      3  C   UNL     1      47.781   2.281   5.374  0.00  0.00    +0.000 C 
BRANCH   3   2
ATOM      1  C   UNL     1      46.650   0.830   3.677  0.00  0.00    +0.000 C 
ATOM      2  C   UNL     1      47.243   0.887   5.074  0.00  0.00    +0.000 C 
ENDBRANCH   3   2
ENDBRANCH   4   3
ENDBRANCH   5   4
ENDBRANCH   6   5
ENDBRANCH   7   6
ENDBRANCH   8   7
ENDBRANCH   9   8
ENDBRANCH  10   9
ENDBRANCH  11  10
BRANCH  14  15
ATOM     15  C   UNL     1      48.284   6.520  13.973  0.00  0.00    +0.000 C 
BRANCH  15  16
ATOM     16  N   UNL     1      48.035   6.641  15.388  0.00  0.00    +0.000 N 
ATOM     17  C   UNL     1      49.001   6.356  16.329  0.00  0.00    +0.000 C 
ATOM     18  O   UNL     1      50.139   6.042  16.026  0.00  0.00    +0.000 OA
ATOM     33  H   UNL     1      47.068   6.616  15.677  0.00  0.00    +0.000 HD
BRANCH  17  19
ATOM     19  C   UNL     1      48.586   6.507  17.736  0.00  0.00    +0.000 A 
ATOM     20  C   UNL     1      48.609   5.413  18.592  0.00  0.00    +0.000 A 
ATOM     21  S   UNL     1      48.098   5.784  20.177  0.00  0.00    +0.000 S 
ATOM     22  C   UNL     1      47.805   7.407  19.760  0.00  0.00    +0.000 A 
ATOM     23  N   UNL     1      47.321   8.268  20.674  0.00  0.00    +0.000 NA
ATOM     24  C   UNL     1      47.147   9.496  20.180  0.00  0.00    +0.000 A 
ATOM     25  N   UNL     1      47.402   9.921  18.935  0.00  0.00    +0.000 NA
ATOM     26  C   UNL     1      47.878   9.019  18.059  0.00  0.00    +0.000 A 
ATOM     29  C   UNL     1      48.110   7.688  18.437  0.00  0.00    +0.000 A 
BRANCH  26  27
ATOM     27  O   UNL     1      48.146   9.397  16.764  0.00  0.00    +0.000 OA
ATOM     28  C   UNL     1      49.370  10.080  16.565  0.00  0.00    +0.000 C 
ENDBRANCH  26  27
ENDBRANCH  17  19
ENDBRANCH  15  16
ENDBRANCH  14  15
TORSDOF 13
ENDMDL
MODEL 4
REMARK VINA RESULT:    -5.977      3.085      9.283
REMARK INTER + INTRA:         -12.891
REMARK INTER:                 -10.454
REMARK INTRA:                  -2.437
REMARK UNBOUND:                -2.371
REMARK  Name = 
REMARK  15 active torsions:
REMARK  status: ('A' for Active; 'I' for Inactive)
REMARK    1  A    between atoms: C_1  and  C_2
REMARK    2  A    between atoms: C_2  and  C_3
REMARK    3  A    between atoms: C_3  and  C_4
REMARK    4  A    between atoms: C_4  and  C_5
REMARK    5  A    between atoms: C_5  and  C_6
REMARK    6  A    between atoms: C_6  and  C_7
REMARK    7  A    between atoms: C_7  and  C_8
REMARK    8  A    between atoms: C_8  and  N_9
REMARK    9  A    between atoms: N_9  and  C_10
REMARK   10  A    between atoms: C_10  and  C_11
REMARK   11  A    between atoms: C_14  and  C_15
REMARK   12  A    between atoms: C_15  and  N_16
REMARK   13  A    between atoms: C_17  and  C_19
REMARK   14  A    between atoms: C_26  and  O_27
REMARK   15  A    between atoms: O_27  and  C_28
REMARK                            x       y       z     vdW  Elec       q    Type
REMARK                         _______ _______ _______ _____ _____    ______ ____
ROOT
ATOM     11  C   UNL     1      51.483   3.161  17.759  0.00  0.00    +0.000 A 
ATOM     12  C   UNL     1      50.846   4.409  17.805  0.00  0.00    +0.000 A 
ATOM     13  C   UNL     1      49.493   4.538  17.495  0.00  0.00    +0.000 A 
ATOM     14  C   UNL     1      48.738   3.418  17.114  0.00  0.00    +0.000 A 
ATOM     30  C   UNL     1      49.386   2.175  17.049  0.00  0.00    +0.000 A 
ATOM     31  C   UNL     1      50.738   2.039  17.385  0.00  0.00    +0.000 A 
ENDROOT
BRANCH  11  10
ATOM     10  C   UNL     1      52.956   3.045  18.069  0.00  0.00    +0.000 C 
BRANCH  10   9
ATOM      9  N   UNL     1      53.170   2.699  19.472  0.00  0.00    +0.000 NA
ATOM     32  H   UNL     1      52.273   2.630  19.947  0.00  0.00    +0.000 HD
BRANCH   9   8
ATOM      8  C   UNL     1      53.986   3.706  20.134  0.00  0.00    +0.000 C 
BRANCH   8   7
ATOM      7  C   UNL     1      53.139   4.406  21.190  0.00  0.00    +0.000 C 
BRANCH   7   6
ATOM      6  C   UNL     1      52.722   5.778  20.680  0.00  0.00    +0.000 C 
BRANCH   6   5
ATOM      5  C   UNL     1      51.289   6.094  21.082  0.00  0.00    +0.000 C 
BRANCH   5   4
ATOM      4  C   UNL     1      50.584   4.830  21.557  0.00  0.00    +0.000 C 
BRANCH   4   3
ATOM      3  C   UNL     1      49.110   4.868  21.178  0.00  0.00    +0.000 C 
BRANCH   3   2
ATOM      1  C   UNL     1      47.323   6.165  19.997  0.00  0.00    +0.000 C 
ATOM      2  C   UNL     1      48.753   6.190  20.508  0.00  0.00    +0.000 C 
ENDBRANCH   3   2
ENDBRANCH   4   3
ENDBRANCH   5   4
ENDBRANCH   6   5
ENDBRANCH   7   6
ENDBRANCH   8   7
ENDBRANCH   9   8
ENDBRANCH  10   9
ENDBRANCH  11  10
BRANCH  14  15
ATOM     15  C   UNL     1      47.270   3.537  16.790  0.00  0.00    +0.000 C 
BRANCH  15  16
ATOM     16  N   UNL     1      47.001   4.564  15.815  0.00  0.00    +0.000 N 
ATOM     17  C   UNL     1      47.029   4.314  14.460  0.00  0.00    +0.000 C 
ATOM     18  O   UNL     1      47.225   3.201  14.002  0.00  0.00    +0.000 OA
ATOM     33  H   UNL     1      47.117   5.518  16.124  0.00  0.00    +0.000 HD
BRANCH  17  19
ATOM     19  C   UNL     1      46.753   5.473  13.591  0.00  0.00    +0.000 A 
ATOM     20  C   UNL     1      47.712   6.465  13.424  0.00  0.00    +0.000 A 
ATOM     21  S   UNL     1      47.213   7.720  12.382  0.00  0.00    +0.000 S 
ATOM     22  C   UNL     1      45.694   6.992  12.147  0.00  0.00    +0.000 A 
ATOM     23  N   UNL     1      44.769   7.584  11.369  0.00  0.00    +0.000 NA
ATOM     24  C   UNL     1      43.636   6.882  11.295  0.00  0.00    +0.000 A 
ATOM     25  N   UNL     1      43.359   5.710  11.884  0.00  0.00    +0.000 NA
ATOM     26  C   UNL     1      44.315   5.165  12.655  0.00  0.00    +0.000 A 
ATOM     29  C   UNL     1      45.559   5.792  12.827  0.00  0.00    +0.000 A 
BRANCH  26  27
ATOM     27  O   UNL     1      44.082   3.970  13.294  0.00  0.00    +0.000 OA
ATOM     28  C   UNL     1      43.622   2.913  12.471  0.00  0.00    +0.000 C 
ENDBRANCH  26  27
ENDBRANCH  17  19
ENDBRANCH  15  16
ENDBRANCH  14  15
TORSDOF 13
ENDMDL
MODEL 5
REMARK VINA RESULT:    -5.607      2.113      3.044
REMARK INTER + INTRA:         -12.241
REMARK INTER:                 -11.027
REMARK INTRA:                  -1.214
REMARK UNBOUND:                -2.371
REMARK  Name = 
REMARK  15 active torsions:
REMARK  status: ('A' for Active; 'I' for Inactive)
REMARK    1  A    between atoms: C_1  and  C_2
REMARK    2  A    between atoms: C_2  and  C_3
REMARK    3  A    between atoms: C_3  and  C_4
REMARK    4  A    between atoms: C_4  and  C_5
REMARK    5  A    between atoms: C_5  and  C_6
REMARK    6  A    between atoms: C_6  and  C_7
REMARK    7  A    between atoms: C_7  and  C_8
REMARK    8  A    between atoms: C_8  and  N_9
REMARK    9  A    between atoms: N_9  and  C_10
REMARK   10  A    between atoms: C_10  and  C_11
REMARK   11  A    between atoms: C_14  and  C_15
REMARK   12  A    between atoms: C_15  and  N_16
REMARK   13  A    between atoms: C_17  and  C_19
REMARK   14  A    between atoms: C_26  and  O_27
REMARK   15  A    between atoms: O_27  and  C_28
REMARK                            x       y       z     vdW  Elec       q    Type
REMARK                         _______ _______ _______ _____ _____    ______ ____
ROOT
ATOM     11  C   UNL     1      45.430   5.638  12.240  0.00  0.00    +0.000 A 
ATOM     12  C   UNL     1      46.249   4.940  13.139  0.00  0.00    +0.000 A 
ATOM     13  C   UNL     1      47.211   5.605  13.900  0.00  0.00    +0.000 A 
ATOM     14  C   UNL     1      47.390   6.990  13.772  0.00  0.00    +0.000 A 
ATOM     30  C   UNL     1      46.581   7.680  12.856  0.00  0.00    +0.000 A 
ATOM     31  C   UNL     1      45.599   7.019  12.110  0.00  0.00    +0.000 A 
ENDROOT
BRANCH  11  10
ATOM     10  C   UNL     1      44.415   4.898  11.403  0.00  0.00    +0.000 C 
BRANCH  10   9
ATOM      9  N   UNL     1      45.020   3.743  10.747  0.00  0.00    +0.000 NA
ATOM     32  H   UNL     1      46.033   3.837  10.753  0.00  0.00    +0.000 HD
BRANCH   9   8
ATOM      8  C   UNL     1      44.558   3.627   9.372  0.00  0.00    +0.000 C 
BRANCH   8   7
ATOM      7  C   UNL     1      44.594   2.160   8.964  0.00  0.00    +0.000 C 
BRANCH   7   6
ATOM      6  C   UNL     1      45.953   1.831   8.362  0.00  0.00    +0.000 C 
BRANCH   6   5
ATOM      5  C   UNL     1      46.490   3.007   7.560  0.00  0.00    +0.000 C 
BRANCH   5   4
ATOM      4  C   UNL     1      47.678   2.569   6.713  0.00  0.00    +0.000 C 
BRANCH   4   3
ATOM      3  C   UNL     1      47.331   1.321   5.912  0.00  0.00    +0.000 C 
BRANCH   3   2
ATOM      1  C   UNL     1      46.821   0.465   3.616  0.00  0.00    +0.000 C 
ATOM      2  C   UNL     1      46.844   1.689   4.515  0.00  0.00    +0.000 C 
ENDBRANCH   3   2
ENDBRANCH   4   3
ENDBRANCH   5   4
ENDBRANCH   6   5
ENDBRANCH   7   6
ENDBRANCH   8   7
ENDBRANCH   9   8
ENDBRANCH  10   9
ENDBRANCH  11  10
BRANCH  14  15
ATOM     15  C   UNL     1      48.414   7.727  14.599  0.00  0.00    +0.000 C 
BRANCH  15  16
ATOM     16  N   UNL     1      49.366   6.839  15.218  0.00  0.00    +0.000 N 
ATOM     17  C   UNL     1      49.429   6.669  16.585  0.00  0.00    +0.000 C 
ATOM     18  O   UNL     1      48.648   7.211  17.349  0.00  0.00    +0.000 OA
ATOM     33  H   UNL     1      50.184   6.607  14.673  0.00  0.00    +0.000 HD
BRANCH  17  19
ATOM     19  C   UNL     1      50.471   5.744  17.066  0.00  0.00    +0.000 A 
ATOM     20  C   UNL     1      51.673   6.240  17.553  0.00  0.00    +0.000 A 
ATOM     21  S   UNL     1      52.750   5.019  18.066  0.00  0.00    +0.000 S 
ATOM     22  C   UNL     1      51.655   3.795  17.625  0.00  0.00    +0.000 A 
ATOM     23  N   UNL     1      51.984   2.500  17.783  0.00  0.00    +0.000 NA
ATOM     24  C   UNL     1      51.014   1.673  17.386  0.00  0.00    +0.000 A 
ATOM     25  N   UNL     1      49.816   1.999  16.882  0.00  0.00    +0.000 NA
ATOM     26  C   UNL     1      49.540   3.306  16.739  0.00  0.00    +0.000 A 
ATOM     29  C   UNL     1      50.466   4.291  17.115  0.00  0.00    +0.000 A 
BRANCH  26  27
ATOM     27  O   UNL     1      48.331   3.699  16.217  0.00  0.00    +0.000 OA
ATOM     28  C   UNL     1      47.220   3.592  17.090  0.00  0.00    +0.000 C 
ENDBRANCH  26  27
ENDBRANCH  17  19
ENDBRANCH  15  16
ENDBRANCH  14  15
TORSDOF 13
ENDMDL
MODEL 6
REMARK VINA RESULT:    -5.575      1.831      2.298
REMARK INTER + INTRA:         -12.184
REMARK INTER:                 -10.615
REMARK INTRA:                  -1.568
REMARK UNBOUND:                -2.371
REMARK  Name = 
REMARK  15 active torsions:
REMARK  status: ('A' for Active; 'I' for Inactive)
REMARK    1  A    between atoms: C_1  and  C_2
REMARK    2  A    between atoms: C_2  and  C_3
REMARK    3  A    between atoms: C_3  and  C_4
REMARK    4  A    between atoms: C_4  and  C_5
REMARK    5  A    between atoms: C_5  and  C_6
REMARK    6  A    between atoms: C_6  and  C_7
REMARK    7  A    between atoms: C_7  and  C_8
REMARK    8  A    between atoms: C_8  and  N_9
REMARK    9  A    between atoms: N_9  and  C_10
REMARK   10  A    between atoms: C_10  and  C_11
REMARK   11  A    between atoms: C_14  and  C_15
REMARK   12  A    between atoms: C_15  and  N_16
REMARK   13  A    between atoms: C_17  and  C_19
REMARK   14  A    between atoms: C_26  and  O_27
REMARK   15  A    between atoms: O_27  and  C_28
REMARK                            x       y       z     vdW  Elec       q    Type
REMARK                         _______ _______ _______ _____ _____    ______ ____
ROOT
ATOM     11  C   UNL     1      46.243   7.120  12.520  0.00  0.00    +0.000 A 
ATOM     12  C   UNL     1      47.027   6.132  13.133  0.00  0.00    +0.000 A 
ATOM     13  C   UNL     1      47.944   6.458  14.131  0.00  0.00    +0.000 A 
ATOM     14  C   UNL     1      48.113   7.791  14.538  0.00  0.00    +0.000 A 
ATOM     30  C   UNL     1      47.341   8.778  13.906  0.00  0.00    +0.000 A 
ATOM     31  C   UNL     1      46.402   8.449  12.922  0.00  0.00    +0.000 A 
ENDROOT
BRANCH  11  10
ATOM     10  C   UNL     1      45.277   6.753  11.420  0.00  0.00    +0.000 C 
BRANCH  10   9
ATOM      9  N   UNL     1      44.002   6.304  11.971  0.00  0.00    +0.000 NA
ATOM     32  H   UNL     1      44.161   5.826  12.855  0.00  0.00    +0.000 HD
BRANCH   9   8
ATOM      8  C   UNL     1      43.331   5.398  11.051  0.00  0.00    +0.000 C 
BRANCH   8   7
ATOM      7  C   UNL     1      43.145   4.051  11.738  0.00  0.00    +0.000 C 
BRANCH   7   6
ATOM      6  C   UNL     1      44.306   3.133  11.382  0.00  0.00    +0.000 C 
BRANCH   6   5
ATOM      5  C   UNL     1      44.748   3.351   9.943  0.00  0.00    +0.000 C 
BRANCH   5   4
ATOM      4  C   UNL     1      44.790   2.023   9.197  0.00  0.00    +0.000 C 
BRANCH   4   3
ATOM      3  C   UNL     1      45.987   1.977   8.257  0.00  0.00    +0.000 C 
BRANCH   3   2
ATOM      1  C   UNL     1      46.791   3.149   6.196  0.00  0.00    +0.000 C 
ATOM      2  C   UNL     1      46.204   3.328   7.585  0.00  0.00    +0.000 C 
ENDBRANCH   3   2
ENDBRANCH   4   3
ENDBRANCH   5   4
ENDBRANCH   6   5
ENDBRANCH   7   6
ENDBRANCH   8   7
ENDBRANCH   9   8
ENDBRANCH  10   9
ENDBRANCH  11  10
BRANCH  14  15
ATOM     15  C   UNL     1      49.088   8.160  15.627  0.00  0.00    +0.000 C 
BRANCH  15  16
ATOM     16  N   UNL     1      49.898   7.042  16.045  0.00  0.00    +0.000 N 
ATOM     17  C   UNL     1      49.988   6.656  17.366  0.00  0.00    +0.000 C 
ATOM     18  O   UNL     1      49.347   7.195  18.252  0.00  0.00    +0.000 OA
ATOM     33  H   UNL     1      50.638   6.764  15.418  0.00  0.00    +0.000 HD
BRANCH  17  19
ATOM     19  C   UNL     1      50.873   5.509  17.636  0.00  0.00    +0.000 A 
ATOM     20  C   UNL     1      52.130   5.712  18.193  0.00  0.00    +0.000 A 
ATOM     21  S   UNL     1      53.005   4.267  18.434  0.00  0.00    +0.000 S 
ATOM     22  C   UNL     1      51.745   3.332  17.777  0.00  0.00    +0.000 A 
ATOM     23  N   UNL     1      51.874   1.997  17.669  0.00  0.00    +0.000 NA
ATOM     24  C   UNL     1      50.796   1.420  17.131  0.00  0.00    +0.000 A 
ATOM     25  N   UNL     1      49.668   2.015  16.722  0.00  0.00    +0.000 NA
ATOM     26  C   UNL     1      49.593   3.351  16.847  0.00  0.00    +0.000 A 
ATOM     29  C   UNL     1      50.651   4.092  17.395  0.00  0.00    +0.000 A 
BRANCH  26  27
ATOM     27  O   UNL     1      48.463   4.016  16.432  0.00  0.00    +0.000 OA
ATOM     28  C   UNL     1      47.354   3.950  17.311  0.00  0.00    +0.000 C 
ENDBRANCH  26  27
ENDBRANCH  17  19
ENDBRANCH  15  16
ENDBRANCH  14  15
TORSDOF 13
ENDMDL
MODEL 7
REMARK VINA RESULT:    -5.483      2.564      3.275
REMARK INTER + INTRA:         -12.022
REMARK INTER:                 -10.859
REMARK INTRA:                  -1.163
REMARK UNBOUND:                -2.371
REMARK  Name = 
REMARK  15 active torsions:
REMARK  status: ('A' for Active; 'I' for Inactive)
REMARK    1  A    between atoms: C_1  and  C_2
REMARK    2  A    between atoms: C_2  and  C_3
REMARK    3  A    between atoms: C_3  and  C_4
REMARK    4  A    between atoms: C_4  and  C_5
REMARK    5  A    between atoms: C_5  and  C_6
REMARK    6  A    between atoms: C_6  and  C_7
REMARK    7  A    between atoms: C_7  and  C_8
REMARK    8  A    between atoms: C_8  and  N_9
REMARK    9  A    between atoms: N_9  and  C_10
REMARK   10  A    between atoms: C_10  and  C_11
REMARK   11  A    between atoms: C_14  and  C_15
REMARK   12  A    between atoms: C_15  and  N_16
REMARK   13  A    between atoms: C_17  and  C_19
REMARK   14  A    between atoms: C_26  and  O_27
REMARK   15  A    between atoms: O_27  and  C_28
REMARK                            x       y       z     vdW  Elec       q    Type
REMARK                         _______ _______ _______ _____ _____    ______ ____
ROOT
ATOM     11  C   UNL     1      45.239   6.291  12.012  0.00  0.00    +0.000 A 
ATOM     12  C   UNL     1      44.900   7.650  12.093  0.00  0.00    +0.000 A 
ATOM     13  C   UNL     1      45.742   8.564  12.726  0.00  0.00    +0.000 A 
ATOM     14  C   UNL     1      46.946   8.141  13.309  0.00  0.00    +0.000 A 
ATOM     30  C   UNL     1      47.270   6.778  13.242  0.00  0.00    +0.000 A 
ATOM     31  C   UNL     1      46.439   5.863  12.586  0.00  0.00    +0.000 A 
ENDROOT
BRANCH  11  10
ATOM     10  C   UNL     1      44.301   5.311  11.350  0.00  0.00    +0.000 C 
BRANCH  10   9
ATOM      9  N   UNL     1      44.216   4.070  12.116  0.00  0.00    +0.000 NA
ATOM     32  H   UNL     1      45.122   3.860  12.527  0.00  0.00    +0.000 HD
BRANCH   9   8
ATOM      8  C   UNL     1      43.809   2.963  11.264  0.00  0.00    +0.000 C 
BRANCH   8   7
ATOM      7  C   UNL     1      44.089   3.332   9.813  0.00  0.00    +0.000 C 
BRANCH   7   6
ATOM      6  C   UNL     1      44.928   2.241   9.162  0.00  0.00    +0.000 C 
BRANCH   6   5
ATOM      5  C   UNL     1      45.838   2.823   8.090  0.00  0.00    +0.000 C 
BRANCH   5   4
ATOM      4  C   UNL     1      46.760   1.742   7.539  0.00  0.00    +0.000 C 
BRANCH   4   3
ATOM      3  C   UNL     1      47.833   2.359   6.653  0.00  0.00    +0.000 C 
BRANCH   3   2
ATOM      1  C   UNL     1      47.116   1.156   4.578  0.00  0.00    +0.000 C 
ATOM      2  C   UNL     1      47.334   2.514   5.221  0.00  0.00    +0.000 C 
ENDBRANCH   3   2
ENDBRANCH   4   3
ENDBRANCH   5   4
ENDBRANCH   6   5
ENDBRANCH   7   6
ENDBRANCH   8   7
ENDBRANCH   9   8
ENDBRANCH  10   9
ENDBRANCH  11  10
BRANCH  14  15
ATOM     15  C   UNL     1      47.876   9.119  13.982  0.00  0.00    +0.000 C 
BRANCH  15  16
ATOM     16  N   UNL     1      47.663   9.192  15.407  0.00  0.00    +0.000 N 
ATOM     17  C   UNL     1      48.555   8.656  16.310  0.00  0.00    +0.000 C 
ATOM     18  O   UNL     1      49.605   8.140  15.966  0.00  0.00    +0.000 OA
ATOM     33  H   UNL     1      46.712   9.343  15.711  0.00  0.00    +0.000 HD
BRANCH  17  19
ATOM     19  C   UNL     1      48.186   8.793  17.730  0.00  0.00    +0.000 A 
ATOM     20  C   UNL     1      48.080  10.053  18.306  0.00  0.00    +0.000 A 
ATOM     21  S   UNL     1      47.641  10.009  19.954  0.00  0.00    +0.000 S 
ATOM     22  C   UNL     1      47.609   8.309  19.955  0.00  0.00    +0.000 A 
ATOM     23  N   UNL     1      47.323   7.634  21.083  0.00  0.00    +0.000 NA
ATOM     24  C   UNL     1      47.344   6.310  20.909  0.00  0.00    +0.000 A 
ATOM     25  N   UNL     1      47.601   5.638  19.778  0.00  0.00    +0.000 NA
ATOM     26  C   UNL     1      47.886   6.360  18.681  0.00  0.00    +0.000 A 
ATOM     29  C   UNL     1      47.902   7.762  18.715  0.00  0.00    +0.000 A 
BRANCH  26  27
ATOM     27  O   UNL     1      48.169   5.722  17.496  0.00  0.00    +0.000 OA
ATOM     28  C   UNL     1      47.549   4.462  17.313  0.00  0.00    +0.000 C 
ENDBRANCH  26  27
ENDBRANCH  17  19
ENDBRANCH  15  16
ENDBRANCH  14  15
TORSDOF 13
ENDMDL
MODEL 8
REMARK VINA RESULT:    -5.460      3.133      8.975
REMARK INTER + INTRA:         -11.981
REMARK INTER:                  -9.406
REMARK INTRA:                  -2.575
REMARK UNBOUND:                -2.371
REMARK  Name = 
REMARK  15 active torsions:
REMARK  status: ('A' for Active; 'I' for Inactive)
REMARK    1  A    between atoms: C_1  and  C_2
REMARK    2  A    between atoms: C_2  and  C_3
REMARK    3  A    between atoms: C_3  and  C_4
REMARK    4  A    between atoms: C_4  and  C_5
REMARK    5  A    between atoms: C_5  and  C_6
REMARK    6  A    between atoms: C_6  and  C_7
REMARK    7  A    between atoms: C_7  and  C_8
REMARK    8  A    between atoms: C_8  and  N_9
REMARK    9  A    between atoms: N_9  and  C_10
REMARK   10  A    between atoms: C_10  and  C_11
REMARK   11  A    between atoms: C_14  and  C_15
REMARK   12  A    between atoms: C_15  and  N_16
REMARK   13  A    between atoms: C_17  and  C_19
REMARK   14  A    between atoms: C_26  and  O_27
REMARK   15  A    between atoms: O_27  and  C_28
REMARK                            x       y       z     vdW  Elec       q    Type
REMARK                         _______ _______ _______ _____ _____    ______ ____
ROOT
ATOM     11  C   UNL     1      51.585   4.430  17.724  0.00  0.00    +0.000 A 
ATOM     12  C   UNL     1      51.201   3.084  17.637  0.00  0.00    +0.000 A 
ATOM     13  C   UNL     1      49.878   2.729  17.376  0.00  0.00    +0.000 A 
ATOM     14  C   UNL     1      48.895   3.715  17.206  0.00  0.00    +0.000 A 
ATOM     30  C   UNL     1      49.281   5.060  17.314  0.00  0.00    +0.000 A 
ATOM     31  C   UNL     1      50.613   5.419  17.551  0.00  0.00    +0.000 A 
ENDROOT
BRANCH  11  10
ATOM     10  C   UNL     1      53.016   4.795  18.037  0.00  0.00    +0.000 C 
BRANCH  10   9
ATOM      9  N   UNL     1      53.094   5.624  19.236  0.00  0.00    +0.000 NA
ATOM     32  H   UNL     1      54.023   6.032  19.309  0.00  0.00    +0.000 HD
BRANCH   9   8
ATOM      8  C   UNL     1      52.821   4.837  20.429  0.00  0.00    +0.000 C 
BRANCH   8   7
ATOM      7  C   UNL     1      52.174   5.739  21.473  0.00  0.00    +0.000 C 
BRANCH   7   6
ATOM      6  C   UNL     1      50.904   5.082  21.995  0.00  0.00    +0.000 C 
BRANCH   6   5
ATOM      5  C   UNL     1      49.834   5.035  20.915  0.00  0.00    +0.000 C 
BRANCH   5   4
ATOM      4  C   UNL     1      48.450   4.948  21.548  0.00  0.00    +0.000 C 
BRANCH   4   3
ATOM      3  C   UNL     1      47.494   5.923  20.873  0.00  0.00    +0.000 C 
BRANCH   3   2
ATOM      1  C   UNL     1      47.525   7.767  19.180  0.00  0.00    +0.000 C 
ATOM      2  C   UNL     1      48.236   7.159  20.377  0.00  0.00    +0.000 C 
ENDBRANCH   3   2
ENDBRANCH   4   3
ENDBRANCH   5   4
ENDBRANCH   6   5
ENDBRANCH   7   6
ENDBRANCH   8   7
ENDBRANCH   9   8
ENDBRANCH  10   9
ENDBRANCH  11  10
BRANCH  14  15
ATOM     15  C   UNL     1      47.462   3.350  16.907  0.00  0.00    +0.000 C 
BRANCH  15  16
ATOM     16  N   UNL     1      46.847   4.254  15.967  0.00  0.00    +0.000 N 
ATOM     17  C   UNL     1      46.963   4.085  14.604  0.00  0.00    +0.000 C 
ATOM     18  O   UNL     1      47.541   3.133  14.108  0.00  0.00    +0.000 OA
ATOM     33  H   UNL     1      46.617   5.174  16.314  0.00  0.00    +0.000 HD
BRANCH  17  19
ATOM     19  C   UNL     1      46.295   5.105  13.775  0.00  0.00    +0.000 A 
ATOM     20  C   UNL     1      45.005   4.888  13.306  0.00  0.00    +0.000 A 
ATOM     21  S   UNL     1      44.400   6.179  12.368  0.00  0.00    +0.000 S 
ATOM     22  C   UNL     1      45.851   7.051  12.537  0.00  0.00    +0.000 A 
ATOM     23  N   UNL     1      45.998   8.248  11.941  0.00  0.00    +0.000 NA
ATOM     24  C   UNL     1      47.195   8.792  12.173  0.00  0.00    +0.000 A 
ATOM     25  N   UNL     1      48.196   8.286  12.906  0.00  0.00    +0.000 NA
ATOM     26  C   UNL     1      47.999   7.085  13.474  0.00  0.00    +0.000 A 
ATOM     29  C   UNL     1      46.789   6.393  13.317  0.00  0.00    +0.000 A 
BRANCH  26  27
ATOM     27  O   UNL     1      48.997   6.511  14.228  0.00  0.00    +0.000 OA
ATOM     28  C   UNL     1      50.092   7.354  14.540  0.00  0.00    +0.000 C 
ENDBRANCH  26  27
ENDBRANCH  17  19
ENDBRANCH  15  16
ENDBRANCH  14  15
TORSDOF 13
ENDMDL
MODEL 9
REMARK VINA RESULT:    -5.437      3.313      8.581
REMARK INTER + INTRA:         -11.941
REMARK INTER:                  -8.783
REMARK INTRA:                  -3.158
REMARK UNBOUND:                -2.371
REMARK  Name = 
REMARK  15 active torsions:
REMARK  status: ('A' for Active; 'I' for Inactive)
REMARK    1  A    between atoms: C_1  and  C_2
REMARK    2  A    between atoms: C_2  and  C_3
REMARK    3  A    between atoms: C_3  and  C_4
REMARK    4  A    between atoms: C_4  and  C_5
REMARK    5  A    between atoms: C_5  and  C_6
REMARK    6  A    between atoms: C_6  and  C_7
REMARK    7  A    between atoms: C_7  and  C_8
REMARK    8  A    between atoms: C_8  and  N_9
REMARK    9  A    between atoms: N_9  and  C_10
REMARK   10  A    between atoms: C_10  and  C_11
REMARK   11  A    between atoms: C_14  and  C_15
REMARK   12  A    between atoms: C_15  and  N_16
REMARK   13  A    between atoms: C_17  and  C_19
REMARK   14  A    between atoms: C_26  and  O_27
REMARK   15  A    between atoms: O_27  and  C_28
REMARK                            x       y       z     vdW  Elec       q    Type
REMARK                         _______ _______ _______ _____ _____    ______ ____
ROOT
ATOM     11  C   UNL     1      48.079   5.790  20.546  0.00  0.00    +0.000 A 
ATOM     12  C   UNL     1      49.087   4.900  20.147  0.00  0.00    +0.000 A 
ATOM     13  C   UNL     1      49.059   4.299  18.888  0.00  0.00    +0.000 A 
ATOM     14  C   UNL     1      48.011   4.563  17.994  0.00  0.00    +0.000 A 
ATOM     30  C   UNL     1      46.995   5.439  18.406  0.00  0.00    +0.000 A 
ATOM     31  C   UNL     1      47.034   6.062  19.659  0.00  0.00    +0.000 A 
ENDROOT
BRANCH  11  10
ATOM     10  C   UNL     1      48.109   6.408  21.922  0.00  0.00    +0.000 C 
BRANCH  10   9
ATOM      9  N   UNL     1      48.380   7.840  21.848  0.00  0.00    +0.000 NA
ATOM     32  H   UNL     1      49.122   8.082  22.500  0.00  0.00    +0.000 HD
BRANCH   9   8
ATOM      8  C   UNL     1      47.189   8.610  22.171  0.00  0.00    +0.000 C 
BRANCH   8   7
ATOM      7  C   UNL     1      47.248   9.940  21.429  0.00  0.00    +0.000 C 
BRANCH   7   6
ATOM      6  C   UNL     1      46.864   9.728  19.972  0.00  0.00    +0.000 C 
BRANCH   6   5
ATOM      5  C   UNL     1      48.051   9.984  19.055  0.00  0.00    +0.000 C 
BRANCH   5   4
ATOM      4  C   UNL     1      47.840   9.292  17.714  0.00  0.00    +0.000 C 
BRANCH   4   3
ATOM      3  C   UNL     1      48.980   8.322  17.430  0.00  0.00    +0.000 C 
BRANCH   3   2
ATOM      1  C   UNL     1      51.117   7.344  18.289  0.00  0.00    +0.000 C 
ATOM      2  C   UNL     1      50.010   8.349  18.553  0.00  0.00    +0.000 C 
ENDBRANCH   3   2
ENDBRANCH   4   3
ENDBRANCH   5   4
ENDBRANCH   6   5
ENDBRANCH   7   6
ENDBRANCH   8   7
ENDBRANCH   9   8
ENDBRANCH  10   9
ENDBRANCH  11  10
BRANCH  14  15
ATOM     15  C   UNL     1      47.973   3.935  16.624  0.00  0.00    +0.000 C 
BRANCH  15  16
ATOM     16  N   UNL     1      47.137   4.665  15.704  0.00  0.00    +0.000 N 
ATOM     17  C   UNL     1      46.879   4.210  14.429  0.00  0.00    +0.000 C 
ATOM     18  O   UNL     1      47.291   3.139  14.019  0.00  0.00    +0.000 OA
ATOM     33  H   UNL     1      47.019   5.651  15.890  0.00  0.00    +0.000 HD
BRANCH  17  19
ATOM     19  C   UNL     1      46.023   5.080  13.602  0.00  0.00    +0.000 A 
ATOM     20  C   UNL     1      44.835   4.592  13.072  0.00  0.00    +0.000 A 
ATOM     21  S   UNL     1      43.982   5.744  12.147  0.00  0.00    +0.000 S 
ATOM     22  C   UNL     1      45.185   6.918  12.403  0.00  0.00    +0.000 A 
ATOM     23  N   UNL     1      45.073   8.139  11.849  0.00  0.00    +0.000 NA
ATOM     24  C   UNL     1      46.103   8.935  12.148  0.00  0.00    +0.000 A 
ATOM     25  N   UNL     1      47.167   8.644  12.908  0.00  0.00    +0.000 NA
ATOM     26  C   UNL     1      47.234   7.409  13.432  0.00  0.00    +0.000 A 
ATOM     29  C   UNL     1      46.222   6.464  13.203  0.00  0.00    +0.000 A 
BRANCH  26  27
ATOM     27  O   UNL     1      48.309   7.051  14.211  0.00  0.00    +0.000 OA
ATOM     28  C   UNL     1      49.579   7.445  13.722  0.00  0.00    +0.000 C 
ENDBRANCH  26  27
ENDBRANCH  17  19
ENDBRANCH  15  16
ENDBRANCH  14  15
TORSDOF 13
ENDMDL
