MODEL 1
REMARK VINA RESULT:    -6.861      0.000      0.000
REMARK INTER + INTRA:         -10.829
REMARK INTER:                  -9.268
REMARK INTRA:                  -1.561
REMARK UNBOUND:                -1.561
REMARK  Name = 
REMARK  6 active torsions:
REMARK  status: ('A' for Active; 'I' for Inactive)
REMARK    1  A    between atoms: C_2  and  C_23
REMARK    2  A    between atoms: N_3  and  C_4
REMARK    3  A    between atoms: C_4  and  C_5
REMARK    4  A    between atoms: C_8  and  C_9
REMARK    5  A    between atoms: C_9  and  N_10
REMARK    6  A    between atoms: N_10  and  C_11
REMARK                            x       y       z     vdW  Elec       q    Type
REMARK                         _______ _______ _______ _____ _____    ______ ____
ROOT
ATOM      5  C   UNL     1      48.352   8.099  13.126  0.00  0.00    +0.000 A 
ATOM      6  C   UNL     1      49.628   7.567  13.358  0.00  0.00    +0.000 A 
ATOM      7  C   UNL     1      50.246   7.722  14.599  0.00  0.00    +0.000 A 
ATOM      8  C   UNL     1      49.592   8.402  15.633  0.00  0.00    +0.000 A 
ATOM     21  C   UNL     1      48.305   8.910  15.408  0.00  0.00    +0.000 A 
ATOM     22  C   UNL     1      47.686   8.753  14.169  0.00  0.00    +0.000 A 
ENDROOT
BRANCH   5   4
ATOM      4  C   UNL     1      47.689   7.928  11.786  0.00  0.00    +0.000 C 
BRANCH   4   3
ATOM      1  O   UNL     1      44.908   7.608  12.026  0.00  0.00    +0.000 OA
ATOM      2  C   UNL     1      45.602   6.624  11.783  0.00  0.00    +0.000 C 
ATOM      3  N   UNL     1      46.969   6.683  11.723  0.00  0.00    +0.000 N 
ATOM     33  H   UNL     1      47.481   5.897  11.339  0.00  0.00    +0.000 HD
BRANCH   2  23
ATOM     23  C   UNL     1      45.004   5.296  11.594  0.00  0.00    +0.000 A 
ATOM     24  C   UNL     1      44.309   4.702  12.638  0.00  0.00    +0.000 A 
ATOM     25  S   UNL     1      43.684   3.164  12.252  0.00  0.00    +0.000 S 
ATOM     26  C   UNL     1      44.273   3.263  10.658  0.00  0.00    +0.000 A 
ATOM     27  N   UNL     1      44.041   2.266   9.765  0.00  0.00    +0.000 NA
ATOM     28  C   UNL     1      44.499   2.493   8.580  0.00  0.00    +0.000 A 
ATOM     29  N   UNL     1      45.187   3.621   8.212  0.00  0.00    +0.000 N 
ATOM     30  C   UNL     1      45.522   4.610   9.104  0.00  0.00    +0.000 A 
ATOM     31  O   UNL     1      46.272   5.527   8.777  0.00  0.00    +0.000 OA
ATOM     32  C   UNL     1      44.973   4.435  10.435  0.00  0.00    +0.000 A 
ATOM     35  H   UNL     1      45.552   3.720   7.276  0.00  0.00    +0.000 HD
ENDBRANCH   2  23
ENDBRANCH   4   3
ENDBRANCH   5   4
BRANCH   8   9
ATOM      9  C   UNL     1      50.205   8.496  17.006  0.00  0.00    +0.000 C 
BRANCH   9  10
ATOM     10  N   UNL     1      50.678   7.209  17.527  0.00  0.00    +0.000 NA
ATOM     34  H   UNL     1      51.453   7.383  18.167  0.00  0.00    +0.000 HD
BRANCH  10  11
ATOM     11  C   UNL     1      49.632   6.418  18.205  0.00  0.00    +0.000 C 
ATOM     12  C   UNL     1      48.969   5.411  17.228  0.00  0.00    +0.000 C 
ATOM     13  C   UNL     1      47.900   4.576  17.947  0.00  0.00    +0.000 C 
ATOM     14  C   UNL     1      48.559   3.779  19.080  0.00  0.00    +0.000 C 
ATOM     15  C   UNL     1      49.218   4.740  20.082  0.00  0.00    +0.000 C 
ATOM     16  C   UNL     1      48.139   5.661  20.673  0.00  0.00    +0.000 C 
ATOM     17  C   UNL     1      47.475   6.473  19.554  0.00  0.00    +0.000 C 
ATOM     18  C   UNL     1      46.835   5.520  18.531  0.00  0.00    +0.000 C 
ATOM     19  C   UNL     1      48.542   7.320  18.847  0.00  0.00    +0.000 C 
ATOM     20  C   UNL     1      50.281   5.592  19.354  0.00  0.00    +0.000 C 
ENDBRANCH  10  11
ENDBRANCH   9  10
ENDBRANCH   8   9
TORSDOF 6
ENDMDL
MODEL 2
REMARK VINA RESULT:    -6.794      3.078      7.498
REMARK INTER + INTRA:         -10.738
REMARK INTER:                  -9.019
REMARK INTRA:                  -1.719
REMARK UNBOUND:                -1.561
REMARK  Name = 
REMARK  6 active torsions:
REMARK  status: ('A' for Active; 'I' for Inactive)
REMARK    1  A    between atoms: C_2  and  C_23
REMARK    2  A    between atoms: N_3  and  C_4
REMARK    3  A    between atoms: C_4  and  C_5
REMARK    4  A    between atoms: C_8  and  C_9
REMARK    5  A    between atoms: C_9  and  N_10
REMARK    6  A    between atoms: N_10  and  C_11
REMARK                            x       y       z     vdW  Elec       q    Type
REMARK                         _______ _______ _______ _____ _____    ______ ____
ROOT
ATOM      5  C   UNL     1      49.183   8.246  13.588  0.00  0.00    +0.000 A 
ATOM      6  C   UNL     1      48.061   8.903  14.112  0.00  0.00    +0.000 A 
ATOM      7  C   UNL     1      46.889   9.014  13.362  0.00  0.00    +0.000 A 
ATOM      8  C   UNL     1      46.816   8.458  12.080  0.00  0.00    +0.000 A 
ATOM     21  C   UNL     1      47.930   7.777  11.568  0.00  0.00    +0.000 A 
ATOM     22  C   UNL     1      49.100   7.663  12.317  0.00  0.00    +0.000 A 
ENDROOT
BRANCH   5   4
ATOM      4  C   UNL     1      50.444   8.127  14.400  0.00  0.00    +0.000 C 
BRANCH   4   3
ATOM      1  O   UNL     1      49.781   8.537  17.099  0.00  0.00    +0.000 OA
ATOM      2  C   UNL     1      49.921   7.388  16.688  0.00  0.00    +0.000 C 
ATOM      3  N   UNL     1      50.314   7.106  15.406  0.00  0.00    +0.000 N 
ATOM     33  H   UNL     1      50.232   6.156  15.062  0.00  0.00    +0.000 HD
BRANCH   2  23
ATOM     23  C   UNL     1      49.724   6.232  17.572  0.00  0.00    +0.000 A 
ATOM     24  C   UNL     1      50.394   6.176  18.785  0.00  0.00    +0.000 A 
ATOM     25  S   UNL     1      50.057   4.767  19.685  0.00  0.00    +0.000 S 
ATOM     26  C   UNL     1      48.961   4.211  18.508  0.00  0.00    +0.000 A 
ATOM     27  N   UNL     1      48.277   3.051  18.685  0.00  0.00    +0.000 NA
ATOM     28  C   UNL     1      47.443   2.773  17.740  0.00  0.00    +0.000 A 
ATOM     29  N   UNL     1      47.244   3.543  16.622  0.00  0.00    +0.000 N 
ATOM     30  C   UNL     1      47.979   4.674  16.361  0.00  0.00    +0.000 A 
ATOM     31  O   UNL     1      47.887   5.251  15.280  0.00  0.00    +0.000 OA
ATOM     32  C   UNL     1      48.884   5.067  17.424  0.00  0.00    +0.000 A 
ATOM     35  H   UNL     1      46.603   3.250  15.901  0.00  0.00    +0.000 HD
ENDBRANCH   2  23
ENDBRANCH   4   3
ENDBRANCH   5   4
BRANCH   8   9
ATOM      9  C   UNL     1      45.530   8.486  11.296  0.00  0.00    +0.000 C 
BRANCH   9  10
ATOM     10  N   UNL     1      44.399   7.875  12.003  0.00  0.00    +0.000 NA
ATOM     34  H   UNL     1      43.536   8.293  11.656  0.00  0.00    +0.000 HD
BRANCH  10  11
ATOM     11  C   UNL     1      44.336   6.405  11.868  0.00  0.00    +0.000 C 
ATOM     12  C   UNL     1      45.216   5.913  10.690  0.00  0.00    +0.000 C 
ATOM     13  C   UNL     1      45.165   4.383  10.572  0.00  0.00    +0.000 C 
ATOM     14  C   UNL     1      45.705   3.758  11.865  0.00  0.00    +0.000 C 
ATOM     15  C   UNL     1      44.851   4.209  13.061  0.00  0.00    +0.000 C 
ATOM     16  C   UNL     1      43.402   3.746  12.841  0.00  0.00    +0.000 C 
ATOM     17  C   UNL     1      42.843   4.369  11.556  0.00  0.00    +0.000 C 
ATOM     18  C   UNL     1      43.707   3.945  10.357  0.00  0.00    +0.000 C 
ATOM     19  C   UNL     1      42.879   5.899  11.682  0.00  0.00    +0.000 C 
ATOM     20  C   UNL     1      44.889   5.750  13.167  0.00  0.00    +0.000 C 
ENDBRANCH  10  11
ENDBRANCH   9  10
ENDBRANCH   8   9
TORSDOF 6
ENDMDL
MODEL 3
REMARK VINA RESULT:    -6.741      3.795      8.503
REMARK INTER + INTRA:         -10.666
REMARK INTER:                  -9.451
REMARK INTRA:                  -1.215
REMARK UNBOUND:                -1.561
REMARK  Name = 
REMARK  6 active torsions:
REMARK  status: ('A' for Active; 'I' for Inactive)
REMARK    1  A    between atoms: C_2  and  C_23
REMARK    2  A    between atoms: N_3  and  C_4
REMARK    3  A    between atoms: C_4  and  C_5
REMARK    4  A    between atoms: C_8  and  C_9
REMARK    5  A    between atoms: C_9  and  N_10
REMARK    6  A    between atoms: N_10  and  C_11
REMARK                            x       y       z     vdW  Elec       q    Type
REMARK                         _______ _______ _______ _____ _____    ______ ____
ROOT
ATOM      5  C   UNL     1      49.210   7.971  16.392  0.00  0.00    +0.000 A 
ATOM      6  C   UNL     1      48.493   9.051  15.860  0.00  0.00    +0.000 A 
ATOM      7  C   UNL     1      47.765   8.906  14.679  0.00  0.00    +0.000 A 
ATOM      8  C   UNL     1      47.733   7.674  14.016  0.00  0.00    +0.000 A 
ATOM     21  C   UNL     1      48.428   6.587  14.564  0.00  0.00    +0.000 A 
ATOM     22  C   UNL     1      49.154   6.730  15.746  0.00  0.00    +0.000 A 
ENDROOT
BRANCH   5   4
ATOM      4  C   UNL     1      49.992   8.131  17.667  0.00  0.00    +0.000 C 
BRANCH   4   3
ATOM      1  O   UNL     1      49.801   6.090  19.588  0.00  0.00    +0.000 OA
ATOM      2  C   UNL     1      50.712   6.049  18.765  0.00  0.00    +0.000 C 
ATOM      3  N   UNL     1      50.918   7.042  17.843  0.00  0.00    +0.000 N 
ATOM     33  H   UNL     1      51.556   6.876  17.073  0.00  0.00    +0.000 HD
BRANCH   2  23
ATOM     23  C   UNL     1      51.682   4.946  18.753  0.00  0.00    +0.000 A 
ATOM     24  C   UNL     1      52.902   5.100  19.394  0.00  0.00    +0.000 A 
ATOM     25  S   UNL     1      53.909   3.729  19.281  0.00  0.00    +0.000 S 
ATOM     26  C   UNL     1      52.725   2.862  18.418  0.00  0.00    +0.000 A 
ATOM     27  N   UNL     1      52.939   1.575  18.038  0.00  0.00    +0.000 NA
ATOM     28  C   UNL     1      51.941   1.022  17.437  0.00  0.00    +0.000 A 
ATOM     29  N   UNL     1      50.751   1.648  17.161  0.00  0.00    +0.000 N 
ATOM     30  C   UNL     1      50.527   2.973  17.445  0.00  0.00    +0.000 A 
ATOM     31  O   UNL     1      49.513   3.541  17.045  0.00  0.00    +0.000 OA
ATOM     32  C   UNL     1      51.593   3.623  18.183  0.00  0.00    +0.000 A 
ATOM     35  H   UNL     1      50.023   1.169  16.653  0.00  0.00    +0.000 HD
ENDBRANCH   2  23
ENDBRANCH   4   3
ENDBRANCH   5   4
BRANCH   8   9
ATOM      9  C   UNL     1      46.876   7.475  12.793  0.00  0.00    +0.000 C 
BRANCH   9  10
ATOM     10  N   UNL     1      46.982   6.132  12.214  0.00  0.00    +0.000 NA
ATOM     34  H   UNL     1      47.620   5.581  12.788  0.00  0.00    +0.000 HD
BRANCH  10  11
ATOM     11  C   UNL     1      45.688   5.433  12.087  0.00  0.00    +0.000 C 
ATOM     12  C   UNL     1      44.577   6.160  12.890  0.00  0.00    +0.000 C 
ATOM     13  C   UNL     1      43.230   5.442  12.732  0.00  0.00    +0.000 C 
ATOM     14  C   UNL     1      42.827   5.443  11.252  0.00  0.00    +0.000 C 
ATOM     15  C   UNL     1      43.895   4.717  10.418  0.00  0.00    +0.000 C 
ATOM     16  C   UNL     1      44.010   3.266  10.911  0.00  0.00    +0.000 C 
ATOM     17  C   UNL     1      44.422   3.247  12.388  0.00  0.00    +0.000 C 
ATOM     18  C   UNL     1      43.373   3.994  13.228  0.00  0.00    +0.000 C 
ATOM     19  C   UNL     1      45.778   3.950  12.542  0.00  0.00    +0.000 C 
ATOM     20  C   UNL     1      45.254   5.430  10.592  0.00  0.00    +0.000 C 
ENDBRANCH  10  11
ENDBRANCH   9  10
ENDBRANCH   8   9
TORSDOF 6
ENDMDL
MODEL 4
REMARK VINA RESULT:    -6.738      5.453      8.126
REMARK INTER + INTRA:         -10.662
REMARK INTER:                  -9.481
REMARK INTRA:                  -1.181
REMARK UNBOUND:                -1.561
REMARK  Name = 
REMARK  6 active torsions:
REMARK  status: ('A' for Active; 'I' for Inactive)
REMARK    1  A    between atoms: C_2  and  C_23
REMARK    2  A    between atoms: N_3  and  C_4
REMARK    3  A    between atoms: C_4  and  C_5
REMARK    4  A    between atoms: C_8  and  C_9
REMARK    5  A    between atoms: C_9  and  N_10
REMARK    6  A    between atoms: N_10  and  C_11
REMARK                            x       y       z     vdW  Elec       q    Type
REMARK                         _______ _______ _______ _____ _____    ______ ____
ROOT
ATOM      5  C   UNL     1      50.457   8.947  11.514  0.00  0.00    +0.000 A 
ATOM      6  C   UNL     1      50.108   7.618  11.790  0.00  0.00    +0.000 A 
ATOM      7  C   UNL     1      48.810   7.292  12.184  0.00  0.00    +0.000 A 
ATOM      8  C   UNL     1      47.835   8.290  12.297  0.00  0.00    +0.000 A 
ATOM     21  C   UNL     1      48.178   9.616  11.994  0.00  0.00    +0.000 A 
ATOM     22  C   UNL     1      49.475   9.941  11.598  0.00  0.00    +0.000 A 
ENDROOT
BRANCH   5   4
ATOM      4  C   UNL     1      51.858   9.294  11.088  0.00  0.00    +0.000 C 
BRANCH   4   3
ATOM      1  O   UNL     1      54.201   9.723   9.600  0.00  0.00    +0.000 OA
ATOM      2  C   UNL     1      53.354   8.947   9.166  0.00  0.00    +0.000 C 
ATOM      3  N   UNL     1      52.154   8.739   9.794  0.00  0.00    +0.000 N 
ATOM     33  H   UNL     1      51.575   7.959   9.505  0.00  0.00    +0.000 HD
BRANCH   2  23
ATOM     23  C   UNL     1      53.555   8.227   7.902  0.00  0.00    +0.000 A 
ATOM     24  C   UNL     1      53.729   8.941   6.726  0.00  0.00    +0.000 A 
ATOM     25  S   UNL     1      53.945   7.952   5.354  0.00  0.00    +0.000 S 
ATOM     26  C   UNL     1      53.869   6.536   6.293  0.00  0.00    +0.000 A 
ATOM     27  N   UNL     1      54.026   5.312   5.725  0.00  0.00    +0.000 NA
ATOM     28  C   UNL     1      53.997   4.328   6.559  0.00  0.00    +0.000 A 
ATOM     29  N   UNL     1      53.804   4.456   7.912  0.00  0.00    +0.000 N 
ATOM     30  C   UNL     1      53.552   5.664   8.514  0.00  0.00    +0.000 A 
ATOM     31  O   UNL     1      53.229   5.724   9.698  0.00  0.00    +0.000 OA
ATOM     32  C   UNL     1      53.640   6.811   7.630  0.00  0.00    +0.000 A 
ATOM     35  H   UNL     1      53.755   3.641   8.505  0.00  0.00    +0.000 HD
ENDBRANCH   2  23
ENDBRANCH   4   3
ENDBRANCH   5   4
BRANCH   8   9
ATOM      9  C   UNL     1      46.407   7.943  12.628  0.00  0.00    +0.000 C 
BRANCH   9  10
ATOM     10  N   UNL     1      46.262   6.664  13.332  0.00  0.00    +0.000 NA
ATOM     34  H   UNL     1      45.844   6.843  14.245  0.00  0.00    +0.000 HD
BRANCH  10  11
ATOM     11  C   UNL     1      45.460   5.666  12.597  0.00  0.00    +0.000 C 
ATOM     12  C   UNL     1      45.924   4.222  12.927  0.00  0.00    +0.000 C 
ATOM     13  C   UNL     1      45.069   3.190  12.179  0.00  0.00    +0.000 C 
ATOM     14  C   UNL     1      43.606   3.333  12.617  0.00  0.00    +0.000 C 
ATOM     15  C   UNL     1      43.099   4.748  12.296  0.00  0.00    +0.000 C 
ATOM     16  C   UNL     1      43.198   4.980  10.780  0.00  0.00    +0.000 C 
ATOM     17  C   UNL     1      44.657   4.850  10.326  0.00  0.00    +0.000 C 
ATOM     18  C   UNL     1      45.183   3.446  10.667  0.00  0.00    +0.000 C 
ATOM     19  C   UNL     1      45.508   5.894  11.062  0.00  0.00    +0.000 C 
ATOM     20  C   UNL     1      43.971   5.786  13.035  0.00  0.00    +0.000 C 
ENDBRANCH  10  11
ENDBRANCH   9  10
ENDBRANCH   8   9
TORSDOF 6
ENDMDL
MODEL 5
REMARK VINA RESULT:    -6.616      1.684      2.727
REMARK INTER + INTRA:         -10.497
REMARK INTER:                  -9.285
REMARK INTRA:                  -1.213
REMARK UNBOUND:                -1.561
REMARK  Name = 
REMARK  6 active torsions:
REMARK  status: ('A' for Active; 'I' for Inactive)
REMARK    1  A    between atoms: C_2  and  C_23
REMARK    2  A    between atoms: N_3  and  C_4
REMARK    3  A    between atoms: C_4  and  C_5
REMARK    4  A    between atoms: C_8  and  C_9
REMARK    5  A    between atoms: C_9  and  N_10
REMARK    6  A    between atoms: N_10  and  C_11
REMARK                            x       y       z     vdW  Elec       q    Type
REMARK                         _______ _______ _______ _____ _____    ______ ____
ROOT
ATOM      5  C   UNL     1      48.953   7.441  13.645  0.00  0.00    +0.000 A 
ATOM      6  C   UNL     1      48.238   6.642  14.549  0.00  0.00    +0.000 A 
ATOM      7  C   UNL     1      48.802   6.278  15.772  0.00  0.00    +0.000 A 
ATOM      8  C   UNL     1      50.086   6.717  16.117  0.00  0.00    +0.000 A 
ATOM     21  C   UNL     1      50.788   7.539  15.224  0.00  0.00    +0.000 A 
ATOM     22  C   UNL     1      50.224   7.905  14.002  0.00  0.00    +0.000 A 
ENDROOT
BRANCH   5   4
ATOM      4  C   UNL     1      48.341   7.833  12.327  0.00  0.00    +0.000 C 
BRANCH   4   3
ATOM      1  O   UNL     1      45.598   7.900  11.727  0.00  0.00    +0.000 OA
ATOM      2  C   UNL     1      46.243   6.891  11.453  0.00  0.00    +0.000 C 
ATOM      3  N   UNL     1      47.566   6.751  11.778  0.00  0.00    +0.000 N 
ATOM     33  H   UNL     1      48.097   5.991  11.369  0.00  0.00    +0.000 HD
BRANCH   2  23
ATOM     23  C   UNL     1      45.613   5.737  10.798  0.00  0.00    +0.000 A 
ATOM     24  C   UNL     1      45.805   5.530   9.440  0.00  0.00    +0.000 A 
ATOM     25  S   UNL     1      45.002   4.151   8.841  0.00  0.00    +0.000 S 
ATOM     26  C   UNL     1      44.415   3.752  10.387  0.00  0.00    +0.000 A 
ATOM     27  N   UNL     1      43.670   2.633  10.584  0.00  0.00    +0.000 NA
ATOM     28  C   UNL     1      43.334   2.424  11.812  0.00  0.00    +0.000 A 
ATOM     29  N   UNL     1      43.660   3.245  12.862  0.00  0.00    +0.000 N 
ATOM     30  C   UNL     1      44.333   4.431  12.695  0.00  0.00    +0.000 A 
ATOM     31  O   UNL     1      44.469   5.217  13.630  0.00  0.00    +0.000 OA
ATOM     32  C   UNL     1      44.792   4.681  11.342  0.00  0.00    +0.000 A 
ATOM     35  H   UNL     1      43.333   3.044  13.795  0.00  0.00    +0.000 HD
ENDBRANCH   2  23
ENDBRANCH   4   3
ENDBRANCH   5   4
BRANCH   8   9
ATOM      9  C   UNL     1      50.670   6.412  17.472  0.00  0.00    +0.000 C 
BRANCH   9  10
ATOM     10  N   UNL     1      49.958   5.351  18.192  0.00  0.00    +0.000 NA
ATOM     34  H   UNL     1      50.609   4.586  18.369  0.00  0.00    +0.000 HD
BRANCH  10  11
ATOM     11  C   UNL     1      49.350   5.797  19.462  0.00  0.00    +0.000 C 
ATOM     12  C   UNL     1      49.862   4.948  20.656  0.00  0.00    +0.000 C 
ATOM     13  C   UNL     1      49.245   5.434  21.975  0.00  0.00    +0.000 C 
ATOM     14  C   UNL     1      49.652   6.893  22.217  0.00  0.00    +0.000 C 
ATOM     15  C   UNL     1      49.150   7.774  21.062  0.00  0.00    +0.000 C 
ATOM     16  C   UNL     1      47.618   7.681  20.992  0.00  0.00    +0.000 C 
ATOM     17  C   UNL     1      47.194   6.229  20.742  0.00  0.00    +0.000 C 
ATOM     18  C   UNL     1      47.713   5.334  21.879  0.00  0.00    +0.000 C 
ATOM     19  C   UNL     1      47.798   5.750  19.414  0.00  0.00    +0.000 C 
ATOM     20  C   UNL     1      49.758   7.274  19.733  0.00  0.00    +0.000 C 
ENDBRANCH  10  11
ENDBRANCH   9  10
ENDBRANCH   8   9
TORSDOF 6
ENDMDL
MODEL 6
REMARK VINA RESULT:    -6.534      4.550      6.976
REMARK INTER + INTRA:         -10.386
REMARK INTER:                  -9.072
REMARK INTRA:                  -1.315
REMARK UNBOUND:                -1.561
REMARK  Name = 
REMARK  6 active torsions:
REMARK  status: ('A' for Active; 'I' for Inactive)
REMARK    1  A    between atoms: C_2  and  C_23
REMARK    2  A    between atoms: N_3  and  C_4
REMARK    3  A    between atoms: C_4  and  C_5
REMARK    4  A    between atoms: C_8  and  C_9
REMARK    5  A    between atoms: C_9  and  N_10
REMARK    6  A    between atoms: N_10  and  C_11
REMARK                            x       y       z     vdW  Elec       q    Type
REMARK                         _______ _______ _______ _____ _____    ______ ____
ROOT
ATOM      5  C   UNL     1      47.289   8.462  12.134  0.00  0.00    +0.000 A 
ATOM      6  C   UNL     1      47.782   9.772  12.060  0.00  0.00    +0.000 A 
ATOM      7  C   UNL     1      49.152  10.009  11.936  0.00  0.00    +0.000 A 
ATOM      8  C   UNL     1      50.050   8.938  11.871  0.00  0.00    +0.000 A 
ATOM     21  C   UNL     1      49.554   7.628  11.918  0.00  0.00    +0.000 A 
ATOM     22  C   UNL     1      48.185   7.390  12.039  0.00  0.00    +0.000 A 
ENDROOT
BRANCH   5   4
ATOM      4  C   UNL     1      45.812   8.211  12.266  0.00  0.00    +0.000 C 
BRANCH   4   3
ATOM      1  O   UNL     1      43.349   7.201  11.367  0.00  0.00    +0.000 OA
ATOM      2  C   UNL     1      44.291   6.426  11.517  0.00  0.00    +0.000 C 
ATOM      3  N   UNL     1      45.502   6.826  12.020  0.00  0.00    +0.000 N 
ATOM     33  H   UNL     1      46.297   6.202  11.948  0.00  0.00    +0.000 HD
BRANCH   2  23
ATOM     23  C   UNL     1      44.160   4.996  11.213  0.00  0.00    +0.000 A 
ATOM     24  C   UNL     1      43.362   4.195  12.018  0.00  0.00    +0.000 A 
ATOM     25  S   UNL     1      43.323   2.562  11.528  0.00  0.00    +0.000 S 
ATOM     26  C   UNL     1      44.327   2.881  10.192  0.00  0.00    +0.000 A 
ATOM     27  N   UNL     1      44.658   1.896   9.317  0.00  0.00    +0.000 NA
ATOM     28  C   UNL     1      45.382   2.285   8.322  0.00  0.00    +0.000 A 
ATOM     29  N   UNL     1      45.822   3.571   8.133  0.00  0.00    +0.000 N 
ATOM     30  C   UNL     1      45.587   4.577   9.039  0.00  0.00    +0.000 A 
ATOM     31  O   UNL     1      46.126   5.674   8.918  0.00  0.00    +0.000 OA
ATOM     32  C   UNL     1      44.721   4.206  10.142  0.00  0.00    +0.000 A 
ATOM     35  H   UNL     1      46.418   3.803   7.352  0.00  0.00    +0.000 HD
ENDBRANCH   2  23
ENDBRANCH   4   3
ENDBRANCH   5   4
BRANCH   8   9
ATOM      9  C   UNL     1      51.520   9.175  11.642  0.00  0.00    +0.000 C 
BRANCH   9  10
ATOM     10  N   UNL     1      52.297   7.939  11.492  0.00  0.00    +0.000 NA
ATOM     34  H   UNL     1      51.676   7.145  11.647  0.00  0.00    +0.000 HD
BRANCH  10  11
ATOM     11  C   UNL     1      52.961   7.809  10.179  0.00  0.00    +0.000 C 
ATOM     12  C   UNL     1      54.395   7.236  10.333  0.00  0.00    +0.000 C 
ATOM     13  C   UNL     1      55.070   7.079   8.963  0.00  0.00    +0.000 C 
ATOM     14  C   UNL     1      54.254   6.102   8.106  0.00  0.00    +0.000 C 
ATOM     15  C   UNL     1      52.827   6.638   7.916  0.00  0.00    +0.000 C 
ATOM     16  C   UNL     1      52.896   7.999   7.204  0.00  0.00    +0.000 C 
ATOM     17  C   UNL     1      53.701   8.991   8.052  0.00  0.00    +0.000 C 
ATOM     18  C   UNL     1      55.124   8.451   8.271  0.00  0.00    +0.000 C 
ATOM     19  C   UNL     1      53.016   9.160   9.415  0.00  0.00    +0.000 C 
ATOM     20  C   UNL     1      52.155   6.812   9.296  0.00  0.00    +0.000 C 
ENDBRANCH  10  11
ENDBRANCH   9  10
ENDBRANCH   8   9
TORSDOF 6
ENDMDL
MODEL 7
REMARK VINA RESULT:    -6.001      2.097      2.938
REMARK INTER + INTRA:          -9.666
REMARK INTER:                  -8.412
REMARK INTRA:                  -1.254
REMARK UNBOUND:                -1.561
REMARK  Name = 
REMARK  6 active torsions:
REMARK  status: ('A' for Active; 'I' for Inactive)
REMARK    1  A    between atoms: C_2  and  C_23
REMARK    2  A    between atoms: N_3  and  C_4
REMARK    3  A    between atoms: C_4  and  C_5
REMARK    4  A    between atoms: C_8  and  C_9
REMARK    5  A    between atoms: C_9  and  N_10
REMARK    6  A    between atoms: N_10  and  C_11
REMARK                            x       y       z     vdW  Elec       q    Type
REMARK                         _______ _______ _______ _____ _____    ______ ____
ROOT
ATOM      5  C   UNL     1      48.393   8.160  13.253  0.00  0.00    +0.000 A 
ATOM      6  C   UNL     1      48.838   7.077  14.024  0.00  0.00    +0.000 A 
ATOM      7  C   UNL     1      49.346   7.281  15.308  0.00  0.00    +0.000 A 
ATOM      8  C   UNL     1      49.406   8.572  15.847  0.00  0.00    +0.000 A 
ATOM     21  C   UNL     1      48.935   9.651  15.085  0.00  0.00    +0.000 A 
ATOM     22  C   UNL     1      48.425   9.447  13.803  0.00  0.00    +0.000 A 
ENDROOT
BRANCH   5   4
ATOM      4  C   UNL     1      47.845   7.936  11.870  0.00  0.00    +0.000 C 
BRANCH   4   3
ATOM      1  O   UNL     1      45.084   7.662  12.310  0.00  0.00    +0.000 OA
ATOM      2  C   UNL     1      45.734   6.676  11.970  0.00  0.00    +0.000 C 
ATOM      3  N   UNL     1      47.094   6.709  11.807  0.00  0.00    +0.000 N 
ATOM     33  H   UNL     1      47.555   5.932  11.349  0.00  0.00    +0.000 HD
BRANCH   2  23
ATOM     23  C   UNL     1      45.091   5.371  11.768  0.00  0.00    +0.000 A 
ATOM     24  C   UNL     1      44.398   4.779  12.814  0.00  0.00    +0.000 A 
ATOM     25  S   UNL     1      43.718   3.268  12.412  0.00  0.00    +0.000 S 
ATOM     26  C   UNL     1      44.280   3.379  10.810  0.00  0.00    +0.000 A 
ATOM     27  N   UNL     1      44.001   2.407   9.903  0.00  0.00    +0.000 NA
ATOM     28  C   UNL     1      44.444   2.641   8.714  0.00  0.00    +0.000 A 
ATOM     29  N   UNL     1      45.161   3.754   8.353  0.00  0.00    +0.000 N 
ATOM     30  C   UNL     1      45.542   4.716   9.257  0.00  0.00    +0.000 A 
ATOM     31  O   UNL     1      46.314   5.615   8.933  0.00  0.00    +0.000 OA
ATOM     32  C   UNL     1      45.012   4.533  10.595  0.00  0.00    +0.000 A 
ATOM     35  H   UNL     1      45.511   3.859   7.413  0.00  0.00    +0.000 HD
ENDBRANCH   2  23
ENDBRANCH   4   3
ENDBRANCH   5   4
BRANCH   8   9
ATOM      9  C   UNL     1      49.862   8.798  17.264  0.00  0.00    +0.000 C 
BRANCH   9  10
ATOM     10  N   UNL     1      49.005   8.155  18.266  0.00  0.00    +0.000 NA
ATOM     34  H   UNL     1      49.550   7.441  18.749  0.00  0.00    +0.000 HD
BRANCH  10  11
ATOM     11  C   UNL     1      48.425   9.094  19.246  0.00  0.00    +0.000 C 
ATOM     12  C   UNL     1      47.483   8.359  20.237  0.00  0.00    +0.000 C 
ATOM     13  C   UNL     1      46.904   9.338  21.268  0.00  0.00    +0.000 C 
ATOM     14  C   UNL     1      48.052   9.961  22.074  0.00  0.00    +0.000 C 
ATOM     15  C   UNL     1      49.004  10.714  21.131  0.00  0.00    +0.000 C 
ATOM     16  C   UNL     1      48.222  11.829  20.419  0.00  0.00    +0.000 C 
ATOM     17  C   UNL     1      47.075  11.222  19.601  0.00  0.00    +0.000 C 
ATOM     18  C   UNL     1      46.130  10.444  20.531  0.00  0.00    +0.000 C 
ATOM     19  C   UNL     1      47.657  10.256  18.558  0.00  0.00    +0.000 C 
ATOM     20  C   UNL     1      49.572   9.732  20.083  0.00  0.00    +0.000 C 
ENDBRANCH  10  11
ENDBRANCH   9  10
ENDBRANCH   8   9
TORSDOF 6
ENDMDL
MODEL 8
REMARK VINA RESULT:    -5.781      4.275      9.619
REMARK INTER + INTRA:          -9.370
REMARK INTER:                  -8.459
REMARK INTRA:                  -0.911
REMARK UNBOUND:                -1.561
REMARK  Name = 
REMARK  6 active torsions:
REMARK  status: ('A' for Active; 'I' for Inactive)
REMARK    1  A    between atoms: C_2  and  C_23
REMARK    2  A    between atoms: N_3  and  C_4
REMARK    3  A    between atoms: C_4  and  C_5
REMARK    4  A    between atoms: C_8  and  C_9
REMARK    5  A    between atoms: C_9  and  N_10
REMARK    6  A    between atoms: N_10  and  C_11
REMARK                            x       y       z     vdW  Elec       q    Type
REMARK                         _______ _______ _______ _____ _____    ______ ____
ROOT
ATOM      5  C   UNL     1      48.658   4.529  18.491  0.00  0.00    +0.000 A 
ATOM      6  C   UNL     1      47.958   3.359  18.165  0.00  0.00    +0.000 A 
ATOM      7  C   UNL     1      47.372   3.211  16.907  0.00  0.00    +0.000 A 
ATOM      8  C   UNL     1      47.487   4.225  15.950  0.00  0.00    +0.000 A 
ATOM     21  C   UNL     1      48.211   5.384  16.268  0.00  0.00    +0.000 A 
ATOM     22  C   UNL     1      48.799   5.532  17.523  0.00  0.00    +0.000 A 
ENDROOT
BRANCH   5   4
ATOM      4  C   UNL     1      49.290   4.685  19.847  0.00  0.00    +0.000 C 
BRANCH   4   3
ATOM      1  O   UNL     1      51.348   6.598  19.833  0.00  0.00    +0.000 OA
ATOM      2  C   UNL     1      50.225   6.933  20.204  0.00  0.00    +0.000 C 
ATOM      3  N   UNL     1      49.188   6.045  20.309  0.00  0.00    +0.000 N 
ATOM     33  H   UNL     1      48.246   6.399  20.435  0.00  0.00    +0.000 HD
BRANCH   2  23
ATOM     23  C   UNL     1      49.938   8.314  20.614  0.00  0.00    +0.000 A 
ATOM     24  C   UNL     1      50.876   9.019  21.352  0.00  0.00    +0.000 A 
ATOM     25  S   UNL     1      50.383  10.602  21.748  0.00  0.00    +0.000 S 
ATOM     26  C   UNL     1      48.920  10.419  20.898  0.00  0.00    +0.000 A 
ATOM     27  N   UNL     1      48.032  11.443  20.806  0.00  0.00    +0.000 NA
ATOM     28  C   UNL     1      46.990  11.184  20.091  0.00  0.00    +0.000 A 
ATOM     29  N   UNL     1      46.745   9.983  19.473  0.00  0.00    +0.000 N 
ATOM     30  C   UNL     1      47.570   8.894  19.614  0.00  0.00    +0.000 A 
ATOM     31  O   UNL     1      47.242   7.793  19.179  0.00  0.00    +0.000 OA
ATOM     32  C   UNL     1      48.791   9.152  20.354  0.00  0.00    +0.000 A 
ATOM     35  H   UNL     1      45.891   9.834  18.958  0.00  0.00    +0.000 HD
ENDBRANCH   2  23
ENDBRANCH   4   3
ENDBRANCH   5   4
BRANCH   8   9
ATOM      9  C   UNL     1      46.942   4.041  14.558  0.00  0.00    +0.000 C 
BRANCH   9  10
ATOM     10  N   UNL     1      46.212   5.209  14.054  0.00  0.00    +0.000 NA
ATOM     34  H   UNL     1      46.888   5.931  13.804  0.00  0.00    +0.000 HD
BRANCH  10  11
ATOM     11  C   UNL     1      45.339   4.915  12.900  0.00  0.00    +0.000 C 
ATOM     12  C   UNL     1      45.626   5.883  11.720  0.00  0.00    +0.000 C 
ATOM     13  C   UNL     1      44.733   5.555  10.515  0.00  0.00    +0.000 C 
ATOM     14  C   UNL     1      45.028   4.125  10.043  0.00  0.00    +0.000 C 
ATOM     15  C   UNL     1      44.743   3.129  11.178  0.00  0.00    +0.000 C 
ATOM     16  C   UNL     1      43.261   3.236  11.575  0.00  0.00    +0.000 C 
ATOM     17  C   UNL     1      42.952   4.658  12.059  0.00  0.00    +0.000 C 
ATOM     18  C   UNL     1      43.259   5.666  10.939  0.00  0.00    +0.000 C 
ATOM     19  C   UNL     1      43.833   4.979  13.274  0.00  0.00    +0.000 C 
ATOM     20  C   UNL     1      45.629   3.471  12.396  0.00  0.00    +0.000 C 
ENDBRANCH  10  11
ENDBRANCH   9  10
ENDBRANCH   8   9
TORSDOF 6
ENDMDL
