MODEL 1
REMARK VINA RESULT:    -7.125      0.000      0.000
REMARK INTER + INTRA:          -9.190
REMARK INTER:                  -9.208
REMARK INTRA:                   0.019
REMARK UNBOUND:                 0.019
REMARK  Name = 
REMARK  7 active torsions:
REMARK  status: ('A' for Active; 'I' for Inactive)
REMARK    1  A    between atoms: C_1  and  N_2
REMARK    2  A    between atoms: C_5  and  N_6
REMARK    3  A    between atoms: N_6  and  C_7
REMARK    4  A    between atoms: C_8  and  C_10
REMARK    5  A    between atoms: C_10  and  N_11
REMARK    6  A    between atoms: C_12  and  C_13
REMARK    7  A    between atoms: C_19  and  C_20
REMARK                            x       y       z     vdW  Elec       q    Type
REMARK                         _______ _______ _______ _____ _____    ______ ____
ROOT
ATOM     11  N   UNL     1      44.930   4.829  10.177  0.00  0.00    +0.000 N 
ATOM     12  C   UNL     1      44.081   3.862  10.688  0.00  0.00    +0.000 A 
ATOM     16  C   UNL     1      44.188   2.755   9.867  0.00  0.00    +0.000 A 
ATOM     17  C   UNL     1      45.116   3.034   8.842  0.00  0.00    +0.000 A 
ATOM     18  C   UNL     1      45.622   2.335   7.739  0.00  0.00    +0.000 A 
ATOM     19  C   UNL     1      46.562   2.979   6.928  0.00  0.00    +0.000 A 
ATOM     23  C   UNL     1      46.963   4.263   7.259  0.00  0.00    +0.000 A 
ATOM     24  N   UNL     1      46.503   4.966   8.321  0.00  0.00    +0.000 NA
ATOM     25  C   UNL     1      45.578   4.328   9.067  0.00  0.00    +0.000 A 
ENDROOT
BRANCH  19  20
ATOM     20  C   UNL     1      47.164   2.333   5.740  0.00  0.00    +0.000 C 
ATOM     21  N   UNL     1      48.426   1.818   5.875  0.00  0.00    +0.000 N 
ATOM     22  O   UNL     1      46.553   2.241   4.682  0.00  0.00    +0.000 OA
ATOM     28  H   UNL     1      48.872   1.691   6.771  0.00  0.00    +0.000 HD
ATOM     29  H   UNL     1      48.797   1.311   5.084  0.00  0.00    +0.000 HD
ENDBRANCH  19  20
BRANCH  12  13
ATOM     13  C   UNL     1      43.111   3.823  11.867  0.00  0.00    +0.000 C 
ATOM     14  C   UNL     1      42.817   5.050  12.692  0.00  0.00    +0.000 C 
ATOM     15  C   UNL     1      43.564   3.913  13.304  0.00  0.00    +0.000 C 
ENDBRANCH  12  13
BRANCH  11  10
ATOM     10  C   UNL     1      45.088   6.181  10.708  0.00  0.00    +0.000 C 
BRANCH  10   8
ATOM      6  N   UNL     1      46.423   7.619  12.279  0.00  0.00    +0.000 N 
ATOM      7  C   UNL     1      45.641   8.757  11.787  0.00  0.00    +0.000 C 
ATOM      8  C   UNL     1      46.089   6.323  11.837  0.00  0.00    +0.000 C 
ATOM      9  O   UNL     1      46.604   5.289  12.270  0.00  0.00    +0.000 OA
BRANCH   6   5
ATOM      1  C   UNL     1      50.660   9.017  11.349  0.00  0.00    +0.000 C 
ATOM      2  N   UNL     1      49.840   8.715  12.524  0.00  0.00    +0.000 NA
ATOM      3  C   UNL     1      48.666   9.598  12.553  0.00  0.00    +0.000 C 
ATOM      4  C   UNL     1      47.728   9.248  13.711  0.00  0.00    +0.000 C 
ATOM      5  C   UNL     1      47.224   7.801  13.539  0.00  0.00    +0.000 C 
ATOM     26  C   UNL     1      48.503   6.945  13.652  0.00  0.00    +0.000 C 
ATOM     27  C   UNL     1      49.472   7.286  12.519  0.00  0.00    +0.000 C 
ENDBRANCH   6   5
ENDBRANCH  10   8
ENDBRANCH  11  10
TORSDOF 5
ENDMDL
MODEL 2
REMARK VINA RESULT:    -6.849      3.706      6.395
REMARK INTER + INTRA:          -8.832
REMARK INTER:                  -8.963
REMARK INTRA:                   0.131
REMARK UNBOUND:                 0.019
REMARK  Name = 
REMARK  7 active torsions:
REMARK  status: ('A' for Active; 'I' for Inactive)
REMARK    1  A    between atoms: C_1  and  N_2
REMARK    2  A    between atoms: C_5  and  N_6
REMARK    3  A    between atoms: N_6  and  C_7
REMARK    4  A    between atoms: C_8  and  C_10
REMARK    5  A    between atoms: C_10  and  N_11
REMARK    6  A    between atoms: C_12  and  C_13
REMARK    7  A    between atoms: C_19  and  C_20
REMARK                            x       y       z     vdW  Elec       q    Type
REMARK                         _______ _______ _______ _____ _____    ______ ____
ROOT
ATOM     11  N   UNL     1      46.259   5.920  12.391  0.00  0.00    +0.000 N 
ATOM     12  C   UNL     1      45.262   5.182  11.775  0.00  0.00    +0.000 A 
ATOM     16  C   UNL     1      44.335   6.084  11.287  0.00  0.00    +0.000 A 
ATOM     17  C   UNL     1      44.763   7.392  11.596  0.00  0.00    +0.000 A 
ATOM     18  C   UNL     1      44.260   8.682  11.381  0.00  0.00    +0.000 A 
ATOM     19  C   UNL     1      45.005   9.765  11.858  0.00  0.00    +0.000 A 
ATOM     23  C   UNL     1      46.209   9.519  12.499  0.00  0.00    +0.000 A 
ATOM     24  N   UNL     1      46.731   8.288  12.716  0.00  0.00    +0.000 NA
ATOM     25  C   UNL     1      45.974   7.264  12.270  0.00  0.00    +0.000 A 
ENDROOT
BRANCH  19  20
ATOM     20  C   UNL     1      44.570  11.169  11.683  0.00  0.00    +0.000 C 
ATOM     21  N   UNL     1      45.413  12.150  12.134  0.00  0.00    +0.000 N 
ATOM     22  O   UNL     1      43.509  11.448  11.139  0.00  0.00    +0.000 OA
ATOM     28  H   UNL     1      46.372  11.971  12.394  0.00  0.00    +0.000 HD
ATOM     29  H   UNL     1      45.145  13.104  11.941  0.00  0.00    +0.000 HD
ENDBRANCH  19  20
BRANCH  12  13
ATOM     13  C   UNL     1      45.012   3.687  11.593  0.00  0.00    +0.000 C 
ATOM     14  C   UNL     1      43.914   3.171  10.697  0.00  0.00    +0.000 C 
ATOM     15  C   UNL     1      43.811   2.980  12.173  0.00  0.00    +0.000 C 
ENDBRANCH  12  13
BRANCH  11  10
ATOM     10  C   UNL     1      47.412   5.360  13.092  0.00  0.00    +0.000 C 
BRANCH  10   8
ATOM      6  N   UNL     1      47.879   5.284  15.561  0.00  0.00    +0.000 N 
ATOM      7  C   UNL     1      48.747   6.448  15.360  0.00  0.00    +0.000 C 
ATOM      8  C   UNL     1      47.126   4.801  14.471  0.00  0.00    +0.000 C 
ATOM      9  O   UNL     1      46.283   3.904  14.554  0.00  0.00    +0.000 OA
BRANCH   6   5
ATOM      1  C   UNL     1      50.850   2.395  17.457  0.00  0.00    +0.000 C 
ATOM      2  N   UNL     1      49.624   3.105  17.828  0.00  0.00    +0.000 NA
ATOM      3  C   UNL     1      49.835   4.555  17.721  0.00  0.00    +0.000 C 
ATOM      4  C   UNL     1      48.547   5.332  18.001  0.00  0.00    +0.000 C 
ATOM      5  C   UNL     1      47.475   4.934  16.967  0.00  0.00    +0.000 C 
ATOM     26  C   UNL     1      47.228   3.437  17.243  0.00  0.00    +0.000 C 
ATOM     27  C   UNL     1      48.505   2.633  16.991  0.00  0.00    +0.000 C 
ENDBRANCH   6   5
ENDBRANCH  10   8
ENDBRANCH  11  10
TORSDOF 5
ENDMDL
MODEL 3
REMARK VINA RESULT:    -6.492      3.560      8.675
REMARK INTER + INTRA:          -8.371
REMARK INTER:                  -8.215
REMARK INTRA:                  -0.156
REMARK UNBOUND:                 0.019
REMARK  Name = 
REMARK  7 active torsions:
REMARK  status: ('A' for Active; 'I' for Inactive)
REMARK    1  A    between atoms: C_1  and  N_2
REMARK    2  A    between atoms: C_5  and  N_6
REMARK    3  A    between atoms: N_6  and  C_7
REMARK    4  A    between atoms: C_8  and  C_10
REMARK    5  A    between atoms: C_10  and  N_11
REMARK    6  A    between atoms: C_12  and  C_13
REMARK    7  A    between atoms: C_19  and  C_20
REMARK                            x       y       z     vdW  Elec       q    Type
REMARK                         _______ _______ _______ _____ _____    ______ ____
ROOT
ATOM     11  N   UNL     1      48.552   6.812  14.386  0.00  0.00    +0.000 N 
ATOM     12  C   UNL     1      49.017   8.106  14.543  0.00  0.00    +0.000 A 
ATOM     16  C   UNL     1      49.223   8.301  15.896  0.00  0.00    +0.000 A 
ATOM     17  C   UNL     1      48.890   7.115  16.584  0.00  0.00    +0.000 A 
ATOM     18  C   UNL     1      48.881   6.711  17.925  0.00  0.00    +0.000 A 
ATOM     19  C   UNL     1      48.469   5.406  18.215  0.00  0.00    +0.000 A 
ATOM     23  C   UNL     1      48.111   4.570  17.169  0.00  0.00    +0.000 A 
ATOM     24  N   UNL     1      48.116   4.922  15.862  0.00  0.00    +0.000 NA
ATOM     25  C   UNL     1      48.491   6.195  15.619  0.00  0.00    +0.000 A 
ENDROOT
BRANCH  19  20
ATOM     20  C   UNL     1      48.423   4.874  19.595  0.00  0.00    +0.000 C 
ATOM     21  N   UNL     1      48.518   3.516  19.750  0.00  0.00    +0.000 N 
ATOM     22  O   UNL     1      48.327   5.616  20.565  0.00  0.00    +0.000 OA
ATOM     28  H   UNL     1      48.803   2.898  19.004  0.00  0.00    +0.000 HD
ATOM     29  H   UNL     1      48.564   3.168  20.697  0.00  0.00    +0.000 HD
ENDBRANCH  19  20
BRANCH  12  13
ATOM     13  C   UNL     1      49.280   9.260  13.578  0.00  0.00    +0.000 C 
ATOM     14  C   UNL     1      49.164  10.699  14.012  0.00  0.00    +0.000 C 
ATOM     15  C   UNL     1      48.181  10.143  13.038  0.00  0.00    +0.000 C 
ENDBRANCH  12  13
BRANCH  11  10
ATOM     10  C   UNL     1      48.153   6.206  13.118  0.00  0.00    +0.000 C 
BRANCH  10   8
ATOM      6  N   UNL     1      45.892   5.161  12.776  0.00  0.00    +0.000 N 
ATOM      7  C   UNL     1      46.462   3.923  13.317  0.00  0.00    +0.000 C 
ATOM      8  C   UNL     1      46.683   6.328  12.772  0.00  0.00    +0.000 C 
ATOM      9  O   UNL     1      46.269   7.444  12.447  0.00  0.00    +0.000 OA
BRANCH   6   5
ATOM      1  C   UNL     1      44.278   2.446   9.491  0.00  0.00    +0.000 C 
ATOM      2  N   UNL     1      43.759   3.377  10.495  0.00  0.00    +0.000 NA
ATOM      3  C   UNL     1      44.129   2.917  11.841  0.00  0.00    +0.000 C 
ATOM      4  C   UNL     1      43.694   3.916  12.916  0.00  0.00    +0.000 C 
ATOM      5  C   UNL     1      44.395   5.266  12.671  0.00  0.00    +0.000 C 
ATOM     26  C   UNL     1      43.849   5.728  11.305  0.00  0.00    +0.000 C 
ATOM     27  C   UNL     1      44.249   4.739  10.209  0.00  0.00    +0.000 C 
ENDBRANCH   6   5
ENDBRANCH  10   8
ENDBRANCH  11  10
TORSDOF 5
ENDMDL
MODEL 4
REMARK VINA RESULT:    -6.211      3.114      4.875
REMARK INTER + INTRA:          -8.008
REMARK INTER:                  -7.401
REMARK INTRA:                  -0.607
REMARK UNBOUND:                 0.019
REMARK  Name = 
REMARK  7 active torsions:
REMARK  status: ('A' for Active; 'I' for Inactive)
REMARK    1  A    between atoms: C_1  and  N_2
REMARK    2  A    between atoms: C_5  and  N_6
REMARK    3  A    between atoms: N_6  and  C_7
REMARK    4  A    between atoms: C_8  and  C_10
REMARK    5  A    between atoms: C_10  and  N_11
REMARK    6  A    between atoms: C_12  and  C_13
REMARK    7  A    between atoms: C_19  and  C_20
REMARK                            x       y       z     vdW  Elec       q    Type
REMARK                         _______ _______ _______ _____ _____    ______ ____
ROOT
ATOM     11  N   UNL     1      46.496   7.177  13.151  0.00  0.00    +0.000 N 
ATOM     12  C   UNL     1      45.884   8.245  12.515  0.00  0.00    +0.000 A 
ATOM     16  C   UNL     1      44.941   7.716  11.654  0.00  0.00    +0.000 A 
ATOM     17  C   UNL     1      44.962   6.309  11.761  0.00  0.00    +0.000 A 
ATOM     18  C   UNL     1      44.268   5.254  11.155  0.00  0.00    +0.000 A 
ATOM     19  C   UNL     1      44.589   3.949  11.543  0.00  0.00    +0.000 A 
ATOM     23  C   UNL     1      45.556   3.760  12.517  0.00  0.00    +0.000 A 
ATOM     24  N   UNL     1      46.240   4.754  13.131  0.00  0.00    +0.000 NA
ATOM     25  C   UNL     1      45.928   5.999  12.714  0.00  0.00    +0.000 A 
ENDROOT
BRANCH  19  20
ATOM     20  C   UNL     1      43.917   2.761  10.971  0.00  0.00    +0.000 C 
ATOM     21  N   UNL     1      44.472   2.203   9.850  0.00  0.00    +0.000 N 
ATOM     22  O   UNL     1      42.918   2.279  11.489  0.00  0.00    +0.000 OA
ATOM     28  H   UNL     1      45.396   2.441   9.520  0.00  0.00    +0.000 HD
ATOM     29  H   UNL     1      44.053   1.348   9.512  0.00  0.00    +0.000 HD
ENDBRANCH  19  20
BRANCH  12  13
ATOM     13  C   UNL     1      46.078   9.758  12.566  0.00  0.00    +0.000 C 
ATOM     14  C   UNL     1      45.767  10.638  11.382  0.00  0.00    +0.000 C 
ATOM     15  C   UNL     1      47.182  10.468  11.821  0.00  0.00    +0.000 C 
ENDBRANCH  12  13
BRANCH  11  10
ATOM     10  C   UNL     1      47.595   7.282  14.107  0.00  0.00    +0.000 C 
BRANCH  10   8
ATOM      6  N   UNL     1      49.724   8.581  13.791  0.00  0.00    +0.000 N 
ATOM      7  C   UNL     1      49.237   9.493  14.830  0.00  0.00    +0.000 C 
ATOM      8  C   UNL     1      48.976   7.422  13.498  0.00  0.00    +0.000 C 
ATOM      9  O   UNL     1      49.347   6.533  12.728  0.00  0.00    +0.000 OA
BRANCH   6   5
ATOM      1  C   UNL     1      50.475  11.990  10.861  0.00  0.00    +0.000 C 
ATOM      2  N   UNL     1      51.243  10.956  11.559  0.00  0.00    +0.000 NA
ATOM      3  C   UNL     1      51.109  11.129  13.011  0.00  0.00    +0.000 C 
ATOM      4  C   UNL     1      51.814  10.008  13.778  0.00  0.00    +0.000 C 
ATOM      5  C   UNL     1      51.176   8.655  13.405  0.00  0.00    +0.000 C 
ATOM     26  C   UNL     1      51.480   8.503  11.900  0.00  0.00    +0.000 C 
ATOM     27  C   UNL     1      50.805   9.622  11.105  0.00  0.00    +0.000 C 
ENDBRANCH   6   5
ENDBRANCH  10   8
ENDBRANCH  11  10
TORSDOF 5
ENDMDL
MODEL 5
REMARK VINA RESULT:    -5.873      4.264      6.584
REMARK INTER + INTRA:          -7.571
REMARK INTER:                  -7.660
REMARK INTRA:                   0.089
REMARK UNBOUND:                 0.019
REMARK  Name = 
REMARK  7 active torsions:
REMARK  status: ('A' for Active; 'I' for Inactive)
REMARK    1  A    between atoms: C_1  and  N_2
REMARK    2  A    between atoms: C_5  and  N_6
REMARK    3  A    between atoms: N_6  and  C_7
REMARK    4  A    between atoms: C_8  and  C_10
REMARK    5  A    between atoms: C_10  and  N_11
REMARK    6  A    between atoms: C_12  and  C_13
REMARK    7  A    between atoms: C_19  and  C_20
REMARK                            x       y       z     vdW  Elec       q    Type
REMARK                         _______ _______ _______ _____ _____    ______ ____
ROOT
ATOM     11  N   UNL     1      47.639   5.068  14.725  0.00  0.00    +0.000 N 
ATOM     12  C   UNL     1      48.083   6.379  14.708  0.00  0.00    +0.000 A 
ATOM     16  C   UNL     1      47.440   7.010  13.660  0.00  0.00    +0.000 A 
ATOM     17  C   UNL     1      46.584   6.086  13.025  0.00  0.00    +0.000 A 
ATOM     18  C   UNL     1      45.707   6.126  11.934  0.00  0.00    +0.000 A 
ATOM     19  C   UNL     1      45.013   4.958  11.604  0.00  0.00    +0.000 A 
ATOM     23  C   UNL     1      45.207   3.824  12.379  0.00  0.00    +0.000 A 
ATOM     24  N   UNL     1      46.038   3.750  13.445  0.00  0.00    +0.000 NA
ATOM     25  C   UNL     1      46.713   4.885  13.719  0.00  0.00    +0.000 A 
ENDROOT
BRANCH  19  20
ATOM     20  C   UNL     1      44.061   4.889  10.474  0.00  0.00    +0.000 C 
ATOM     21  N   UNL     1      44.573   4.605   9.236  0.00  0.00    +0.000 N 
ATOM     22  O   UNL     1      42.859   5.056  10.638  0.00  0.00    +0.000 OA
ATOM     28  H   UNL     1      45.512   4.261   9.097  0.00  0.00    +0.000 HD
ATOM     29  H   UNL     1      43.908   4.483   8.485  0.00  0.00    +0.000 HD
ENDBRANCH  19  20
BRANCH  12  13
ATOM     13  C   UNL     1      49.092   7.164  15.542  0.00  0.00    +0.000 C 
ATOM     14  C   UNL     1      49.688   8.460  15.051  0.00  0.00    +0.000 C 
ATOM     15  C   UNL     1      50.556   7.255  15.185  0.00  0.00    +0.000 C 
ENDBRANCH  12  13
BRANCH  11  10
ATOM     10  C   UNL     1      48.105   4.030  15.641  0.00  0.00    +0.000 C 
BRANCH  10   8
ATOM      6  N   UNL     1      48.731   4.300  18.061  0.00  0.00    +0.000 N 
ATOM      7  C   UNL     1      50.122   4.415  17.614  0.00  0.00    +0.000 C 
ATOM      8  C   UNL     1      47.710   4.219  17.093  0.00  0.00    +0.000 C 
ATOM      9  O   UNL     1      46.504   4.233  17.353  0.00  0.00    +0.000 OA
BRANCH   6   5
ATOM      1  C   UNL     1      50.234   8.515  18.920  0.00  0.00    +0.000 C 
ATOM      2  N   UNL     1      49.498   7.453  19.610  0.00  0.00    +0.000 NA
ATOM      3  C   UNL     1      48.259   7.150  18.882  0.00  0.00    +0.000 C 
ATOM      4  C   UNL     1      47.509   5.974  19.513  0.00  0.00    +0.000 C 
ATOM      5  C   UNL     1      48.401   4.718  19.468  0.00  0.00    +0.000 C 
ATOM     26  C   UNL     1      49.605   5.083  20.360  0.00  0.00    +0.000 C 
ATOM     27  C   UNL     1      50.366   6.270  19.767  0.00  0.00    +0.000 C 
ENDBRANCH   6   5
ENDBRANCH  10   8
ENDBRANCH  11  10
TORSDOF 5
ENDMDL
MODEL 6
REMARK VINA RESULT:    -5.845      4.080      6.708
REMARK INTER + INTRA:          -7.535
REMARK INTER:                  -7.758
REMARK INTRA:                   0.223
REMARK UNBOUND:                 0.019
REMARK  Name = 
REMARK  7 active torsions:
REMARK  status: ('A' for Active; 'I' for Inactive)
REMARK    1  A    between atoms: C_1  and  N_2
REMARK    2  A    between atoms: C_5  and  N_6
REMARK    3  A    between atoms: N_6  and  C_7
REMARK    4  A    between atoms: C_8  and  C_10
REMARK    5  A    between atoms: C_10  and  N_11
REMARK    6  A    between atoms: C_12  and  C_13
REMARK    7  A    between atoms: C_19  and  C_20
REMARK                            x       y       z     vdW  Elec       q    Type
REMARK                         _______ _______ _______ _____ _____    ______ ____
ROOT
ATOM     11  N   UNL     1      48.349   6.963  13.811  0.00  0.00    +0.000 N 
ATOM     12  C   UNL     1      48.194   8.007  12.913  0.00  0.00    +0.000 A 
ATOM     16  C   UNL     1      47.221   7.622  12.011  0.00  0.00    +0.000 A 
ATOM     17  C   UNL     1      46.761   6.334  12.355  0.00  0.00    +0.000 A 
ATOM     18  C   UNL     1      45.820   5.439  11.830  0.00  0.00    +0.000 A 
ATOM     19  C   UNL     1      45.648   4.212  12.479  0.00  0.00    +0.000 A 
ATOM     23  C   UNL     1      46.395   3.946  13.616  0.00  0.00    +0.000 A 
ATOM     24  N   UNL     1      47.306   4.789  14.157  0.00  0.00    +0.000 NA
ATOM     25  C   UNL     1      47.469   5.951  13.491  0.00  0.00    +0.000 A 
ENDROOT
BRANCH  19  20
ATOM     20  C   UNL     1      44.680   3.194  12.013  0.00  0.00    +0.000 C 
ATOM     21  N   UNL     1      44.818   2.735  10.730  0.00  0.00    +0.000 N 
ATOM     22  O   UNL     1      43.803   2.760  12.749  0.00  0.00    +0.000 OA
ATOM     28  H   UNL     1      45.639   2.911  10.170  0.00  0.00    +0.000 HD
ATOM     29  H   UNL     1      44.203   1.985  10.446  0.00  0.00    +0.000 HD
ENDBRANCH  19  20
BRANCH  12  13
ATOM     13  C   UNL     1      48.875   9.362  12.740  0.00  0.00    +0.000 C 
ATOM     14  C   UNL     1      48.891  10.078  11.413  0.00  0.00    +0.000 C 
ATOM     15  C   UNL     1      50.164   9.540  11.975  0.00  0.00    +0.000 C 
ENDBRANCH  12  13
BRANCH  11  10
ATOM     10  C   UNL     1      49.319   6.926  14.903  0.00  0.00    +0.000 C 
BRANCH  10   8
ATOM      6  N   UNL     1      48.564   6.478  17.258  0.00  0.00    +0.000 N 
ATOM      7  C   UNL     1      49.007   5.094  17.061  0.00  0.00    +0.000 C 
ATOM      8  C   UNL     1      48.810   7.422  16.241  0.00  0.00    +0.000 C 
ATOM      9  O   UNL     1      48.584   8.630  16.347  0.00  0.00    +0.000 OA
BRANCH   6   5
ATOM      1  C   UNL     1      51.722   4.928  20.155  0.00  0.00    +0.000 C 
ATOM      2  N   UNL     1      50.524   5.769  20.189  0.00  0.00    +0.000 NA
ATOM      3  C   UNL     1      50.707   6.934  19.313  0.00  0.00    +0.000 C 
ATOM      4  C   UNL     1      49.438   7.787  19.240  0.00  0.00    +0.000 C 
ATOM      5  C   UNL     1      48.287   6.940  18.663  0.00  0.00    +0.000 C 
ATOM     26  C   UNL     1      48.083   5.825  19.709  0.00  0.00    +0.000 C 
ATOM     27  C   UNL     1      49.343   4.965  19.822  0.00  0.00    +0.000 C 
ENDBRANCH   6   5
ENDBRANCH  10   8
ENDBRANCH  11  10
TORSDOF 5
ENDMDL
MODEL 7
REMARK VINA RESULT:    -5.786      3.609      6.042
REMARK INTER + INTRA:          -7.459
REMARK INTER:                  -7.505
REMARK INTRA:                   0.046
REMARK UNBOUND:                 0.019
REMARK  Name = 
REMARK  7 active torsions:
REMARK  status: ('A' for Active; 'I' for Inactive)
REMARK    1  A    between atoms: C_1  and  N_2
REMARK    2  A    between atoms: C_5  and  N_6
REMARK    3  A    between atoms: N_6  and  C_7
REMARK    4  A    between atoms: C_8  and  C_10
REMARK    5  A    between atoms: C_10  and  N_11
REMARK    6  A    between atoms: C_12  and  C_13
REMARK    7  A    between atoms: C_19  and  C_20
REMARK                            x       y       z     vdW  Elec       q    Type
REMARK                         _______ _______ _______ _____ _____    ______ ____
ROOT
ATOM     11  N   UNL     1      47.696   7.017  13.395  0.00  0.00    +0.000 N 
ATOM     12  C   UNL     1      47.214   8.192  12.844  0.00  0.00    +0.000 A 
ATOM     16  C   UNL     1      46.079   7.865  12.125  0.00  0.00    +0.000 A 
ATOM     17  C   UNL     1      45.851   6.477  12.237  0.00  0.00    +0.000 A 
ATOM     18  C   UNL     1      44.895   5.582  11.741  0.00  0.00    +0.000 A 
ATOM     19  C   UNL     1      45.016   4.232  12.089  0.00  0.00    +0.000 A 
ATOM     23  C   UNL     1      46.056   3.847  12.920  0.00  0.00    +0.000 A 
ATOM     24  N   UNL     1      46.992   4.684  13.425  0.00  0.00    +0.000 NA
ATOM     25  C   UNL     1      46.864   5.973  13.048  0.00  0.00    +0.000 A 
ENDROOT
BRANCH  19  20
ATOM     20  C   UNL     1      44.062   3.202  11.623  0.00  0.00    +0.000 C 
ATOM     21  N   UNL     1      43.670   2.252  12.528  0.00  0.00    +0.000 N 
ATOM     22  O   UNL     1      43.622   3.206  10.480  0.00  0.00    +0.000 OA
ATOM     28  H   UNL     1      43.845   2.334  13.519  0.00  0.00    +0.000 HD
ATOM     29  H   UNL     1      42.960   1.600  12.225  0.00  0.00    +0.000 HD
ENDBRANCH  19  20
BRANCH  12  13
ATOM     13  C   UNL     1      47.693   9.641  12.858  0.00  0.00    +0.000 C 
ATOM     14  C   UNL     1      47.513  10.547  11.666  0.00  0.00    +0.000 C 
ATOM     15  C   UNL     1      48.885  10.118  12.065  0.00  0.00    +0.000 C 
ENDBRANCH  12  13
BRANCH  11  10
ATOM     10  C   UNL     1      48.917   6.895  14.188  0.00  0.00    +0.000 C 
BRANCH  10   8
ATOM      6  N   UNL     1      48.775   7.611  16.594  0.00  0.00    +0.000 N 
ATOM      7  C   UNL     1      48.823   8.994  16.111  0.00  0.00    +0.000 C 
ATOM      8  C   UNL     1      48.710   6.564  15.653  0.00  0.00    +0.000 C 
ATOM      9  O   UNL     1      48.553   5.376  15.947  0.00  0.00    +0.000 OA
BRANCH   6   5
ATOM      1  C   UNL     1      52.251   8.207  19.480  0.00  0.00    +0.000 C 
ATOM      2  N   UNL     1      50.826   7.872  19.536  0.00  0.00    +0.000 NA
ATOM      3  C   UNL     1      50.034   8.967  18.961  0.00  0.00    +0.000 C 
ATOM      4  C   UNL     1      48.545   8.615  18.906  0.00  0.00    +0.000 C 
ATOM      5  C   UNL     1      48.348   7.372  18.016  0.00  0.00    +0.000 C 
ATOM     26  C   UNL     1      49.101   6.254  18.765  0.00  0.00    +0.000 C 
ATOM     27  C   UNL     1      50.592   6.585  18.855  0.00  0.00    +0.000 C 
ENDBRANCH   6   5
ENDBRANCH  10   8
ENDBRANCH  11  10
TORSDOF 5
ENDMDL
MODEL 8
REMARK VINA RESULT:    -5.635      3.821      6.388
REMARK INTER + INTRA:          -7.264
REMARK INTER:                  -7.789
REMARK INTRA:                   0.525
REMARK UNBOUND:                 0.019
REMARK  Name = 
REMARK  7 active torsions:
REMARK  status: ('A' for Active; 'I' for Inactive)
REMARK    1  A    between atoms: C_1  and  N_2
REMARK    2  A    between atoms: C_5  and  N_6
REMARK    3  A    between atoms: N_6  and  C_7
REMARK    4  A    between atoms: C_8  and  C_10
REMARK    5  A    between atoms: C_10  and  N_11
REMARK    6  A    between atoms: C_12  and  C_13
REMARK    7  A    between atoms: C_19  and  C_20
REMARK                            x       y       z     vdW  Elec       q    Type
REMARK                         _______ _______ _______ _____ _____    ______ ____
ROOT
ATOM     11  N   UNL     1      47.596   6.968  13.669  0.00  0.00    +0.000 N 
ATOM     12  C   UNL     1      48.396   7.621  12.746  0.00  0.00    +0.000 A 
ATOM     16  C   UNL     1      47.901   7.313  11.493  0.00  0.00    +0.000 A 
ATOM     17  C   UNL     1      46.781   6.468  11.639  0.00  0.00    +0.000 A 
ATOM     18  C   UNL     1      45.891   5.834  10.763  0.00  0.00    +0.000 A 
ATOM     19  C   UNL     1      44.873   5.049  11.314  0.00  0.00    +0.000 A 
ATOM     23  C   UNL     1      44.778   4.950  12.693  0.00  0.00    +0.000 A 
ATOM     24  N   UNL     1      45.613   5.555  13.571  0.00  0.00    +0.000 NA
ATOM     25  C   UNL     1      46.600   6.281  13.006  0.00  0.00    +0.000 A 
ENDROOT
BRANCH  19  20
ATOM     20  C   UNL     1      43.878   4.337  10.483  0.00  0.00    +0.000 C 
ATOM     21  N   UNL     1      43.942   4.521   9.127  0.00  0.00    +0.000 N 
ATOM     22  O   UNL     1      43.041   3.594  10.981  0.00  0.00    +0.000 OA
ATOM     28  H   UNL     1      44.732   4.952   8.670  0.00  0.00    +0.000 HD
ATOM     29  H   UNL     1      43.310   3.971   8.563  0.00  0.00    +0.000 HD
ENDBRANCH  19  20
BRANCH  12  13
ATOM     13  C   UNL     1      49.635   8.506  12.860  0.00  0.00    +0.000 C 
ATOM     14  C   UNL     1      50.876   8.239  12.047  0.00  0.00    +0.000 C 
ATOM     15  C   UNL     1      50.910   8.049  13.526  0.00  0.00    +0.000 C 
ENDBRANCH  12  13
BRANCH  11  10
ATOM     10  C   UNL     1      47.797   6.975  15.116  0.00  0.00    +0.000 C 
BRANCH  10   8
ATOM      6  N   UNL     1      48.534   5.589  17.080  0.00  0.00    +0.000 N 
ATOM      7  C   UNL     1      48.455   6.813  17.882  0.00  0.00    +0.000 C 
ATOM      8  C   UNL     1      48.107   5.628  15.737  0.00  0.00    +0.000 C 
ATOM      9  O   UNL     1      48.024   4.637  15.007  0.00  0.00    +0.000 OA
BRANCH   6   5
ATOM      1  C   UNL     1      52.540   5.154  19.207  0.00  0.00    +0.000 C 
ATOM      2  N   UNL     1      51.300   4.392  19.041  0.00  0.00    +0.000 NA
ATOM      3  C   UNL     1      50.166   5.165  19.565  0.00  0.00    +0.000 C 
ATOM      4  C   UNL     1      48.836   4.448  19.319  0.00  0.00    +0.000 C 
ATOM      5  C   UNL     1      48.625   4.272  17.802  0.00  0.00    +0.000 C 
ATOM     26  C   UNL     1      49.782   3.348  17.369  0.00  0.00    +0.000 C 
ATOM     27  C   UNL     1      51.129   4.027  17.622  0.00  0.00    +0.000 C 
ENDBRANCH   6   5
ENDBRANCH  10   8
ENDBRANCH  11  10
TORSDOF 5
ENDMDL
MODEL 9
REMARK VINA RESULT:    -5.437      3.495      6.357
REMARK INTER + INTRA:          -7.007
REMARK INTER:                  -6.715
REMARK INTRA:                  -0.292
REMARK UNBOUND:                 0.019
REMARK  Name = 
REMARK  7 active torsions:
REMARK  status: ('A' for Active; 'I' for Inactive)
REMARK    1  A    between atoms: C_1  and  N_2
REMARK    2  A    between atoms: C_5  and  N_6
REMARK    3  A    between atoms: N_6  and  C_7
REMARK    4  A    between atoms: C_8  and  C_10
REMARK    5  A    between atoms: C_10  and  N_11
REMARK    6  A    between atoms: C_12  and  C_13
REMARK    7  A    between atoms: C_19  and  C_20
REMARK                            x       y       z     vdW  Elec       q    Type
REMARK                         _______ _______ _______ _____ _____    ______ ____
ROOT
ATOM     11  N   UNL     1      47.103   6.280  12.539  0.00  0.00    +0.000 N 
ATOM     12  C   UNL     1      45.964   5.562  12.213  0.00  0.00    +0.000 A 
ATOM     16  C   UNL     1      45.703   4.717  13.275  0.00  0.00    +0.000 A 
ATOM     17  C   UNL     1      46.682   4.916  14.270  0.00  0.00    +0.000 A 
ATOM     18  C   UNL     1      46.948   4.366  15.531  0.00  0.00    +0.000 A 
ATOM     19  C   UNL     1      48.056   4.845  16.237  0.00  0.00    +0.000 A 
ATOM     23  C   UNL     1      48.824   5.851  15.672  0.00  0.00    +0.000 A 
ATOM     24  N   UNL     1      48.593   6.413  14.462  0.00  0.00    +0.000 NA
ATOM     25  C   UNL     1      47.534   5.908  13.795  0.00  0.00    +0.000 A 
ENDROOT
BRANCH  19  20
ATOM     20  C   UNL     1      48.427   4.337  17.576  0.00  0.00    +0.000 C 
ATOM     21  N   UNL     1      47.452   4.325  18.538  0.00  0.00    +0.000 N 
ATOM     22  O   UNL     1      49.555   3.923  17.814  0.00  0.00    +0.000 OA
ATOM     28  H   UNL     1      46.474   4.460  18.327  0.00  0.00    +0.000 HD
ATOM     29  H   UNL     1      47.692   3.905  19.424  0.00  0.00    +0.000 HD
ENDBRANCH  19  20
BRANCH  12  13
ATOM     13  C   UNL     1      45.056   5.519  10.987  0.00  0.00    +0.000 C 
ATOM     14  C   UNL     1      44.463   4.226  10.486  0.00  0.00    +0.000 C 
ATOM     15  C   UNL     1      45.491   4.931   9.666  0.00  0.00    +0.000 C 
ENDBRANCH  12  13
BRANCH  11  10
ATOM     10  C   UNL     1      47.764   7.252  11.672  0.00  0.00    +0.000 C 
BRANCH  10   8
ATOM      6  N   UNL     1      49.254   9.135  12.417  0.00  0.00    +0.000 N 
ATOM      7  C   UNL     1      50.367   8.401  11.805  0.00  0.00    +0.000 C 
ATOM      8  C   UNL     1      47.945   8.635  12.265  0.00  0.00    +0.000 C 
ATOM      9  O   UNL     1      46.929   9.228  12.637  0.00  0.00    +0.000 OA
BRANCH   6   5
ATOM      1  C   UNL     1      51.397   9.529  16.420  0.00  0.00    +0.000 C 
ATOM      2  N   UNL     1      50.877  10.402  15.365  0.00  0.00    +0.000 NA
ATOM      3  C   UNL     1      51.550  10.105  14.094  0.00  0.00    +0.000 C 
ATOM      4  C   UNL     1      50.964  10.925  12.942  0.00  0.00    +0.000 C 
ATOM      5  C   UNL     1      49.471  10.579  12.777  0.00  0.00    +0.000 C 
ATOM     26  C   UNL     1      48.832  11.044  14.102  0.00  0.00    +0.000 C 
ATOM     27  C   UNL     1      49.412  10.256  15.278  0.00  0.00    +0.000 C 
ENDBRANCH   6   5
ENDBRANCH  10   8
ENDBRANCH  11  10
TORSDOF 5
ENDMDL
