MODEL 1
REMARK VINA RESULT:    -7.400      0.000      0.000
REMARK INTER + INTRA:         -16.272
REMARK INTER:                 -13.023
REMARK INTRA:                  -3.249
REMARK UNBOUND:                -3.249
REMARK  Name = 
REMARK  14 active torsions:
REMARK  status: ('A' for Active; 'I' for Inactive)
REMARK    1  A    between atoms: C_2  and  C_3
REMARK    2  A    between atoms: C_3  and  C_4
REMARK    3  A    between atoms: C_4  and  C_5
REMARK    4  A    between atoms: C_5  and  C_6
REMARK    5  A    between atoms: C_6  and  C_7
REMARK    6  A    between atoms: C_7  and  N_8
REMARK    7  A    between atoms: C_9  and  C_11
REMARK    8  A    between atoms: C_15  and  O_16
REMARK    9  A    between atoms: N_18  and  O_19
REMARK   10  A    between atoms: N_20  and  C_21
REMARK   11  A    between atoms: C_21  and  C_22
REMARK   12  A    between atoms: C_25  and  C_26
REMARK   13  A    between atoms: C_26  and  N_27
REMARK   14  A    between atoms: C_28  and  C_30
REMARK                            x       y       z     vdW  Elec       q    Type
REMARK                         _______ _______ _______ _____ _____    ______ ____
ROOT
ATOM      1  O   UNL     1      50.795   9.436  18.559  0.00  0.00    +0.000 OA
ATOM      2  C   UNL     1      50.402   8.367  19.014  0.00  0.00    +0.000 C 
ATOM     20  N   UNL     1      50.549   7.161  18.367  0.00  0.00    +0.000 N 
ATOM     45  H   UNL     1      50.121   6.334  18.758  0.00  0.00    +0.000 HD
ENDROOT
BRANCH   2   3
ATOM      3  C   UNL     1      49.736   8.264  20.378  0.00  0.00    +0.000 C 
BRANCH   3   4
ATOM      4  C   UNL     1      48.240   8.567  20.299  0.00  0.00    +0.000 C 
BRANCH   4   5
ATOM      5  C   UNL     1      47.425   7.596  21.160  0.00  0.00    +0.000 C 
BRANCH   5   6
ATOM      6  C   UNL     1      48.279   6.934  22.246  0.00  0.00    +0.000 C 
BRANCH   6   7
ATOM      7  C   UNL     1      48.144   5.411  22.204  0.00  0.00    +0.000 C 
BRANCH   7   8
ATOM      8  N   UNL     1      47.928   4.921  20.860  0.00  0.00    +0.000 N 
ATOM      9  C   UNL     1      48.949   4.621  19.998  0.00  0.00    +0.000 C 
ATOM     10  O   UNL     1      50.134   4.735  20.303  0.00  0.00    +0.000 OA
ATOM     42  H   UNL     1      46.982   4.837  20.499  0.00  0.00    +0.000 HD
BRANCH   9  11
ATOM     11  C   UNL     1      48.520   4.144  18.628  0.00  0.00    +0.000 A 
ATOM     12  C   UNL     1      49.385   3.289  18.044  0.00  0.00    +0.000 A 
ATOM     13  C   UNL     1      49.066   2.780  16.686  0.00  0.00    +0.000 A 
ATOM     14  O   UNL     1      49.825   2.021  16.088  0.00  0.00    +0.000 OA
ATOM     15  C   UNL     1      47.789   3.214  16.054  0.00  0.00    +0.000 A 
ATOM     17  C   UNL     1      47.018   4.059  16.745  0.00  0.00    +0.000 A 
ATOM     18  N   UNL     1      47.326   4.540  18.003  0.00  0.00    +0.000 N 
BRANCH  15  16
ATOM     16  O   UNL     1      47.469   2.755  14.796  0.00  0.00    +0.000 OA
ATOM     43  H   UNL     1      46.953   3.482  14.386  0.00  0.00    +0.000 HD
ENDBRANCH  15  16
BRANCH  18  19
ATOM     19  O   UNL     1      46.509   5.531  18.544  0.00  0.00    +0.000 OA
ATOM     44  H   UNL     1      47.142   6.143  18.966  0.00  0.00    +0.000 HD
ENDBRANCH  18  19
ENDBRANCH   9  11
ENDBRANCH   7   8
ENDBRANCH   6   7
ENDBRANCH   5   6
ENDBRANCH   4   5
ENDBRANCH   3   4
ENDBRANCH   2   3
BRANCH  20  21
ATOM     21  C   UNL     1      51.160   7.036  17.056  0.00  0.00    +0.000 C 
BRANCH  21  22
ATOM     22  C   UNL     1      50.198   7.473  15.978  0.00  0.00    +0.000 A 
ATOM     23  C   UNL     1      49.116   6.655  15.632  0.00  0.00    +0.000 A 
ATOM     24  C   UNL     1      48.296   6.974  14.545  0.00  0.00    +0.000 A 
ATOM     25  C   UNL     1      48.558   8.107  13.763  0.00  0.00    +0.000 A 
ATOM     40  C   UNL     1      49.596   8.968  14.155  0.00  0.00    +0.000 A 
ATOM     41  C   UNL     1      50.413   8.651  15.248  0.00  0.00    +0.000 A 
BRANCH  25  26
ATOM     26  C   UNL     1      47.890   8.264  12.419  0.00  0.00    +0.000 C 
BRANCH  26  27
ATOM     27  N   UNL     1      47.537   7.060  11.707  0.00  0.00    +0.000 N 
ATOM     28  C   UNL     1      46.196   6.870  11.435  0.00  0.00    +0.000 C 
ATOM     29  O   UNL     1      45.368   7.730  11.737  0.00  0.00    +0.000 OA
ATOM     46  H   UNL     1      48.246   6.377  11.451  0.00  0.00    +0.000 HD
BRANCH  28  30
ATOM     30  C   UNL     1      45.747   5.613  10.825  0.00  0.00    +0.000 A 
ATOM     31  C   UNL     1      45.792   5.480   9.440  0.00  0.00    +0.000 A 
ATOM     32  S   UNL     1      45.093   4.038   8.863  0.00  0.00    +0.000 S 
ATOM     33  C   UNL     1      44.574   3.622  10.427  0.00  0.00    +0.000 A 
ATOM     34  N   UNL     1      43.679   2.620  10.625  0.00  0.00    +0.000 NA
ATOM     35  C   UNL     1      43.309   2.481  11.855  0.00  0.00    +0.000 A 
ATOM     36  N   UNL     1      43.834   3.180  12.914  0.00  0.00    +0.000 N 
ATOM     37  C   UNL     1      44.836   4.110  12.768  0.00  0.00    +0.000 A 
ATOM     38  O   UNL     1      45.431   4.587  13.729  0.00  0.00    +0.000 OA
ATOM     39  C   UNL     1      45.119   4.453  11.393  0.00  0.00    +0.000 A 
ATOM     47  H   UNL     1      43.573   2.947  13.861  0.00  0.00    +0.000 HD
ENDBRANCH  28  30
ENDBRANCH  26  27
ENDBRANCH  25  26
ENDBRANCH  21  22
ENDBRANCH  20  21
TORSDOF 14
ENDMDL
MODEL 2
REMARK VINA RESULT:    -7.221      5.356      8.858
REMARK INTER + INTRA:         -15.958
REMARK INTER:                 -13.881
REMARK INTRA:                  -2.077
REMARK UNBOUND:                -3.249
REMARK  Name = 
REMARK  14 active torsions:
REMARK  status: ('A' for Active; 'I' for Inactive)
REMARK    1  A    between atoms: C_2  and  C_3
REMARK    2  A    between atoms: C_3  and  C_4
REMARK    3  A    between atoms: C_4  and  C_5
REMARK    4  A    between atoms: C_5  and  C_6
REMARK    5  A    between atoms: C_6  and  C_7
REMARK    6  A    between atoms: C_7  and  N_8
REMARK    7  A    between atoms: C_9  and  C_11
REMARK    8  A    between atoms: C_15  and  O_16
REMARK    9  A    between atoms: N_18  and  O_19
REMARK   10  A    between atoms: N_20  and  C_21
REMARK   11  A    between atoms: C_21  and  C_22
REMARK   12  A    between atoms: C_25  and  C_26
REMARK   13  A    between atoms: C_26  and  N_27
REMARK   14  A    between atoms: C_28  and  C_30
REMARK                            x       y       z     vdW  Elec       q    Type
REMARK                         _______ _______ _______ _____ _____    ______ ____
ROOT
ATOM      1  O   UNL     1      47.905   5.136  14.616  0.00  0.00    +0.000 OA
ATOM      2  C   UNL     1      47.131   5.730  13.871  0.00  0.00    +0.000 C 
ATOM     20  N   UNL     1      47.165   7.090  13.661  0.00  0.00    +0.000 N 
ATOM     45  H   UNL     1      46.441   7.523  13.106  0.00  0.00    +0.000 HD
ENDROOT
BRANCH   2   3
ATOM      3  C   UNL     1      46.066   5.002  13.065  0.00  0.00    +0.000 C 
BRANCH   3   4
ATOM      4  C   UNL     1      44.824   5.869  12.859  0.00  0.00    +0.000 C 
BRANCH   4   5
ATOM      5  C   UNL     1      43.541   5.034  12.922  0.00  0.00    +0.000 C 
BRANCH   5   6
ATOM      6  C   UNL     1      43.833   3.531  12.951  0.00  0.00    +0.000 C 
BRANCH   6   7
ATOM      7  C   UNL     1      43.226   2.825  11.738  0.00  0.00    +0.000 C 
BRANCH   7   8
ATOM      8  N   UNL     1      44.215   2.547  10.718  0.00  0.00    +0.000 N 
ATOM      9  C   UNL     1      44.475   3.395   9.675  0.00  0.00    +0.000 C 
ATOM     10  O   UNL     1      43.894   4.467   9.526  0.00  0.00    +0.000 OA
ATOM     42  H   UNL     1      44.716   1.663  10.729  0.00  0.00    +0.000 HD
BRANCH   9  11
ATOM     11  C   UNL     1      45.529   2.917   8.700  0.00  0.00    +0.000 A 
ATOM     12  C   UNL     1      45.648   1.575   8.628  0.00  0.00    +0.000 A 
ATOM     13  C   UNL     1      46.672   1.006   7.716  0.00  0.00    +0.000 A 
ATOM     14  O   UNL     1      46.852  -0.207   7.625  0.00  0.00    +0.000 OA
ATOM     15  C   UNL     1      47.491   1.947   6.901  0.00  0.00    +0.000 A 
ATOM     17  C   UNL     1      47.265   3.255   7.063  0.00  0.00    +0.000 A 
ATOM     18  N   UNL     1      46.319   3.779   7.923  0.00  0.00    +0.000 N 
BRANCH  15  16
ATOM     16  O   UNL     1      48.446   1.444   6.047  0.00  0.00    +0.000 OA
ATOM     43  H   UNL     1      48.990   2.221   5.793  0.00  0.00    +0.000 HD
ENDBRANCH  15  16
BRANCH  18  19
ATOM     19  O   UNL     1      46.294   5.160   8.104  0.00  0.00    +0.000 OA
ATOM     44  H   UNL     1      46.726   5.285   8.972  0.00  0.00    +0.000 HD
ENDBRANCH  18  19
ENDBRANCH   9  11
ENDBRANCH   7   8
ENDBRANCH   6   7
ENDBRANCH   5   6
ENDBRANCH   4   5
ENDBRANCH   3   4
ENDBRANCH   2   3
BRANCH  20  21
ATOM     21  C   UNL     1      48.106   7.970  14.330  0.00  0.00    +0.000 C 
BRANCH  21  22
ATOM     22  C   UNL     1      49.357   8.136  13.502  0.00  0.00    +0.000 A 
ATOM     23  C   UNL     1      50.597   8.297  14.133  0.00  0.00    +0.000 A 
ATOM     24  C   UNL     1      51.746   8.592  13.391  0.00  0.00    +0.000 A 
ATOM     25  C   UNL     1      51.672   8.758  12.002  0.00  0.00    +0.000 A 
ATOM     40  C   UNL     1      50.445   8.523  11.360  0.00  0.00    +0.000 A 
ATOM     41  C   UNL     1      49.297   8.221  12.104  0.00  0.00    +0.000 A 
BRANCH  25  26
ATOM     26  C   UNL     1      52.823   9.392  11.259  0.00  0.00    +0.000 C 
BRANCH  26  27
ATOM     27  N   UNL     1      53.425   8.633  10.190  0.00  0.00    +0.000 N 
ATOM     28  C   UNL     1      53.145   9.044   8.901  0.00  0.00    +0.000 C 
ATOM     29  O   UNL     1      52.467  10.052   8.699  0.00  0.00    +0.000 OA
ATOM     46  H   UNL     1      53.999   7.816  10.388  0.00  0.00    +0.000 HD
BRANCH  28  30
ATOM     30  C   UNL     1      53.619   8.249   7.763  0.00  0.00    +0.000 A 
ATOM     31  C   UNL     1      53.840   8.880   6.543  0.00  0.00    +0.000 A 
ATOM     32  S   UNL     1      54.232   7.813   5.274  0.00  0.00    +0.000 S 
ATOM     33  C   UNL     1      53.969   6.467   6.279  0.00  0.00    +0.000 A 
ATOM     34  N   UNL     1      53.878   5.214   5.763  0.00  0.00    +0.000 NA
ATOM     35  C   UNL     1      53.584   4.307   6.634  0.00  0.00    +0.000 A 
ATOM     36  N   UNL     1      53.483   4.524   7.986  0.00  0.00    +0.000 N 
ATOM     37  C   UNL     1      53.698   5.754   8.560  0.00  0.00    +0.000 A 
ATOM     38  O   UNL     1      53.796   5.902   9.775  0.00  0.00    +0.000 OA
ATOM     39  C   UNL     1      53.808   6.834   7.605  0.00  0.00    +0.000 A 
ATOM     47  H   UNL     1      53.353   3.750   8.620  0.00  0.00    +0.000 HD
ENDBRANCH  28  30
ENDBRANCH  26  27
ENDBRANCH  25  26
ENDBRANCH  21  22
ENDBRANCH  20  21
TORSDOF 14
ENDMDL
MODEL 3
REMARK VINA RESULT:    -7.068      2.080      3.634
REMARK INTER + INTRA:         -15.688
REMARK INTER:                 -12.912
REMARK INTRA:                  -2.776
REMARK UNBOUND:                -3.249
REMARK  Name = 
REMARK  14 active torsions:
REMARK  status: ('A' for Active; 'I' for Inactive)
REMARK    1  A    between atoms: C_2  and  C_3
REMARK    2  A    between atoms: C_3  and  C_4
REMARK    3  A    between atoms: C_4  and  C_5
REMARK    4  A    between atoms: C_5  and  C_6
REMARK    5  A    between atoms: C_6  and  C_7
REMARK    6  A    between atoms: C_7  and  N_8
REMARK    7  A    between atoms: C_9  and  C_11
REMARK    8  A    between atoms: C_15  and  O_16
REMARK    9  A    between atoms: N_18  and  O_19
REMARK   10  A    between atoms: N_20  and  C_21
REMARK   11  A    between atoms: C_21  and  C_22
REMARK   12  A    between atoms: C_25  and  C_26
REMARK   13  A    between atoms: C_26  and  N_27
REMARK   14  A    between atoms: C_28  and  C_30
REMARK                            x       y       z     vdW  Elec       q    Type
REMARK                         _______ _______ _______ _____ _____    ______ ____
ROOT
ATOM      1  O   UNL     1      54.549   6.469  17.828  0.00  0.00    +0.000 OA
ATOM      2  C   UNL     1      53.478   5.880  17.712  0.00  0.00    +0.000 C 
ATOM     20  N   UNL     1      52.570   6.137  16.710  0.00  0.00    +0.000 N 
ATOM     45  H   UNL     1      51.670   5.679  16.729  0.00  0.00    +0.000 HD
ENDROOT
BRANCH   2   3
ATOM      3  C   UNL     1      53.062   4.765  18.660  0.00  0.00    +0.000 C 
BRANCH   3   4
ATOM      4  C   UNL     1      54.116   3.660  18.728  0.00  0.00    +0.000 C 
BRANCH   4   5
ATOM      5  C   UNL     1      53.911   2.622  17.619  0.00  0.00    +0.000 C 
BRANCH   5   6
ATOM      6  C   UNL     1      53.477   1.263  18.177  0.00  0.00    +0.000 C 
BRANCH   6   7
ATOM      7  C   UNL     1      52.118   0.842  17.616  0.00  0.00    +0.000 C 
BRANCH   7   8
ATOM      8  N   UNL     1      51.097   1.839  17.860  0.00  0.00    +0.000 N 
ATOM      9  C   UNL     1      50.109   2.136  16.960  0.00  0.00    +0.000 C 
ATOM     10  O   UNL     1      50.002   1.570  15.876  0.00  0.00    +0.000 OA
ATOM     42  H   UNL     1      51.127   2.394  18.711  0.00  0.00    +0.000 HD
BRANCH   9  11
ATOM     11  C   UNL     1      49.149   3.224  17.389  0.00  0.00    +0.000 A 
ATOM     12  C   UNL     1      49.412   3.746  18.605  0.00  0.00    +0.000 A 
ATOM     13  C   UNL     1      48.513   4.806  19.127  0.00  0.00    +0.000 A 
ATOM     14  O   UNL     1      48.679   5.302  20.239  0.00  0.00    +0.000 OA
ATOM     15  C   UNL     1      47.388   5.263  18.264  0.00  0.00    +0.000 A 
ATOM     17  C   UNL     1      47.245   4.668  17.076  0.00  0.00    +0.000 A 
ATOM     18  N   UNL     1      48.077   3.672  16.601  0.00  0.00    +0.000 N 
BRANCH  15  16
ATOM     16  O   UNL     1      46.541   6.246  18.725  0.00  0.00    +0.000 OA
ATOM     43  H   UNL     1      46.952   6.563  19.557  0.00  0.00    +0.000 HD
ENDBRANCH  15  16
BRANCH  18  19
ATOM     19  O   UNL     1      47.723   3.036  15.413  0.00  0.00    +0.000 OA
ATOM     44  H   UNL     1      48.579   2.726  15.057  0.00  0.00    +0.000 HD
ENDBRANCH  18  19
ENDBRANCH   9  11
ENDBRANCH   7   8
ENDBRANCH   6   7
ENDBRANCH   5   6
ENDBRANCH   4   5
ENDBRANCH   3   4
ENDBRANCH   2   3
BRANCH  20  21
ATOM     21  C   UNL     1      52.774   7.159  15.701  0.00  0.00    +0.000 C 
BRANCH  21  22
ATOM     22  C   UNL     1      51.452   7.619  15.136  0.00  0.00    +0.000 A 
ATOM     23  C   UNL     1      50.254   7.195  15.724  0.00  0.00    +0.000 A 
ATOM     24  C   UNL     1      49.021   7.494  15.135  0.00  0.00    +0.000 A 
ATOM     25  C   UNL     1      48.963   8.204  13.928  0.00  0.00    +0.000 A 
ATOM     40  C   UNL     1      50.158   8.695  13.378  0.00  0.00    +0.000 A 
ATOM     41  C   UNL     1      51.392   8.400  13.972  0.00  0.00    +0.000 A 
BRANCH  25  26
ATOM     26  C   UNL     1      47.678   8.236  13.136  0.00  0.00    +0.000 C 
BRANCH  26  27
ATOM     27  N   UNL     1      47.406   7.120  12.265  0.00  0.00    +0.000 N 
ATOM     28  C   UNL     1      46.081   6.888  11.948  0.00  0.00    +0.000 C 
ATOM     29  O   UNL     1      45.200   7.650  12.348  0.00  0.00    +0.000 OA
ATOM     46  H   UNL     1      48.157   6.519  11.932  0.00  0.00    +0.000 HD
BRANCH  28  30
ATOM     30  C   UNL     1      45.714   5.700  11.170  0.00  0.00    +0.000 A 
ATOM     31  C   UNL     1      45.837   5.735   9.784  0.00  0.00    +0.000 A 
ATOM     32  S   UNL     1      45.227   4.350   9.001  0.00  0.00    +0.000 S 
ATOM     33  C   UNL     1      44.644   3.733  10.474  0.00  0.00    +0.000 A 
ATOM     34  N   UNL     1      43.780   2.685  10.501  0.00  0.00    +0.000 NA
ATOM     35  C   UNL     1      43.352   2.387  11.684  0.00  0.00    +0.000 A 
ATOM     36  N   UNL     1      43.793   2.971  12.845  0.00  0.00    +0.000 N 
ATOM     37  C   UNL     1      44.764   3.944  12.867  0.00  0.00    +0.000 A 
ATOM     38  O   UNL     1      45.288   4.322  13.910  0.00  0.00    +0.000 OA
ATOM     39  C   UNL     1      45.104   4.459  11.560  0.00  0.00    +0.000 A 
ATOM     47  H   UNL     1      43.492   2.618  13.742  0.00  0.00    +0.000 HD
ENDBRANCH  28  30
ENDBRANCH  26  27
ENDBRANCH  25  26
ENDBRANCH  21  22
ENDBRANCH  20  21
TORSDOF 14
ENDMDL
MODEL 4
REMARK VINA RESULT:    -6.819      3.901      9.217
REMARK INTER + INTRA:         -15.249
REMARK INTER:                 -13.574
REMARK INTRA:                  -1.676
REMARK UNBOUND:                -3.249
REMARK  Name = 
REMARK  14 active torsions:
REMARK  status: ('A' for Active; 'I' for Inactive)
REMARK    1  A    between atoms: C_2  and  C_3
REMARK    2  A    between atoms: C_3  and  C_4
REMARK    3  A    between atoms: C_4  and  C_5
REMARK    4  A    between atoms: C_5  and  C_6
REMARK    5  A    between atoms: C_6  and  C_7
REMARK    6  A    between atoms: C_7  and  N_8
REMARK    7  A    between atoms: C_9  and  C_11
REMARK    8  A    between atoms: C_15  and  O_16
REMARK    9  A    between atoms: N_18  and  O_19
REMARK   10  A    between atoms: N_20  and  C_21
REMARK   11  A    between atoms: C_21  and  C_22
REMARK   12  A    between atoms: C_25  and  C_26
REMARK   13  A    between atoms: C_26  and  N_27
REMARK   14  A    between atoms: C_28  and  C_30
REMARK                            x       y       z     vdW  Elec       q    Type
REMARK                         _______ _______ _______ _____ _____    ______ ____
ROOT
ATOM      1  O   UNL     1      45.500   5.975  10.643  0.00  0.00    +0.000 OA
ATOM      2  C   UNL     1      44.960   6.801  11.371  0.00  0.00    +0.000 C 
ATOM     20  N   UNL     1      45.649   7.746  12.097  0.00  0.00    +0.000 N 
ATOM     45  H   UNL     1      45.146   8.335  12.746  0.00  0.00    +0.000 HD
ENDROOT
BRANCH   2   3
ATOM      3  C   UNL     1      43.447   6.888  11.514  0.00  0.00    +0.000 C 
BRANCH   3   4
ATOM      4  C   UNL     1      42.827   5.517  11.782  0.00  0.00    +0.000 C 
BRANCH   4   5
ATOM      5  C   UNL     1      43.291   4.946  13.126  0.00  0.00    +0.000 C 
BRANCH   5   6
ATOM      6  C   UNL     1      44.093   3.652  12.955  0.00  0.00    +0.000 C 
BRANCH   6   7
ATOM      7  C   UNL     1      43.501   2.775  11.851  0.00  0.00    +0.000 C 
BRANCH   7   8
ATOM      8  N   UNL     1      44.455   2.514  10.794  0.00  0.00    +0.000 N 
ATOM      9  C   UNL     1      44.412   3.134   9.574  0.00  0.00    +0.000 C 
ATOM     10  O   UNL     1      43.564   3.973   9.283  0.00  0.00    +0.000 OA
ATOM     42  H   UNL     1      45.169   1.801  10.923  0.00  0.00    +0.000 HD
BRANCH   9  11
ATOM     11  C   UNL     1      45.483   2.709   8.594  0.00  0.00    +0.000 A 
ATOM     12  C   UNL     1      45.665   1.375   8.517  0.00  0.00    +0.000 A 
ATOM     13  C   UNL     1      46.711   0.857   7.599  0.00  0.00    +0.000 A 
ATOM     14  O   UNL     1      46.946  -0.345   7.502  0.00  0.00    +0.000 OA
ATOM     15  C   UNL     1      47.481   1.838   6.785  0.00  0.00    +0.000 A 
ATOM     17  C   UNL     1      47.196   3.134   6.952  0.00  0.00    +0.000 A 
ATOM     18  N   UNL     1      46.230   3.610   7.818  0.00  0.00    +0.000 N 
BRANCH  15  16
ATOM     16  O   UNL     1      48.456   1.384   5.925  0.00  0.00    +0.000 OA
ATOM     43  H   UNL     1      47.981   0.810   5.286  0.00  0.00    +0.000 HD
ENDBRANCH  15  16
BRANCH  18  19
ATOM     19  O   UNL     1      46.142   4.988   8.004  0.00  0.00    +0.000 OA
ATOM     44  H   UNL     1      45.463   5.081   8.700  0.00  0.00    +0.000 HD
ENDBRANCH  18  19
ENDBRANCH   9  11
ENDBRANCH   7   8
ENDBRANCH   6   7
ENDBRANCH   5   6
ENDBRANCH   4   5
ENDBRANCH   3   4
ENDBRANCH   2   3
BRANCH  20  21
ATOM     21  C   UNL     1      47.097   7.838  12.101  0.00  0.00    +0.000 C 
BRANCH  21  22
ATOM     22  C   UNL     1      47.628   7.804  13.514  0.00  0.00    +0.000 A 
ATOM     23  C   UNL     1      47.737   8.990  14.249  0.00  0.00    +0.000 A 
ATOM     24  C   UNL     1      48.355   9.001  15.504  0.00  0.00    +0.000 A 
ATOM     25  C   UNL     1      48.900   7.826  16.039  0.00  0.00    +0.000 A 
ATOM     40  C   UNL     1      48.724   6.623  15.337  0.00  0.00    +0.000 A 
ATOM     41  C   UNL     1      48.100   6.612  14.083  0.00  0.00    +0.000 A 
BRANCH  25  26
ATOM     26  C   UNL     1      49.842   7.903  17.216  0.00  0.00    +0.000 C 
BRANCH  26  27
ATOM     27  N   UNL     1      50.781   6.822  17.389  0.00  0.00    +0.000 N 
ATOM     28  C   UNL     1      50.441   5.841  18.300  0.00  0.00    +0.000 C 
ATOM     29  O   UNL     1      49.353   5.874  18.877  0.00  0.00    +0.000 OA
ATOM     46  H   UNL     1      51.664   6.810  16.882  0.00  0.00    +0.000 HD
BRANCH  28  30
ATOM     30  C   UNL     1      51.400   4.778  18.620  0.00  0.00    +0.000 A 
ATOM     31  C   UNL     1      52.577   5.108  19.285  0.00  0.00    +0.000 A 
ATOM     32  S   UNL     1      53.665   3.806  19.448  0.00  0.00    +0.000 S 
ATOM     33  C   UNL     1      52.665   2.807  18.504  0.00  0.00    +0.000 A 
ATOM     34  N   UNL     1      53.114   1.619  18.024  0.00  0.00    +0.000 NA
ATOM     35  C   UNL     1      52.276   1.015  17.248  0.00  0.00    +0.000 A 
ATOM     36  N   UNL     1      50.994   1.438  17.000  0.00  0.00    +0.000 N 
ATOM     37  C   UNL     1      50.459   2.568  17.573  0.00  0.00    +0.000 A 
ATOM     38  O   UNL     1      49.264   2.835  17.501  0.00  0.00    +0.000 OA
ATOM     39  C   UNL     1      51.429   3.387  18.265  0.00  0.00    +0.000 A 
ATOM     47  H   UNL     1      50.359   0.863  16.466  0.00  0.00    +0.000 HD
ENDBRANCH  28  30
ENDBRANCH  26  27
ENDBRANCH  25  26
ENDBRANCH  21  22
ENDBRANCH  20  21
TORSDOF 14
ENDMDL
MODEL 5
REMARK VINA RESULT:    -6.767      1.760      2.706
REMARK INTER + INTRA:         -15.159
REMARK INTER:                 -12.542
REMARK INTRA:                  -2.617
REMARK UNBOUND:                -3.249
REMARK  Name = 
REMARK  14 active torsions:
REMARK  status: ('A' for Active; 'I' for Inactive)
REMARK    1  A    between atoms: C_2  and  C_3
REMARK    2  A    between atoms: C_3  and  C_4
REMARK    3  A    between atoms: C_4  and  C_5
REMARK    4  A    between atoms: C_5  and  C_6
REMARK    5  A    between atoms: C_6  and  C_7
REMARK    6  A    between atoms: C_7  and  N_8
REMARK    7  A    between atoms: C_9  and  C_11
REMARK    8  A    between atoms: C_15  and  O_16
REMARK    9  A    between atoms: N_18  and  O_19
REMARK   10  A    between atoms: N_20  and  C_21
REMARK   11  A    between atoms: C_21  and  C_22
REMARK   12  A    between atoms: C_25  and  C_26
REMARK   13  A    between atoms: C_26  and  N_27
REMARK   14  A    between atoms: C_28  and  C_30
REMARK                            x       y       z     vdW  Elec       q    Type
REMARK                         _______ _______ _______ _____ _____    ______ ____
ROOT
ATOM      1  O   UNL     1      51.058   8.669  19.361  0.00  0.00    +0.000 OA
ATOM      2  C   UNL     1      50.945   9.575  18.541  0.00  0.00    +0.000 C 
ATOM     20  N   UNL     1      51.212   9.429  17.199  0.00  0.00    +0.000 N 
ATOM     45  H   UNL     1      51.186  10.240  16.598  0.00  0.00    +0.000 HD
ENDROOT
BRANCH   2   3
ATOM      3  C   UNL     1      50.453  10.961  18.930  0.00  0.00    +0.000 C 
BRANCH   3   4
ATOM      4  C   UNL     1      49.153  10.893  19.732  0.00  0.00    +0.000 C 
BRANCH   4   5
ATOM      5  C   UNL     1      47.926  11.031  18.823  0.00  0.00    +0.000 C 
BRANCH   5   6
ATOM      6  C   UNL     1      47.675   9.764  18.000  0.00  0.00    +0.000 C 
BRANCH   6   7
ATOM      7  C   UNL     1      47.296   8.586  18.898  0.00  0.00    +0.000 C 
BRANCH   7   8
ATOM      8  N   UNL     1      47.683   7.316  18.320  0.00  0.00    +0.000 N 
ATOM      9  C   UNL     1      47.675   6.140  19.020  0.00  0.00    +0.000 C 
ATOM     10  O   UNL     1      47.328   6.067  20.196  0.00  0.00    +0.000 OA
ATOM     42  H   UNL     1      48.030   7.281  17.365  0.00  0.00    +0.000 HD
BRANCH   9  11
ATOM     11  C   UNL     1      48.135   4.923  18.248  0.00  0.00    +0.000 A 
ATOM     12  C   UNL     1      47.523   4.760  17.057  0.00  0.00    +0.000 A 
ATOM     13  C   UNL     1      47.888   3.582  16.231  0.00  0.00    +0.000 A 
ATOM     14  O   UNL     1      47.347   3.359  15.150  0.00  0.00    +0.000 OA
ATOM     15  C   UNL     1      48.939   2.660  16.746  0.00  0.00    +0.000 A 
ATOM     17  C   UNL     1      49.472   2.942  17.939  0.00  0.00    +0.000 A 
ATOM     18  N   UNL     1      49.118   4.033  18.709  0.00  0.00    +0.000 N 
BRANCH  15  16
ATOM     16  O   UNL     1      49.297   1.560  15.999  0.00  0.00    +0.000 OA
ATOM     43  H   UNL     1      48.449   1.116  15.782  0.00  0.00    +0.000 HD
ENDBRANCH  15  16
BRANCH  18  19
ATOM     19  O   UNL     1      49.644   4.123  19.997  0.00  0.00    +0.000 OA
ATOM     44  H   UNL     1      49.314   4.985  20.318  0.00  0.00    +0.000 HD
ENDBRANCH  18  19
ENDBRANCH   9  11
ENDBRANCH   7   8
ENDBRANCH   6   7
ENDBRANCH   5   6
ENDBRANCH   4   5
ENDBRANCH   3   4
ENDBRANCH   2   3
BRANCH  20  21
ATOM     21  C   UNL     1      51.690   8.187  16.619  0.00  0.00    +0.000 C 
BRANCH  21  22
ATOM     22  C   UNL     1      50.940   7.872  15.347  0.00  0.00    +0.000 A 
ATOM     23  C   UNL     1      51.377   8.403  14.128  0.00  0.00    +0.000 A 
ATOM     24  C   UNL     1      50.621   8.240  12.962  0.00  0.00    +0.000 A 
ATOM     25  C   UNL     1      49.395   7.562  12.999  0.00  0.00    +0.000 A 
ATOM     40  C   UNL     1      48.993   6.964  14.205  0.00  0.00    +0.000 A 
ATOM     41  C   UNL     1      49.755   7.123  15.369  0.00  0.00    +0.000 A 
BRANCH  25  26
ATOM     26  C   UNL     1      48.440   7.673  11.836  0.00  0.00    +0.000 C 
BRANCH  26  27
ATOM     27  N   UNL     1      47.444   6.640  11.692  0.00  0.00    +0.000 N 
ATOM     28  C   UNL     1      46.122   7.035  11.771  0.00  0.00    +0.000 C 
ATOM     29  O   UNL     1      45.831   8.225  11.894  0.00  0.00    +0.000 OA
ATOM     46  H   UNL     1      47.713   5.666  11.570  0.00  0.00    +0.000 HD
BRANCH  28  30
ATOM     30  C   UNL     1      45.057   6.026  11.758  0.00  0.00    +0.000 A 
ATOM     31  C   UNL     1      44.207   5.926  12.855  0.00  0.00    +0.000 A 
ATOM     32  S   UNL     1      43.125   4.612  12.773  0.00  0.00    +0.000 S 
ATOM     33  C   UNL     1      43.861   4.051  11.347  0.00  0.00    +0.000 A 
ATOM     34  N   UNL     1      43.597   2.810  10.864  0.00  0.00    +0.000 NA
ATOM     35  C   UNL     1      44.299   2.488   9.828  0.00  0.00    +0.000 A 
ATOM     36  N   UNL     1      45.157   3.335   9.170  0.00  0.00    +0.000 N 
ATOM     37  C   UNL     1      45.351   4.642   9.553  0.00  0.00    +0.000 A 
ATOM     38  O   UNL     1      45.965   5.443   8.856  0.00  0.00    +0.000 OA
ATOM     39  C   UNL     1      44.760   4.971  10.830  0.00  0.00    +0.000 A 
ATOM     47  H   UNL     1      45.594   3.051   8.307  0.00  0.00    +0.000 HD
ENDBRANCH  28  30
ENDBRANCH  26  27
ENDBRANCH  25  26
ENDBRANCH  21  22
ENDBRANCH  20  21
TORSDOF 14
ENDMDL
MODEL 6
REMARK VINA RESULT:    -6.721      1.189      1.499
REMARK INTER + INTRA:         -15.077
REMARK INTER:                 -12.289
REMARK INTRA:                  -2.789
REMARK UNBOUND:                -3.249
REMARK  Name = 
REMARK  14 active torsions:
REMARK  status: ('A' for Active; 'I' for Inactive)
REMARK    1  A    between atoms: C_2  and  C_3
REMARK    2  A    between atoms: C_3  and  C_4
REMARK    3  A    between atoms: C_4  and  C_5
REMARK    4  A    between atoms: C_5  and  C_6
REMARK    5  A    between atoms: C_6  and  C_7
REMARK    6  A    between atoms: C_7  and  N_8
REMARK    7  A    between atoms: C_9  and  C_11
REMARK    8  A    between atoms: C_15  and  O_16
REMARK    9  A    between atoms: N_18  and  O_19
REMARK   10  A    between atoms: N_20  and  C_21
REMARK   11  A    between atoms: C_21  and  C_22
REMARK   12  A    between atoms: C_25  and  C_26
REMARK   13  A    between atoms: C_26  and  N_27
REMARK   14  A    between atoms: C_28  and  C_30
REMARK                            x       y       z     vdW  Elec       q    Type
REMARK                         _______ _______ _______ _____ _____    ______ ____
ROOT
ATOM      1  O   UNL     1      53.763   8.460  17.767  0.00  0.00    +0.000 OA
ATOM      2  C   UNL     1      52.785   7.904  18.257  0.00  0.00    +0.000 C 
ATOM     20  N   UNL     1      51.946   7.072  17.551  0.00  0.00    +0.000 N 
ATOM     45  H   UNL     1      51.109   6.721  17.994  0.00  0.00    +0.000 HD
ENDROOT
BRANCH   2   3
ATOM      3  C   UNL     1      52.421   8.053  19.727  0.00  0.00    +0.000 C 
BRANCH   3   4
ATOM      4  C   UNL     1      52.558   6.728  20.478  0.00  0.00    +0.000 C 
BRANCH   4   5
ATOM      5  C   UNL     1      51.620   6.671  21.688  0.00  0.00    +0.000 C 
BRANCH   5   6
ATOM      6  C   UNL     1      50.465   7.670  21.569  0.00  0.00    +0.000 C 
BRANCH   6   7
ATOM      7  C   UNL     1      49.111   6.958  21.609  0.00  0.00    +0.000 C 
BRANCH   7   8
ATOM      8  N   UNL     1      48.818   6.278  20.366  0.00  0.00    +0.000 N 
ATOM      9  C   UNL     1      48.611   4.927  20.281  0.00  0.00    +0.000 C 
ATOM     10  O   UNL     1      48.646   4.184  21.259  0.00  0.00    +0.000 OA
ATOM     42  H   UNL     1      48.813   6.799  19.494  0.00  0.00    +0.000 HD
BRANCH   9  11
ATOM     11  C   UNL     1      48.340   4.400  18.889  0.00  0.00    +0.000 A 
ATOM     12  C   UNL     1      49.320   3.614  18.395  0.00  0.00    +0.000 A 
ATOM     13  C   UNL     1      49.160   3.065  17.025  0.00  0.00    +0.000 A 
ATOM     14  O   UNL     1      50.027   2.366  16.505  0.00  0.00    +0.000 OA
ATOM     15  C   UNL     1      47.909   3.382  16.280  0.00  0.00    +0.000 A 
ATOM     17  C   UNL     1      47.014   4.167  16.890  0.00  0.00    +0.000 A 
ATOM     18  N   UNL     1      47.175   4.686  18.160  0.00  0.00    +0.000 N 
BRANCH  15  16
ATOM     16  O   UNL     1      47.735   2.884  15.009  0.00  0.00    +0.000 OA
ATOM     43  H   UNL     1      47.789   3.668  14.421  0.00  0.00    +0.000 HD
ENDBRANCH  15  16
BRANCH  18  19
ATOM     19  O   UNL     1      46.235   5.611  18.613  0.00  0.00    +0.000 OA
ATOM     44  H   UNL     1      46.265   6.315  17.937  0.00  0.00    +0.000 HD
ENDBRANCH  18  19
ENDBRANCH   9  11
ENDBRANCH   7   8
ENDBRANCH   6   7
ENDBRANCH   5   6
ENDBRANCH   4   5
ENDBRANCH   3   4
ENDBRANCH   2   3
BRANCH  20  21
ATOM     21  C   UNL     1      52.117   6.792  16.136  0.00  0.00    +0.000 C 
BRANCH  21  22
ATOM     22  C   UNL     1      50.960   7.349  15.342  0.00  0.00    +0.000 A 
ATOM     23  C   UNL     1      49.653   6.936  15.626  0.00  0.00    +0.000 A 
ATOM     24  C   UNL     1      48.584   7.331  14.815  0.00  0.00    +0.000 A 
ATOM     25  C   UNL     1      48.806   8.128  13.684  0.00  0.00    +0.000 A 
ATOM     40  C   UNL     1      50.104   8.605  13.442  0.00  0.00    +0.000 A 
ATOM     41  C   UNL     1      51.173   8.214  14.259  0.00  0.00    +0.000 A 
BRANCH  25  26
ATOM     26  C   UNL     1      47.723   8.273  12.643  0.00  0.00    +0.000 C 
BRANCH  26  27
ATOM     27  N   UNL     1      47.409   7.115  11.842  0.00  0.00    +0.000 N 
ATOM     28  C   UNL     1      46.070   6.836  11.651  0.00  0.00    +0.000 C 
ATOM     29  O   UNL     1      45.204   7.590  12.096  0.00  0.00    +0.000 OA
ATOM     46  H   UNL     1      48.147   6.521  11.469  0.00  0.00    +0.000 HD
BRANCH  28  30
ATOM     30  C   UNL     1      45.673   5.607  10.954  0.00  0.00    +0.000 A 
ATOM     31  C   UNL     1      45.749   5.563   9.565  0.00  0.00    +0.000 A 
ATOM     32  S   UNL     1      45.108   4.139   8.884  0.00  0.00    +0.000 S 
ATOM     33  C   UNL     1      44.573   3.610  10.408  0.00  0.00    +0.000 A 
ATOM     34  N   UNL     1      43.707   2.569  10.525  0.00  0.00    +0.000 NA
ATOM     35  C   UNL     1      43.319   2.342  11.736  0.00  0.00    +0.000 A 
ATOM     36  N   UNL     1      43.801   2.988  12.847  0.00  0.00    +0.000 N 
ATOM     37  C   UNL     1      44.775   3.956  12.780  0.00  0.00    +0.000 A 
ATOM     38  O   UNL     1      45.336   4.390  13.781  0.00  0.00    +0.000 OA
ATOM     39  C   UNL     1      45.073   4.394  11.435  0.00  0.00    +0.000 A 
ATOM     47  H   UNL     1      43.530   2.688  13.771  0.00  0.00    +0.000 HD
ENDBRANCH  28  30
ENDBRANCH  26  27
ENDBRANCH  25  26
ENDBRANCH  21  22
ENDBRANCH  20  21
TORSDOF 14
ENDMDL
MODEL 7
REMARK VINA RESULT:    -6.638      3.315      8.246
REMARK INTER + INTRA:         -14.931
REMARK INTER:                 -12.932
REMARK INTRA:                  -1.998
REMARK UNBOUND:                -3.249
REMARK  Name = 
REMARK  14 active torsions:
REMARK  status: ('A' for Active; 'I' for Inactive)
REMARK    1  A    between atoms: C_2  and  C_3
REMARK    2  A    between atoms: C_3  and  C_4
REMARK    3  A    between atoms: C_4  and  C_5
REMARK    4  A    between atoms: C_5  and  C_6
REMARK    5  A    between atoms: C_6  and  C_7
REMARK    6  A    between atoms: C_7  and  N_8
REMARK    7  A    between atoms: C_9  and  C_11
REMARK    8  A    between atoms: C_15  and  O_16
REMARK    9  A    between atoms: N_18  and  O_19
REMARK   10  A    between atoms: N_20  and  C_21
REMARK   11  A    between atoms: C_21  and  C_22
REMARK   12  A    between atoms: C_25  and  C_26
REMARK   13  A    between atoms: C_26  and  N_27
REMARK   14  A    between atoms: C_28  and  C_30
REMARK                            x       y       z     vdW  Elec       q    Type
REMARK                         _______ _______ _______ _____ _____    ______ ____
ROOT
ATOM      1  O   UNL     1      49.355   7.660  11.391  0.00  0.00    +0.000 OA
ATOM      2  C   UNL     1      48.214   7.982  11.704  0.00  0.00    +0.000 C 
ATOM     20  N   UNL     1      47.872   9.232  12.165  0.00  0.00    +0.000 N 
ATOM     45  H   UNL     1      46.931   9.400  12.491  0.00  0.00    +0.000 HD
ENDROOT
BRANCH   2   3
ATOM      3  C   UNL     1      47.039   7.024  11.574  0.00  0.00    +0.000 C 
BRANCH   3   4
ATOM      4  C   UNL     1      46.634   6.441  12.928  0.00  0.00    +0.000 C 
BRANCH   4   5
ATOM      5  C   UNL     1      45.798   5.168  12.763  0.00  0.00    +0.000 C 
BRANCH   5   6
ATOM      6  C   UNL     1      44.298   5.439  12.919  0.00  0.00    +0.000 C 
BRANCH   6   7
ATOM      7  C   UNL     1      43.546   5.165  11.616  0.00  0.00    +0.000 C 
BRANCH   7   8
ATOM      8  N   UNL     1      44.423   4.666  10.578  0.00  0.00    +0.000 N 
ATOM      9  C   UNL     1      44.344   3.394  10.077  0.00  0.00    +0.000 C 
ATOM     10  O   UNL     1      43.512   2.576  10.462  0.00  0.00    +0.000 OA
ATOM     42  H   UNL     1      45.174   5.253  10.226  0.00  0.00    +0.000 HD
BRANCH   9  11
ATOM     11  C   UNL     1      45.363   3.053   9.012  0.00  0.00    +0.000 A 
ATOM     12  C   UNL     1      45.599   1.732   8.874  0.00  0.00    +0.000 A 
ATOM     13  C   UNL     1      46.601   1.296   7.869  0.00  0.00    +0.000 A 
ATOM     14  O   UNL     1      46.883   0.110   7.713  0.00  0.00    +0.000 OA
ATOM     15  C   UNL     1      47.268   2.339   7.041  0.00  0.00    +0.000 A 
ATOM     17  C   UNL     1      46.937   3.613   7.274  0.00  0.00    +0.000 A 
ATOM     18  N   UNL     1      46.013   4.014   8.220  0.00  0.00    +0.000 N 
BRANCH  15  16
ATOM     16  O   UNL     1      48.201   1.960   6.101  0.00  0.00    +0.000 OA
ATOM     43  H   UNL     1      48.729   1.258   6.539  0.00  0.00    +0.000 HD
ENDBRANCH  15  16
BRANCH  18  19
ATOM     19  O   UNL     1      45.876   5.379   8.463  0.00  0.00    +0.000 OA
ATOM     44  H   UNL     1      45.009   5.446   8.908  0.00  0.00    +0.000 HD
ENDBRANCH  18  19
ENDBRANCH   9  11
ENDBRANCH   7   8
ENDBRANCH   6   7
ENDBRANCH   5   6
ENDBRANCH   4   5
ENDBRANCH   3   4
ENDBRANCH   2   3
BRANCH  20  21
ATOM     21  C   UNL     1      48.841  10.295  12.361  0.00  0.00    +0.000 C 
BRANCH  21  22
ATOM     22  C   UNL     1      49.597  10.094  13.652  0.00  0.00    +0.000 A 
ATOM     23  C   UNL     1      50.967   9.807  13.624  0.00  0.00    +0.000 A 
ATOM     24  C   UNL     1      51.655   9.480  14.798  0.00  0.00    +0.000 A 
ATOM     25  C   UNL     1      50.978   9.408  16.022  0.00  0.00    +0.000 A 
ATOM     40  C   UNL     1      49.621   9.769  16.064  0.00  0.00    +0.000 A 
ATOM     41  C   UNL     1      48.935  10.102  14.889  0.00  0.00    +0.000 A 
BRANCH  25  26
ATOM     26  C   UNL     1      51.636   8.743  17.207  0.00  0.00    +0.000 C 
BRANCH  26  27
ATOM     27  N   UNL     1      51.075   7.497  17.667  0.00  0.00    +0.000 N 
ATOM     28  C   UNL     1      51.543   6.344  17.066  0.00  0.00    +0.000 C 
ATOM     29  O   UNL     1      52.444   6.398  16.228  0.00  0.00    +0.000 OA
ATOM     46  H   UNL     1      50.346   7.481  18.378  0.00  0.00    +0.000 HD
BRANCH  28  30
ATOM     30  C   UNL     1      50.933   5.051  17.393  0.00  0.00    +0.000 A 
ATOM     31  C   UNL     1      51.744   3.924  17.485  0.00  0.00    +0.000 A 
ATOM     32  S   UNL     1      50.884   2.471  17.710  0.00  0.00    +0.000 S 
ATOM     33  C   UNL     1      49.400   3.282  17.538  0.00  0.00    +0.000 A 
ATOM     34  N   UNL     1      48.241   2.594  17.366  0.00  0.00    +0.000 NA
ATOM     35  C   UNL     1      47.211   3.345  17.157  0.00  0.00    +0.000 A 
ATOM     36  N   UNL     1      47.217   4.717  17.215  0.00  0.00    +0.000 N 
ATOM     37  C   UNL     1      48.345   5.444  17.517  0.00  0.00    +0.000 A 
ATOM     38  O   UNL     1      48.304   6.646  17.754  0.00  0.00    +0.000 OA
ATOM     39  C   UNL     1      49.558   4.658  17.536  0.00  0.00    +0.000 A 
ATOM     47  H   UNL     1      46.355   5.236  17.144  0.00  0.00    +0.000 HD
ENDBRANCH  28  30
ENDBRANCH  26  27
ENDBRANCH  25  26
ENDBRANCH  21  22
ENDBRANCH  20  21
TORSDOF 14
ENDMDL
MODEL 8
REMARK VINA RESULT:    -6.332      3.515      8.743
REMARK INTER + INTRA:         -14.394
REMARK INTER:                 -12.319
REMARK INTRA:                  -2.074
REMARK UNBOUND:                -3.249
REMARK  Name = 
REMARK  14 active torsions:
REMARK  status: ('A' for Active; 'I' for Inactive)
REMARK    1  A    between atoms: C_2  and  C_3
REMARK    2  A    between atoms: C_3  and  C_4
REMARK    3  A    between atoms: C_4  and  C_5
REMARK    4  A    between atoms: C_5  and  C_6
REMARK    5  A    between atoms: C_6  and  C_7
REMARK    6  A    between atoms: C_7  and  N_8
REMARK    7  A    between atoms: C_9  and  C_11
REMARK    8  A    between atoms: C_15  and  O_16
REMARK    9  A    between atoms: N_18  and  O_19
REMARK   10  A    between atoms: N_20  and  C_21
REMARK   11  A    between atoms: C_21  and  C_22
REMARK   12  A    between atoms: C_25  and  C_26
REMARK   13  A    between atoms: C_26  and  N_27
REMARK   14  A    between atoms: C_28  and  C_30
REMARK                            x       y       z     vdW  Elec       q    Type
REMARK                         _______ _______ _______ _____ _____    ______ ____
ROOT
ATOM      1  O   UNL     1      47.665  12.170   8.890  0.00  0.00    +0.000 OA
ATOM      2  C   UNL     1      47.040  12.013   9.934  0.00  0.00    +0.000 C 
ATOM     20  N   UNL     1      47.519  11.302  11.011  0.00  0.00    +0.000 N 
ATOM     45  H   UNL     1      46.914  11.136  11.803  0.00  0.00    +0.000 HD
ENDROOT
BRANCH   2   3
ATOM      3  C   UNL     1      45.668  12.632  10.157  0.00  0.00    +0.000 C 
BRANCH   3   4
ATOM      4  C   UNL     1      44.566  11.818   9.479  0.00  0.00    +0.000 C 
BRANCH   4   5
ATOM      5  C   UNL     1      43.371  11.604  10.414  0.00  0.00    +0.000 C 
BRANCH   5   6
ATOM      6  C   UNL     1      43.026  10.121  10.576  0.00  0.00    +0.000 C 
BRANCH   6   7
ATOM      7  C   UNL     1      44.241   9.316  11.038  0.00  0.00    +0.000 C 
BRANCH   7   8
ATOM      8  N   UNL     1      43.948   7.903  11.146  0.00  0.00    +0.000 N 
ATOM      9  C   UNL     1      44.899   6.958  11.421  0.00  0.00    +0.000 C 
ATOM     10  O   UNL     1      46.081   7.237  11.611  0.00  0.00    +0.000 OA
ATOM     42  H   UNL     1      43.007   7.567  10.960  0.00  0.00    +0.000 HD
BRANCH   9  11
ATOM     11  C   UNL     1      44.399   5.531  11.470  0.00  0.00    +0.000 A 
ATOM     12  C   UNL     1      44.831   4.758  10.452  0.00  0.00    +0.000 A 
ATOM     13  C   UNL     1      44.378   3.345  10.397  0.00  0.00    +0.000 A 
ATOM     14  O   UNL     1      44.711   2.596   9.481  0.00  0.00    +0.000 OA
ATOM     15  C   UNL     1      43.496   2.846  11.489  0.00  0.00    +0.000 A 
ATOM     17  C   UNL     1      43.149   3.715  12.443  0.00  0.00    +0.000 A 
ATOM     18  N   UNL     1      43.564   5.032  12.482  0.00  0.00    +0.000 N 
BRANCH  15  16
ATOM     16  O   UNL     1      43.063   1.539  11.462  0.00  0.00    +0.000 OA
ATOM     43  H   UNL     1      42.920   1.341  10.511  0.00  0.00    +0.000 HD
ENDBRANCH  15  16
BRANCH  18  19
ATOM     19  O   UNL     1      43.004   5.866  13.449  0.00  0.00    +0.000 OA
ATOM     44  H   UNL     1      43.487   6.707  13.332  0.00  0.00    +0.000 HD
ENDBRANCH  18  19
ENDBRANCH   9  11
ENDBRANCH   7   8
ENDBRANCH   6   7
ENDBRANCH   5   6
ENDBRANCH   4   5
ENDBRANCH   3   4
ENDBRANCH   2   3
BRANCH  20  21
ATOM     21  C   UNL     1      48.807  10.633  11.007  0.00  0.00    +0.000 C 
BRANCH  21  22
ATOM     22  C   UNL     1      48.856   9.570  12.078  0.00  0.00    +0.000 A 
ATOM     23  C   UNL     1      49.415   8.317  11.795  0.00  0.00    +0.000 A 
ATOM     24  C   UNL     1      49.345   7.275  12.725  0.00  0.00    +0.000 A 
ATOM     25  C   UNL     1      48.689   7.457  13.950  0.00  0.00    +0.000 A 
ATOM     40  C   UNL     1      48.195   8.733  14.265  0.00  0.00    +0.000 A 
ATOM     41  C   UNL     1      48.272   9.778  13.335  0.00  0.00    +0.000 A 
BRANCH  25  26
ATOM     26  C   UNL     1      48.329   6.259  14.795  0.00  0.00    +0.000 C 
BRANCH  26  27
ATOM     27  N   UNL     1      48.178   6.468  16.214  0.00  0.00    +0.000 N 
ATOM     28  C   UNL     1      49.092   5.837  17.036  0.00  0.00    +0.000 C 
ATOM     29  O   UNL     1      50.022   5.189  16.556  0.00  0.00    +0.000 OA
ATOM     46  H   UNL     1      47.411   7.027  16.582  0.00  0.00    +0.000 HD
BRANCH  28  30
ATOM     30  C   UNL     1      48.928   5.901  18.493  0.00  0.00    +0.000 A 
ATOM     31  C   UNL     1      48.973   4.721  19.230  0.00  0.00    +0.000 A 
ATOM     32  S   UNL     1      48.610   4.925  20.882  0.00  0.00    +0.000 S 
ATOM     33  C   UNL     1      48.234   6.563  20.632  0.00  0.00    +0.000 A 
ATOM     34  N   UNL     1      47.596   7.290  21.587  0.00  0.00    +0.000 NA
ATOM     35  C   UNL     1      47.295   8.491  21.220  0.00  0.00    +0.000 A 
ATOM     36  N   UNL     1      47.670   9.063  20.029  0.00  0.00    +0.000 N 
ATOM     37  C   UNL     1      48.429   8.402  19.093  0.00  0.00    +0.000 A 
ATOM     38  O   UNL     1      48.920   8.975  18.125  0.00  0.00    +0.000 OA
ATOM     39  C   UNL     1      48.596   6.992  19.365  0.00  0.00    +0.000 A 
ATOM     47  H   UNL     1      47.489  10.040  19.851  0.00  0.00    +0.000 HD
ENDBRANCH  28  30
ENDBRANCH  26  27
ENDBRANCH  25  26
ENDBRANCH  21  22
ENDBRANCH  20  21
TORSDOF 14
ENDMDL
MODEL 9
REMARK VINA RESULT:    -6.255      3.738      8.650
REMARK INTER + INTRA:         -14.258
REMARK INTER:                 -12.603
REMARK INTRA:                  -1.654
REMARK UNBOUND:                -3.249
REMARK  Name = 
REMARK  14 active torsions:
REMARK  status: ('A' for Active; 'I' for Inactive)
REMARK    1  A    between atoms: C_2  and  C_3
REMARK    2  A    between atoms: C_3  and  C_4
REMARK    3  A    between atoms: C_4  and  C_5
REMARK    4  A    between atoms: C_5  and  C_6
REMARK    5  A    between atoms: C_6  and  C_7
REMARK    6  A    between atoms: C_7  and  N_8
REMARK    7  A    between atoms: C_9  and  C_11
REMARK    8  A    between atoms: C_15  and  O_16
REMARK    9  A    between atoms: N_18  and  O_19
REMARK   10  A    between atoms: N_20  and  C_21
REMARK   11  A    between atoms: C_21  and  C_22
REMARK   12  A    between atoms: C_25  and  C_26
REMARK   13  A    between atoms: C_26  and  N_27
REMARK   14  A    between atoms: C_28  and  C_30
REMARK                            x       y       z     vdW  Elec       q    Type
REMARK                         _______ _______ _______ _____ _____    ______ ____
ROOT
ATOM      1  O   UNL     1      48.465  12.157   8.931  0.00  0.00    +0.000 OA
ATOM      2  C   UNL     1      47.710  12.010   9.886  0.00  0.00    +0.000 C 
ATOM     20  N   UNL     1      47.988  11.199  10.963  0.00  0.00    +0.000 N 
ATOM     45  H   UNL     1      47.282  11.055  11.670  0.00  0.00    +0.000 HD
ENDROOT
BRANCH   2   3
ATOM      3  C   UNL     1      46.385  12.752   9.992  0.00  0.00    +0.000 C 
BRANCH   3   4
ATOM      4  C   UNL     1      45.220  11.900   9.487  0.00  0.00    +0.000 C 
BRANCH   4   5
ATOM      5  C   UNL     1      44.076  11.857  10.505  0.00  0.00    +0.000 C 
BRANCH   5   6
ATOM      6  C   UNL     1      43.570  10.430  10.741  0.00  0.00    +0.000 C 
BRANCH   6   7
ATOM      7  C   UNL     1      44.587   9.605  11.530  0.00  0.00    +0.000 C 
BRANCH   7   8
ATOM      8  N   UNL     1      44.263   8.194  11.525  0.00  0.00    +0.000 N 
ATOM      9  C   UNL     1      45.212   7.207  11.505  0.00  0.00    +0.000 C 
ATOM     10  O   UNL     1      46.418   7.441  11.501  0.00  0.00    +0.000 OA
ATOM     42  H   UNL     1      43.292   7.900  11.482  0.00  0.00    +0.000 HD
BRANCH   9  11
ATOM     11  C   UNL     1      44.674   5.793  11.480  0.00  0.00    +0.000 A 
ATOM     12  C   UNL     1      44.180   5.368  12.661  0.00  0.00    +0.000 A 
ATOM     13  C   UNL     1      43.648   3.984  12.747  0.00  0.00    +0.000 A 
ATOM     14  O   UNL     1      43.210   3.526  13.799  0.00  0.00    +0.000 OA
ATOM     15  C   UNL     1      43.656   3.150  11.513  0.00  0.00    +0.000 A 
ATOM     17  C   UNL     1      44.167   3.696  10.405  0.00  0.00    +0.000 A 
ATOM     18  N   UNL     1      44.673   4.980  10.335  0.00  0.00    +0.000 N 
BRANCH  15  16
ATOM     16  O   UNL     1      43.167   1.863  11.565  0.00  0.00    +0.000 OA
ATOM     43  H   UNL     1      43.859   1.350  12.033  0.00  0.00    +0.000 HD
ENDBRANCH  15  16
BRANCH  18  19
ATOM     19  O   UNL     1      45.312   5.368   9.159  0.00  0.00    +0.000 OA
ATOM     44  H   UNL     1      44.758   6.103   8.830  0.00  0.00    +0.000 HD
ENDBRANCH  18  19
ENDBRANCH   9  11
ENDBRANCH   7   8
ENDBRANCH   6   7
ENDBRANCH   5   6
ENDBRANCH   4   5
ENDBRANCH   3   4
ENDBRANCH   2   3
BRANCH  20  21
ATOM     21  C   UNL     1      49.200  10.405  11.062  0.00  0.00    +0.000 C 
BRANCH  21  22
ATOM     22  C   UNL     1      49.185   9.569  12.319  0.00  0.00    +0.000 A 
ATOM     23  C   UNL     1      50.014   8.446  12.422  0.00  0.00    +0.000 A 
ATOM     24  C   UNL     1      49.915   7.580  13.516  0.00  0.00    +0.000 A 
ATOM     25  C   UNL     1      48.964   7.807  14.520  0.00  0.00    +0.000 A 
ATOM     40  C   UNL     1      48.185   8.974  14.456  0.00  0.00    +0.000 A 
ATOM     41  C   UNL     1      48.289   9.843  13.363  0.00  0.00    +0.000 A 
BRANCH  25  26
ATOM     26  C   UNL     1      48.637   6.714  15.507  0.00  0.00    +0.000 C 
BRANCH  26  27
ATOM     27  N   UNL     1      49.730   6.150  16.262  0.00  0.00    +0.000 N 
ATOM     28  C   UNL     1      49.510   4.918  16.848  0.00  0.00    +0.000 C 
ATOM     29  O   UNL     1      48.449   4.319  16.666  0.00  0.00    +0.000 OA
ATOM     46  H   UNL     1      50.604   6.658  16.377  0.00  0.00    +0.000 HD
BRANCH  28  30
ATOM     30  C   UNL     1      50.528   4.338  17.731  0.00  0.00    +0.000 A 
ATOM     31  C   UNL     1      51.182   5.164  18.641  0.00  0.00    +0.000 A 
ATOM     32  S   UNL     1      52.445   4.394  19.486  0.00  0.00    +0.000 S 
ATOM     33  C   UNL     1      52.256   2.985  18.555  0.00  0.00    +0.000 A 
ATOM     34  N   UNL     1      53.192   2.001  18.575  0.00  0.00    +0.000 NA
ATOM     35  C   UNL     1      52.959   1.036  17.747  0.00  0.00    +0.000 A 
ATOM     36  N   UNL     1      51.823   0.916  16.986  0.00  0.00    +0.000 N 
ATOM     37  C   UNL     1      50.793   1.826  17.037  0.00  0.00    +0.000 A 
ATOM     38  O   UNL     1      49.708   1.616  16.505  0.00  0.00    +0.000 OA
ATOM     39  C   UNL     1      51.110   3.026  17.777  0.00  0.00    +0.000 A 
ATOM     47  H   UNL     1      51.659   0.084  16.439  0.00  0.00    +0.000 HD
ENDBRANCH  28  30
ENDBRANCH  26  27
ENDBRANCH  25  26
ENDBRANCH  21  22
ENDBRANCH  20  21
TORSDOF 14
ENDMDL
