MODEL 1
REMARK VINA RESULT:    -6.869      0.000      0.000
REMARK INTER + INTRA:         -10.026
REMARK INTER:                  -9.077
REMARK INTRA:                  -0.949
REMARK UNBOUND:                -0.949
REMARK  Name = 
REMARK  6 active torsions:
REMARK  status: ('A' for Active; 'I' for Inactive)
REMARK    1  A    between atoms: N_1  and  C_2
REMARK    2  A    between atoms: N_5  and  C_6
REMARK    3  A    between atoms: C_6  and  C_7
REMARK    4  A    between atoms: C_10  and  C_11
REMARK    5  A    between atoms: C_11  and  N_12
REMARK    6  A    between atoms: C_13  and  C_15
REMARK                            x       y       z     vdW  Elec       q    Type
REMARK                         _______ _______ _______ _____ _____    ______ ____
ROOT
ATOM      7  C   UNL     1      46.730   6.910  12.469  0.00  0.00    +0.000 A 
ATOM      8  C   UNL     1      47.795   6.123  12.931  0.00  0.00    +0.000 A 
ATOM      9  C   UNL     1      48.588   6.546  13.998  0.00  0.00    +0.000 A 
ATOM     10  C   UNL     1      48.350   7.782  14.608  0.00  0.00    +0.000 A 
ATOM     25  C   UNL     1      47.353   8.615  14.083  0.00  0.00    +0.000 A 
ATOM     26  C   UNL     1      46.538   8.176  13.035  0.00  0.00    +0.000 A 
ENDROOT
BRANCH   7   6
ATOM      6  C   UNL     1      45.781   6.372  11.411  0.00  0.00    +0.000 C 
BRANCH   6   5
ATOM      2  C   UNL     1      44.304   2.984  11.058  0.00  0.00    +0.000 C 
ATOM      3  C   UNL     1      45.186   3.433  12.226  0.00  0.00    +0.000 C 
ATOM      4  C   UNL     1      44.659   4.711  12.884  0.00  0.00    +0.000 C 
ATOM      5  N   UNL     1      44.513   5.837  11.946  0.00  0.00    +0.000 NA
ATOM     27  C   UNL     1      43.588   5.434  10.869  0.00  0.00    +0.000 C 
ATOM     28  C   UNL     1      44.015   4.164  10.120  0.00  0.00    +0.000 C 
BRANCH   2   1
ATOM      1  N   UNL     1      43.060   2.393  11.559  0.00  0.00    +0.000 NA
ATOM     29  H   UNL     1      42.932   2.647  12.539  0.00  0.00    +0.000 HD
ATOM     30  H   UNL     1      43.127   1.376  11.535  0.00  0.00    +0.000 HD
ENDBRANCH   2   1
ENDBRANCH   6   5
ENDBRANCH   7   6
BRANCH  10  11
ATOM     11  C   UNL     1      49.146   8.197  15.814  0.00  0.00    +0.000 C 
BRANCH  11  12
ATOM     12  N   UNL     1      50.117   7.201  16.183  0.00  0.00    +0.000 N 
ATOM     13  C   UNL     1      49.929   6.430  17.301  0.00  0.00    +0.000 C 
ATOM     14  O   UNL     1      48.915   6.521  17.990  0.00  0.00    +0.000 OA
ATOM     31  H   UNL     1      51.037   7.268  15.760  0.00  0.00    +0.000 HD
BRANCH  13  15
ATOM     15  C   UNL     1      50.972   5.444  17.609  0.00  0.00    +0.000 A 
ATOM     16  C   UNL     1      52.209   5.881  18.060  0.00  0.00    +0.000 A 
ATOM     17  S   UNL     1      53.298   4.615  18.403  0.00  0.00    +0.000 S 
ATOM     18  C   UNL     1      52.169   3.441  17.910  0.00  0.00    +0.000 A 
ATOM     19  N   UNL     1      52.487   2.117  17.925  0.00  0.00    +0.000 NA
ATOM     20  C   UNL     1      51.550   1.340  17.496  0.00  0.00    +0.000 A 
ATOM     21  N   UNL     1      50.320   1.763  17.063  0.00  0.00    +0.000 N 
ATOM     22  C   UNL     1      49.942   3.084  17.062  0.00  0.00    +0.000 A 
ATOM     23  O   UNL     1      48.816   3.424  16.716  0.00  0.00    +0.000 OA
ATOM     24  C   UNL     1      50.970   4.002  17.519  0.00  0.00    +0.000 A 
ATOM     32  H   UNL     1      49.627   1.099  16.750  0.00  0.00    +0.000 HD
ENDBRANCH  13  15
ENDBRANCH  11  12
ENDBRANCH  10  11
TORSDOF 6
ENDMDL
MODEL 2
REMARK VINA RESULT:    -6.793      3.198      9.491
REMARK INTER + INTRA:          -9.926
REMARK INTER:                  -9.095
REMARK INTRA:                  -0.832
REMARK UNBOUND:                -0.949
REMARK  Name = 
REMARK  6 active torsions:
REMARK  status: ('A' for Active; 'I' for Inactive)
REMARK    1  A    between atoms: N_1  and  C_2
REMARK    2  A    between atoms: N_5  and  C_6
REMARK    3  A    between atoms: C_6  and  C_7
REMARK    4  A    between atoms: C_10  and  C_11
REMARK    5  A    between atoms: C_11  and  N_12
REMARK    6  A    between atoms: C_13  and  C_15
REMARK                            x       y       z     vdW  Elec       q    Type
REMARK                         _______ _______ _______ _____ _____    ______ ____
ROOT
ATOM      7  C   UNL     1      51.365   3.797  17.632  0.00  0.00    +0.000 A 
ATOM      8  C   UNL     1      50.579   4.943  17.442  0.00  0.00    +0.000 A 
ATOM      9  C   UNL     1      49.219   4.837  17.148  0.00  0.00    +0.000 A 
ATOM     10  C   UNL     1      48.622   3.580  17.010  0.00  0.00    +0.000 A 
ATOM     25  C   UNL     1      49.426   2.436  17.098  0.00  0.00    +0.000 A 
ATOM     26  C   UNL     1      50.782   2.541  17.425  0.00  0.00    +0.000 A 
ENDROOT
BRANCH   7   6
ATOM      6  C   UNL     1      52.805   3.924  18.101  0.00  0.00    +0.000 C 
BRANCH   6   5
ATOM      2  C   UNL     1      54.563   5.749  20.815  0.00  0.00    +0.000 C 
ATOM      3  C   UNL     1      53.058   5.824  20.548  0.00  0.00    +0.000 C 
ATOM      4  C   UNL     1      52.414   4.434  20.504  0.00  0.00    +0.000 C 
ATOM      5  N   UNL     1      53.024   3.536  19.509  0.00  0.00    +0.000 NA
ATOM     27  C   UNL     1      54.458   3.391  19.823  0.00  0.00    +0.000 C 
ATOM     28  C   UNL     1      55.223   4.721  19.886  0.00  0.00    +0.000 C 
BRANCH   2   1
ATOM      1  N   UNL     1      54.814   5.422  22.222  0.00  0.00    +0.000 NA
ATOM     29  H   UNL     1      55.261   4.507  22.285  0.00  0.00    +0.000 HD
ATOM     30  H   UNL     1      53.929   5.341  22.720  0.00  0.00    +0.000 HD
ENDBRANCH   2   1
ENDBRANCH   6   5
ENDBRANCH   7   6
BRANCH  10  11
ATOM     11  C   UNL     1      47.140   3.466  16.782  0.00  0.00    +0.000 C 
BRANCH  11  12
ATOM     12  N   UNL     1      46.669   4.436  15.829  0.00  0.00    +0.000 N 
ATOM     13  C   UNL     1      46.782   4.197  14.484  0.00  0.00    +0.000 C 
ATOM     14  O   UNL     1      47.233   3.140  14.047  0.00  0.00    +0.000 OA
ATOM     31  H   UNL     1      46.504   5.379  16.166  0.00  0.00    +0.000 HD
BRANCH  13  15
ATOM     15  C   UNL     1      46.284   5.242  13.581  0.00  0.00    +0.000 A 
ATOM     16  C   UNL     1      47.084   6.341  13.305  0.00  0.00    +0.000 A 
ATOM     17  S   UNL     1      46.378   7.447  12.218  0.00  0.00    +0.000 S 
ATOM     18  C   UNL     1      44.954   6.518  12.118  0.00  0.00    +0.000 A 
ATOM     19  N   UNL     1      43.904   6.931  11.356  0.00  0.00    +0.000 NA
ATOM     20  C   UNL     1      42.878   6.149  11.397  0.00  0.00    +0.000 A 
ATOM     21  N   UNL     1      42.809   4.986  12.121  0.00  0.00    +0.000 N 
ATOM     22  C   UNL     1      43.855   4.513  12.876  0.00  0.00    +0.000 A 
ATOM     23  O   UNL     1      43.778   3.443  13.471  0.00  0.00    +0.000 OA
ATOM     24  C   UNL     1      45.028   5.368  12.878  0.00  0.00    +0.000 A 
ATOM     32  H   UNL     1      41.977   4.414  12.100  0.00  0.00    +0.000 HD
ENDBRANCH  13  15
ENDBRANCH  11  12
ENDBRANCH  10  11
TORSDOF 6
ENDMDL
MODEL 3
REMARK VINA RESULT:    -6.663      1.778      2.470
REMARK INTER + INTRA:          -9.755
REMARK INTER:                  -8.745
REMARK INTRA:                  -1.010
REMARK UNBOUND:                -0.949
REMARK  Name = 
REMARK  6 active torsions:
REMARK  status: ('A' for Active; 'I' for Inactive)
REMARK    1  A    between atoms: N_1  and  C_2
REMARK    2  A    between atoms: N_5  and  C_6
REMARK    3  A    between atoms: C_6  and  C_7
REMARK    4  A    between atoms: C_10  and  C_11
REMARK    5  A    between atoms: C_11  and  N_12
REMARK    6  A    between atoms: C_13  and  C_15
REMARK                            x       y       z     vdW  Elec       q    Type
REMARK                         _______ _______ _______ _____ _____    ______ ____
ROOT
ATOM      7  C   UNL     1      46.855   4.262  13.712  0.00  0.00    +0.000 A 
ATOM      8  C   UNL     1      47.007   3.512  14.887  0.00  0.00    +0.000 A 
ATOM      9  C   UNL     1      47.636   4.056  16.007  0.00  0.00    +0.000 A 
ATOM     10  C   UNL     1      48.152   5.355  15.967  0.00  0.00    +0.000 A 
ATOM     25  C   UNL     1      48.092   6.070  14.762  0.00  0.00    +0.000 A 
ATOM     26  C   UNL     1      47.433   5.536  13.650  0.00  0.00    +0.000 A 
ENDROOT
BRANCH   7   6
ATOM      6  C   UNL     1      46.035   3.716  12.554  0.00  0.00    +0.000 C 
BRANCH   6   5
ATOM      2  C   UNL     1      43.161   5.644  11.212  0.00  0.00    +0.000 C 
ATOM      3  C   UNL     1      43.679   4.329  10.624  0.00  0.00    +0.000 C 
ATOM      4  C   UNL     1      43.760   3.222  11.679  0.00  0.00    +0.000 C 
ATOM      5  N   UNL     1      44.593   3.578  12.840  0.00  0.00    +0.000 NA
ATOM     27  C   UNL     1      44.037   4.795  13.462  0.00  0.00    +0.000 C 
ATOM     28  C   UNL     1      43.914   5.988  12.504  0.00  0.00    +0.000 C 
BRANCH   2   1
ATOM      1  N   UNL     1      41.717   5.559  11.453  0.00  0.00    +0.000 NA
ATOM     29  H   UNL     1      41.504   4.690  11.944  0.00  0.00    +0.000 HD
ATOM     30  H   UNL     1      41.222   5.509  10.563  0.00  0.00    +0.000 HD
ENDBRANCH   2   1
ENDBRANCH   6   5
ENDBRANCH   7   6
BRANCH  10  11
ATOM     11  C   UNL     1      48.749   5.973  17.200  0.00  0.00    +0.000 C 
BRANCH  11  12
ATOM     12  N   UNL     1      49.801   5.160  17.750  0.00  0.00    +0.000 N 
ATOM     13  C   UNL     1      51.077   5.248  17.254  0.00  0.00    +0.000 C 
ATOM     14  O   UNL     1      51.377   6.051  16.373  0.00  0.00    +0.000 OA
ATOM     31  H   UNL     1      49.528   4.358  18.309  0.00  0.00    +0.000 HD
BRANCH  13  15
ATOM     15  C   UNL     1      52.087   4.378  17.867  0.00  0.00    +0.000 A 
ATOM     16  C   UNL     1      53.149   4.947  18.554  0.00  0.00    +0.000 A 
ATOM     17  S   UNL     1      54.217   3.805  19.233  0.00  0.00    +0.000 S 
ATOM     18  C   UNL     1      53.322   2.509  18.587  0.00  0.00    +0.000 A 
ATOM     19  N   UNL     1      53.724   1.222  18.777  0.00  0.00    +0.000 NA
ATOM     20  C   UNL     1      52.972   0.341  18.206  0.00  0.00    +0.000 A 
ATOM     21  N   UNL     1      51.849   0.628  17.472  0.00  0.00    +0.000 N 
ATOM     22  C   UNL     1      51.388   1.908  17.283  0.00  0.00    +0.000 A 
ATOM     23  O   UNL     1      50.352   2.126  16.663  0.00  0.00    +0.000 OA
ATOM     24  C   UNL     1      52.211   2.938  17.891  0.00  0.00    +0.000 A 
ATOM     32  H   UNL     1      51.299  -0.112  17.061  0.00  0.00    +0.000 HD
ENDBRANCH  13  15
ENDBRANCH  11  12
ENDBRANCH  10  11
TORSDOF 6
ENDMDL
MODEL 4
REMARK VINA RESULT:    -6.631      3.689      8.253
REMARK INTER + INTRA:          -9.712
REMARK INTER:                  -8.616
REMARK INTRA:                  -1.097
REMARK UNBOUND:                -0.949
REMARK  Name = 
REMARK  6 active torsions:
REMARK  status: ('A' for Active; 'I' for Inactive)
REMARK    1  A    between atoms: N_1  and  C_2
REMARK    2  A    between atoms: N_5  and  C_6
REMARK    3  A    between atoms: C_6  and  C_7
REMARK    4  A    between atoms: C_10  and  C_11
REMARK    5  A    between atoms: C_11  and  N_12
REMARK    6  A    between atoms: C_13  and  C_15
REMARK                            x       y       z     vdW  Elec       q    Type
REMARK                         _______ _______ _______ _____ _____    ______ ____
ROOT
ATOM      7  C   UNL     1      49.107   7.816  16.242  0.00  0.00    +0.000 A 
ATOM      8  C   UNL     1      48.169   8.769  15.822  0.00  0.00    +0.000 A 
ATOM      9  C   UNL     1      47.717   8.796  14.502  0.00  0.00    +0.000 A 
ATOM     10  C   UNL     1      48.218   7.885  13.566  0.00  0.00    +0.000 A 
ATOM     25  C   UNL     1      49.230   6.999  13.958  0.00  0.00    +0.000 A 
ATOM     26  C   UNL     1      49.658   6.951  15.289  0.00  0.00    +0.000 A 
ENDROOT
BRANCH   7   6
ATOM      6  C   UNL     1      49.475   7.698  17.712  0.00  0.00    +0.000 C 
BRANCH   6   5
ATOM      2  C   UNL     1      49.503   4.693  19.892  0.00  0.00    +0.000 C 
ATOM      3  C   UNL     1      49.829   6.113  20.362  0.00  0.00    +0.000 C 
ATOM      4  C   UNL     1      48.716   7.103  20.005  0.00  0.00    +0.000 C 
ATOM      5  N   UNL     1      48.405   7.144  18.566  0.00  0.00    +0.000 NA
ATOM     27  C   UNL     1      48.002   5.792  18.134  0.00  0.00    +0.000 C 
ATOM     28  C   UNL     1      49.044   4.703  18.428  0.00  0.00    +0.000 C 
BRANCH   2   1
ATOM      1  N   UNL     1      48.484   4.093  20.758  0.00  0.00    +0.000 NA
ATOM     29  H   UNL     1      48.152   4.788  21.426  0.00  0.00    +0.000 HD
ATOM     30  H   UNL     1      48.900   3.344  21.311  0.00  0.00    +0.000 HD
ENDBRANCH   2   1
ENDBRANCH   6   5
ENDBRANCH   7   6
BRANCH  10  11
ATOM     11  C   UNL     1      47.666   7.856  12.168  0.00  0.00    +0.000 C 
BRANCH  11  12
ATOM     12  N   UNL     1      46.977   6.623  11.891  0.00  0.00    +0.000 N 
ATOM     13  C   UNL     1      45.612   6.551  12.003  0.00  0.00    +0.000 C 
ATOM     14  O   UNL     1      44.931   7.534  12.287  0.00  0.00    +0.000 OA
ATOM     31  H   UNL     1      47.531   5.773  11.871  0.00  0.00    +0.000 HD
BRANCH  13  15
ATOM     15  C   UNL     1      44.991   5.254  11.710  0.00  0.00    +0.000 A 
ATOM     16  C   UNL     1      44.280   4.599  12.705  0.00  0.00    +0.000 A 
ATOM     17  S   UNL     1      43.594   3.124  12.199  0.00  0.00    +0.000 S 
ATOM     18  C   UNL     1      44.267   3.285  10.644  0.00  0.00    +0.000 A 
ATOM     19  N   UNL     1      44.083   2.321   9.700  0.00  0.00    +0.000 NA
ATOM     20  C   UNL     1      44.675   2.556   8.577  0.00  0.00    +0.000 A 
ATOM     21  N   UNL     1      45.425   3.671   8.306  0.00  0.00    +0.000 N 
ATOM     22  C   UNL     1      45.610   4.686   9.215  0.00  0.00    +0.000 A 
ATOM     23  O   UNL     1      46.245   5.694   8.923  0.00  0.00    +0.000 OA
ATOM     24  C   UNL     1      44.979   4.460  10.503  0.00  0.00    +0.000 A 
ATOM     32  H   UNL     1      45.853   3.798   7.401  0.00  0.00    +0.000 HD
ENDBRANCH  13  15
ENDBRANCH  11  12
ENDBRANCH  10  11
TORSDOF 6
ENDMDL
MODEL 5
REMARK VINA RESULT:    -6.585      2.195      2.294
REMARK INTER + INTRA:          -9.651
REMARK INTER:                  -8.534
REMARK INTRA:                  -1.117
REMARK UNBOUND:                -0.949
REMARK  Name = 
REMARK  6 active torsions:
REMARK  status: ('A' for Active; 'I' for Inactive)
REMARK    1  A    between atoms: N_1  and  C_2
REMARK    2  A    between atoms: N_5  and  C_6
REMARK    3  A    between atoms: C_6  and  C_7
REMARK    4  A    between atoms: C_10  and  C_11
REMARK    5  A    between atoms: C_11  and  N_12
REMARK    6  A    between atoms: C_13  and  C_15
REMARK                            x       y       z     vdW  Elec       q    Type
REMARK                         _______ _______ _______ _____ _____    ______ ____
ROOT
ATOM      7  C   UNL     1      46.181   7.345  11.848  0.00  0.00    +0.000 A 
ATOM      8  C   UNL     1      47.502   6.902  11.694  0.00  0.00    +0.000 A 
ATOM      9  C   UNL     1      48.515   7.364  12.535  0.00  0.00    +0.000 A 
ATOM     10  C   UNL     1      48.232   8.303  13.533  0.00  0.00    +0.000 A 
ATOM     25  C   UNL     1      46.934   8.823  13.623  0.00  0.00    +0.000 A 
ATOM     26  C   UNL     1      45.912   8.336  12.801  0.00  0.00    +0.000 A 
ENDROOT
BRANCH   7   6
ATOM      6  C   UNL     1      45.062   6.722  11.029  0.00  0.00    +0.000 C 
BRANCH   6   5
ATOM      2  C   UNL     1      44.571   3.107  11.716  0.00  0.00    +0.000 C 
ATOM      3  C   UNL     1      45.351   4.067  12.618  0.00  0.00    +0.000 C 
ATOM      4  C   UNL     1      44.522   5.299  12.996  0.00  0.00    +0.000 C 
ATOM      5  N   UNL     1      44.021   6.049  11.832  0.00  0.00    +0.000 NA
ATOM     27  C   UNL     1      43.193   5.145  11.011  0.00  0.00    +0.000 C 
ATOM     28  C   UNL     1      43.918   3.871  10.557  0.00  0.00    +0.000 C 
BRANCH   2   1
ATOM      1  N   UNL     1      43.567   2.379  12.497  0.00  0.00    +0.000 NA
ATOM     29  H   UNL     1      43.184   1.618  11.936  0.00  0.00    +0.000 HD
ATOM     30  H   UNL     1      42.784   2.995  12.713  0.00  0.00    +0.000 HD
ENDBRANCH   2   1
ENDBRANCH   6   5
ENDBRANCH   7   6
BRANCH  10  11
ATOM     11  C   UNL     1      49.303   8.731  14.496  0.00  0.00    +0.000 C 
BRANCH  11  12
ATOM     12  N   UNL     1      49.383   7.854  15.633  0.00  0.00    +0.000 N 
ATOM     13  C   UNL     1      48.739   8.172  16.801  0.00  0.00    +0.000 C 
ATOM     14  O   UNL     1      48.036   9.174  16.903  0.00  0.00    +0.000 OA
ATOM     31  H   UNL     1      50.119   7.155  15.633  0.00  0.00    +0.000 HD
BRANCH  13  15
ATOM     15  C   UNL     1      48.879   7.225  17.914  0.00  0.00    +0.000 A 
ATOM     16  C   UNL     1      49.250   7.695  19.165  0.00  0.00    +0.000 A 
ATOM     17  S   UNL     1      49.338   6.479  20.356  0.00  0.00    +0.000 S 
ATOM     18  C   UNL     1      48.932   5.272  19.226  0.00  0.00    +0.000 A 
ATOM     19  N   UNL     1      48.864   3.964  19.597  0.00  0.00    +0.000 NA
ATOM     20  C   UNL     1      48.579   3.153  18.635  0.00  0.00    +0.000 A 
ATOM     21  N   UNL     1      48.344   3.529  17.337  0.00  0.00    +0.000 N 
ATOM     22  C   UNL     1      48.368   4.840  16.924  0.00  0.00    +0.000 A 
ATOM     23  O   UNL     1      48.103   5.147  15.766  0.00  0.00    +0.000 OA
ATOM     24  C   UNL     1      48.704   5.791  17.968  0.00  0.00    +0.000 A 
ATOM     32  H   UNL     1      48.114   2.843  16.634  0.00  0.00    +0.000 HD
ENDBRANCH  13  15
ENDBRANCH  11  12
ENDBRANCH  10  11
TORSDOF 6
ENDMDL
MODEL 6
REMARK VINA RESULT:    -6.506      3.796      8.217
REMARK INTER + INTRA:          -9.547
REMARK INTER:                  -8.622
REMARK INTRA:                  -0.925
REMARK UNBOUND:                -0.949
REMARK  Name = 
REMARK  6 active torsions:
REMARK  status: ('A' for Active; 'I' for Inactive)
REMARK    1  A    between atoms: N_1  and  C_2
REMARK    2  A    between atoms: N_5  and  C_6
REMARK    3  A    between atoms: C_6  and  C_7
REMARK    4  A    between atoms: C_10  and  C_11
REMARK    5  A    between atoms: C_11  and  N_12
REMARK    6  A    between atoms: C_13  and  C_15
REMARK                            x       y       z     vdW  Elec       q    Type
REMARK                         _______ _______ _______ _____ _____    ______ ____
ROOT
ATOM      7  C   UNL     1      48.890   6.931  16.712  0.00  0.00    +0.000 A 
ATOM      8  C   UNL     1      48.455   5.951  15.809  0.00  0.00    +0.000 A 
ATOM      9  C   UNL     1      48.232   6.262  14.467  0.00  0.00    +0.000 A 
ATOM     10  C   UNL     1      48.413   7.570  14.005  0.00  0.00    +0.000 A 
ATOM     25  C   UNL     1      48.748   8.572  14.926  0.00  0.00    +0.000 A 
ATOM     26  C   UNL     1      49.003   8.253  16.264  0.00  0.00    +0.000 A 
ENDROOT
BRANCH   7   6
ATOM      6  C   UNL     1      49.276   6.549  18.131  0.00  0.00    +0.000 C 
BRANCH   6   5
ATOM      2  C   UNL     1      48.186   6.042  21.643  0.00  0.00    +0.000 C 
ATOM      3  C   UNL     1      47.365   6.764  20.572  0.00  0.00    +0.000 C 
ATOM      4  C   UNL     1      47.185   5.907  19.315  0.00  0.00    +0.000 C 
ATOM      5  N   UNL     1      48.457   5.469  18.716  0.00  0.00    +0.000 NA
ATOM     27  C   UNL     1      49.207   4.693  19.722  0.00  0.00    +0.000 C 
ATOM     28  C   UNL     1      49.463   5.450  21.033  0.00  0.00    +0.000 C 
BRANCH   2   1
ATOM      1  N   UNL     1      47.379   4.999  22.285  0.00  0.00    +0.000 NA
ATOM     29  H   UNL     1      47.659   4.904  23.262  0.00  0.00    +0.000 HD
ATOM     30  H   UNL     1      47.567   4.099  21.847  0.00  0.00    +0.000 HD
ENDBRANCH   2   1
ENDBRANCH   6   5
ENDBRANCH   7   6
BRANCH  10  11
ATOM     11  C   UNL     1      48.260   7.885  12.544  0.00  0.00    +0.000 C 
BRANCH  11  12
ATOM     12  N   UNL     1      47.602   6.821  11.833  0.00  0.00    +0.000 N 
ATOM     13  C   UNL     1      46.243   6.847  11.650  0.00  0.00    +0.000 C 
ATOM     14  O   UNL     1      45.554   7.790  12.031  0.00  0.00    +0.000 OA
ATOM     31  H   UNL     1      48.115   5.954  11.710  0.00  0.00    +0.000 HD
BRANCH  13  15
ATOM     15  C   UNL     1      45.652   5.719  10.921  0.00  0.00    +0.000 A 
ATOM     16  C   UNL     1      45.820   5.633   9.546  0.00  0.00    +0.000 A 
ATOM     17  S   UNL     1      45.102   4.252   8.853  0.00  0.00    +0.000 S 
ATOM     18  C   UNL     1      44.497   3.746  10.361  0.00  0.00    +0.000 A 
ATOM     19  N   UNL     1      43.744   2.617  10.468  0.00  0.00    +0.000 NA
ATOM     20  C   UNL     1      43.324   2.368  11.663  0.00  0.00    +0.000 A 
ATOM     21  N   UNL     1      43.597   3.139  12.764  0.00  0.00    +0.000 N 
ATOM     22  C   UNL     1      44.380   4.267  12.711  0.00  0.00    +0.000 A 
ATOM     23  O   UNL     1      44.646   4.905  13.723  0.00  0.00    +0.000 OA
ATOM     24  C   UNL     1      44.862   4.600  11.382  0.00  0.00    +0.000 A 
ATOM     32  H   UNL     1      43.245   2.881  13.674  0.00  0.00    +0.000 HD
ENDBRANCH  13  15
ENDBRANCH  11  12
ENDBRANCH  10  11
TORSDOF 6
ENDMDL
MODEL 7
REMARK VINA RESULT:    -6.246      6.013      7.178
REMARK INTER + INTRA:          -9.203
REMARK INTER:                  -8.269
REMARK INTRA:                  -0.934
REMARK UNBOUND:                -0.949
REMARK  Name = 
REMARK  6 active torsions:
REMARK  status: ('A' for Active; 'I' for Inactive)
REMARK    1  A    between atoms: N_1  and  C_2
REMARK    2  A    between atoms: N_5  and  C_6
REMARK    3  A    between atoms: C_6  and  C_7
REMARK    4  A    between atoms: C_10  and  C_11
REMARK    5  A    between atoms: C_11  and  N_12
REMARK    6  A    between atoms: C_13  and  C_15
REMARK                            x       y       z     vdW  Elec       q    Type
REMARK                         _______ _______ _______ _____ _____    ______ ____
ROOT
ATOM      7  C   UNL     1      47.320   6.925  12.939  0.00  0.00    +0.000 A 
ATOM      8  C   UNL     1      47.615   7.545  11.717  0.00  0.00    +0.000 A 
ATOM      9  C   UNL     1      48.904   8.000  11.437  0.00  0.00    +0.000 A 
ATOM     10  C   UNL     1      49.921   7.868  12.388  0.00  0.00    +0.000 A 
ATOM     25  C   UNL     1      49.605   7.342  13.648  0.00  0.00    +0.000 A 
ATOM     26  C   UNL     1      48.321   6.857  13.916  0.00  0.00    +0.000 A 
ENDROOT
BRANCH   7   6
ATOM      6  C   UNL     1      45.955   6.299  13.172  0.00  0.00    +0.000 C 
BRANCH   6   5
ATOM      2  C   UNL     1      43.593   3.495  12.584  0.00  0.00    +0.000 C 
ATOM      3  C   UNL     1      43.179   4.918  12.968  0.00  0.00    +0.000 C 
ATOM      4  C   UNL     1      43.776   5.963  12.021  0.00  0.00    +0.000 C 
ATOM      5  N   UNL     1      45.245   5.909  11.937  0.00  0.00    +0.000 NA
ATOM     27  C   UNL     1      45.640   4.563  11.478  0.00  0.00    +0.000 C 
ATOM     28  C   UNL     1      45.109   3.421  12.356  0.00  0.00    +0.000 C 
BRANCH   2   1
ATOM      1  N   UNL     1      42.860   3.056  11.393  0.00  0.00    +0.000 NA
ATOM     29  H   UNL     1      42.009   2.570  11.677  0.00  0.00    +0.000 HD
ATOM     30  H   UNL     1      43.417   2.375  10.878  0.00  0.00    +0.000 HD
ENDBRANCH   2   1
ENDBRANCH   6   5
ENDBRANCH   7   6
BRANCH  10  11
ATOM     11  C   UNL     1      51.329   8.275  12.053  0.00  0.00    +0.000 C 
BRANCH  11  12
ATOM     12  N   UNL     1      51.678   7.928  10.701  0.00  0.00    +0.000 N 
ATOM     13  C   UNL     1      52.660   8.620  10.039  0.00  0.00    +0.000 C 
ATOM     14  O   UNL     1      53.305   9.513  10.583  0.00  0.00    +0.000 OA
ATOM     31  H   UNL     1      51.021   7.356  10.181  0.00  0.00    +0.000 HD
BRANCH  13  15
ATOM     15  C   UNL     1      52.948   8.206   8.661  0.00  0.00    +0.000 A 
ATOM     16  C   UNL     1      52.838   9.132   7.634  0.00  0.00    +0.000 A 
ATOM     17  S   UNL     1      53.236   8.506   6.100  0.00  0.00    +0.000 S 
ATOM     18  C   UNL     1      53.521   6.958   6.750  0.00  0.00    +0.000 A 
ATOM     19  N   UNL     1      53.876   5.919   5.945  0.00  0.00    +0.000 NA
ATOM     20  C   UNL     1      54.029   4.796   6.563  0.00  0.00    +0.000 A 
ATOM     21  N   UNL     1      53.870   4.618   7.914  0.00  0.00    +0.000 N 
ATOM     22  C   UNL     1      53.546   5.645   8.769  0.00  0.00    +0.000 A 
ATOM     23  O   UNL     1      53.461   5.462   9.979  0.00  0.00    +0.000 OA
ATOM     24  C   UNL     1      53.344   6.926   8.118  0.00  0.00    +0.000 A 
ATOM     32  H   UNL     1      54.016   3.713   8.336  0.00  0.00    +0.000 HD
ENDBRANCH  13  15
ENDBRANCH  11  12
ENDBRANCH  10  11
TORSDOF 6
ENDMDL
MODEL 8
REMARK VINA RESULT:    -6.111      4.113      8.652
REMARK INTER + INTRA:          -9.025
REMARK INTER:                  -8.031
REMARK INTRA:                  -0.994
REMARK UNBOUND:                -0.949
REMARK  Name = 
REMARK  6 active torsions:
REMARK  status: ('A' for Active; 'I' for Inactive)
REMARK    1  A    between atoms: N_1  and  C_2
REMARK    2  A    between atoms: N_5  and  C_6
REMARK    3  A    between atoms: C_6  and  C_7
REMARK    4  A    between atoms: C_10  and  C_11
REMARK    5  A    between atoms: C_11  and  N_12
REMARK    6  A    between atoms: C_13  and  C_15
REMARK                            x       y       z     vdW  Elec       q    Type
REMARK                         _______ _______ _______ _____ _____    ______ ____
ROOT
ATOM      7  C   UNL     1      49.009   8.028  16.193  0.00  0.00    +0.000 A 
ATOM      8  C   UNL     1      48.817   6.781  15.579  0.00  0.00    +0.000 A 
ATOM      9  C   UNL     1      48.318   6.692  14.280  0.00  0.00    +0.000 A 
ATOM     10  C   UNL     1      47.974   7.849  13.574  0.00  0.00    +0.000 A 
ATOM     25  C   UNL     1      48.068   9.089  14.221  0.00  0.00    +0.000 A 
ATOM     26  C   UNL     1      48.598   9.180  15.512  0.00  0.00    +0.000 A 
ENDROOT
BRANCH   7   6
ATOM      6  C   UNL     1      49.694   8.119  17.546  0.00  0.00    +0.000 C 
BRANCH   6   5
ATOM      2  C   UNL     1      48.085   9.005  20.772  0.00  0.00    +0.000 C 
ATOM      3  C   UNL     1      47.334   8.782  19.456  0.00  0.00    +0.000 C 
ATOM      4  C   UNL     1      47.676   7.429  18.825  0.00  0.00    +0.000 C 
ATOM      5  N   UNL     1      49.116   7.241  18.582  0.00  0.00    +0.000 NA
ATOM     27  C   UNL     1      49.829   7.364  19.869  0.00  0.00    +0.000 C 
ATOM     28  C   UNL     1      49.576   8.691  20.600  0.00  0.00    +0.000 C 
BRANCH   2   1
ATOM      1  N   UNL     1      47.495   8.189  21.837  0.00  0.00    +0.000 NA
ATOM     29  H   UNL     1      47.727   8.593  22.745  0.00  0.00    +0.000 HD
ATOM     30  H   UNL     1      47.909   7.258  21.827  0.00  0.00    +0.000 HD
ENDBRANCH   2   1
ENDBRANCH   6   5
ENDBRANCH   7   6
BRANCH  10  11
ATOM     11  C   UNL     1      47.522   7.759  12.143  0.00  0.00    +0.000 C 
BRANCH  11  12
ATOM     12  N   UNL     1      46.854   6.514  11.871  0.00  0.00    +0.000 N 
ATOM     13  C   UNL     1      45.485   6.459  11.821  0.00  0.00    +0.000 C 
ATOM     14  O   UNL     1      44.789   7.463  11.950  0.00  0.00    +0.000 OA
ATOM     31  H   UNL     1      47.393   5.661  11.980  0.00  0.00    +0.000 HD
BRANCH  13  15
ATOM     15  C   UNL     1      44.884   5.148  11.546  0.00  0.00    +0.000 A 
ATOM     16  C   UNL     1      44.172   4.502  12.546  0.00  0.00    +0.000 A 
ATOM     17  S   UNL     1      43.511   3.008  12.061  0.00  0.00    +0.000 S 
ATOM     18  C   UNL     1      44.200   3.149  10.511  0.00  0.00    +0.000 A 
ATOM     19  N   UNL     1      44.039   2.164   9.584  0.00  0.00    +0.000 NA
ATOM     20  C   UNL     1      44.640   2.385   8.463  0.00  0.00    +0.000 A 
ATOM     21  N   UNL     1      45.377   3.506   8.179  0.00  0.00    +0.000 N 
ATOM     22  C   UNL     1      45.538   4.540   9.070  0.00  0.00    +0.000 A 
ATOM     23  O   UNL     1      46.163   5.551   8.765  0.00  0.00    +0.000 OA
ATOM     24  C   UNL     1      44.896   4.330  10.355  0.00  0.00    +0.000 A 
ATOM     32  H   UNL     1      45.813   3.621   7.276  0.00  0.00    +0.000 HD
ENDBRANCH  13  15
ENDBRANCH  11  12
ENDBRANCH  10  11
TORSDOF 6
ENDMDL
MODEL 9
REMARK VINA RESULT:    -5.994      5.418      8.753
REMARK INTER + INTRA:          -8.870
REMARK INTER:                  -8.057
REMARK INTRA:                  -0.813
REMARK UNBOUND:                -0.949
REMARK  Name = 
REMARK  6 active torsions:
REMARK  status: ('A' for Active; 'I' for Inactive)
REMARK    1  A    between atoms: N_1  and  C_2
REMARK    2  A    between atoms: N_5  and  C_6
REMARK    3  A    between atoms: C_6  and  C_7
REMARK    4  A    between atoms: C_10  and  C_11
REMARK    5  A    between atoms: C_11  and  N_12
REMARK    6  A    between atoms: C_13  and  C_15
REMARK                            x       y       z     vdW  Elec       q    Type
REMARK                         _______ _______ _______ _____ _____    ______ ____
ROOT
ATOM      7  C   UNL     1      50.864   8.857  11.491  0.00  0.00    +0.000 A 
ATOM      8  C   UNL     1      49.942   9.908  11.375  0.00  0.00    +0.000 A 
ATOM      9  C   UNL     1      48.609   9.735  11.749  0.00  0.00    +0.000 A 
ATOM     10  C   UNL     1      48.162   8.497  12.223  0.00  0.00    +0.000 A 
ATOM     25  C   UNL     1      49.057   7.418  12.243  0.00  0.00    +0.000 A 
ATOM     26  C   UNL     1      50.401   7.600  11.898  0.00  0.00    +0.000 A 
ENDROOT
BRANCH   7   6
ATOM      6  C   UNL     1      52.340   9.100  11.226  0.00  0.00    +0.000 C 
BRANCH   6   5
ATOM      2  C   UNL     1      54.789   6.806   9.638  0.00  0.00    +0.000 C 
ATOM      3  C   UNL     1      53.289   6.528   9.763  0.00  0.00    +0.000 C 
ATOM      4  C   UNL     1      52.445   7.672   9.193  0.00  0.00    +0.000 C 
ATOM      5  N   UNL     1      52.734   8.978   9.808  0.00  0.00    +0.000 NA
ATOM     27  C   UNL     1      54.162   9.288   9.605  0.00  0.00    +0.000 C 
ATOM     28  C   UNL     1      55.118   8.215  10.147  0.00  0.00    +0.000 C 
BRANCH   2   1
ATOM      1  N   UNL     1      55.223   6.635   8.248  0.00  0.00    +0.000 NA
ATOM     29  H   UNL     1      55.713   7.474   7.938  0.00  0.00    +0.000 HD
ATOM     30  H   UNL     1      54.409   6.542   7.642  0.00  0.00    +0.000 HD
ENDBRANCH   2   1
ENDBRANCH   6   5
ENDBRANCH   7   6
BRANCH  10  11
ATOM     11  C   UNL     1      46.750   8.337  12.710  0.00  0.00    +0.000 C 
BRANCH  11  12
ATOM     12  N   UNL     1      46.261   6.999  12.503  0.00  0.00    +0.000 N 
ATOM     13  C   UNL     1      45.145   6.780  11.738  0.00  0.00    +0.000 C 
ATOM     14  O   UNL     1      44.560   7.696  11.164  0.00  0.00    +0.000 OA
ATOM     31  H   UNL     1      46.595   6.278  13.134  0.00  0.00    +0.000 HD
BRANCH  13  15
ATOM     15  C   UNL     1      44.710   5.386  11.585  0.00  0.00    +0.000 A 
ATOM     16  C   UNL     1      44.063   4.756  12.638  0.00  0.00    +0.000 A 
ATOM     17  S   UNL     1      43.595   3.154  12.293  0.00  0.00    +0.000 S 
ATOM     18  C   UNL     1      44.287   3.232  10.740  0.00  0.00    +0.000 A 
ATOM     19  N   UNL     1      44.260   2.152   9.910  0.00  0.00    +0.000 NA
ATOM     20  C   UNL     1      44.849   2.339   8.776  0.00  0.00    +0.000 A 
ATOM     21  N   UNL     1      45.452   3.509   8.391  0.00  0.00    +0.000 N 
ATOM     22  C   UNL     1      45.473   4.634   9.181  0.00  0.00    +0.000 A 
ATOM     23  O   UNL     1      45.977   5.680   8.785  0.00  0.00    +0.000 OA
ATOM     24  C   UNL     1      44.839   4.469  10.476  0.00  0.00    +0.000 A 
ATOM     32  H   UNL     1      45.886   3.592   7.483  0.00  0.00    +0.000 HD
ENDBRANCH  13  15
ENDBRANCH  11  12
ENDBRANCH  10  11
TORSDOF 6
ENDMDL
