MODEL 1
REMARK VINA RESULT:    -6.987      0.000      0.000
REMARK INTER + INTRA:         -12.125
REMARK INTER:                 -10.868
REMARK INTRA:                  -1.257
REMARK UNBOUND:                -1.257
REMARK  Name = 
REMARK  12 active torsions:
REMARK  status: ('A' for Active; 'I' for Inactive)
REMARK    1  A    between atoms: N_1  and  C_2
REMARK    2  A    between atoms: N_10  and  C_11
REMARK    3  A    between atoms: C_13  and  C_14
REMARK    4  A    between atoms: C_14  and  S_15
REMARK    5  A    between atoms: S_15  and  C_16
REMARK    6  A    between atoms: C_16  and  C_17
REMARK    7  A    between atoms: C_17  and  C_18
REMARK    8  A    between atoms: C_18  and  N_19
REMARK    9  A    between atoms: C_18  and  C_20
REMARK   10  A    between atoms: C_20  and  O_22
REMARK   11  A    between atoms: C_23  and  O_24
REMARK   12  A    between atoms: C_25  and  O_26
REMARK                            x       y       z     vdW  Elec       q    Type
REMARK                         _______ _______ _______ _____ _____    ______ ____
ROOT
ATOM     11  C   UNK     1      44.368   3.764   9.939  0.00  0.00    +0.000 C 
ATOM     12  O   UNK     1      43.588   4.974   9.819  0.00  0.00    +0.000 OA
ATOM     13  C   UNK     1      43.367   5.544  11.131  0.00  0.00    +0.000 C 
ATOM     23  C   UNK     1      43.883   4.516  12.131  0.00  0.00    +0.000 C 
ATOM     25  C   UNK     1      44.951   3.760  11.352  0.00  0.00    +0.000 C 
ENDROOT
BRANCH  11  10
ATOM      2  C   UNK     1      47.516   2.087   6.668  0.00  0.00    +0.000 A 
ATOM      3  N   UNK     1      47.288   0.783   6.949  0.00  0.00    +0.000 NA
ATOM      4  C   UNK     1      46.401   0.483   7.924  0.00  0.00    +0.000 A 
ATOM      5  N   UNK     1      45.662   1.326   8.675  0.00  0.00    +0.000 NA
ATOM      6  C   UNK     1      45.913   2.603   8.346  0.00  0.00    +0.000 A 
ATOM      7  C   UNK     1      46.793   3.061   7.378  0.00  0.00    +0.000 A 
ATOM      8  N   UNK     1      46.768   4.440   7.305  0.00  0.00    +0.000 NA
ATOM      9  C   UNK     1      45.887   4.806   8.213  0.00  0.00    +0.000 A 
ATOM     10  N   UNK     1      45.358   3.735   8.883  0.00  0.00    +0.000 N 
BRANCH   2   1
ATOM      1  N   UNK     1      48.448   2.399   5.687  0.00  0.00    +0.000 N 
ATOM     27  H   UNK     1      48.439   1.748   4.914  0.00  0.00    +0.000 HD
ATOM     28  H   UNK     1      48.507   3.390   5.480  0.00  0.00    +0.000 HD
ENDBRANCH   2   1
ENDBRANCH  11  10
BRANCH  25  26
ATOM     26  O   UNK     1      45.140   2.457  11.895  0.00  0.00    +0.000 OA
ATOM     33  H   UNK     1      44.903   1.822  11.186  0.00  0.00    +0.000 HD
ENDBRANCH  25  26
BRANCH  23  24
ATOM     24  O   UNK     1      42.848   3.582  12.497  0.00  0.00    +0.000 OA
ATOM     32  H   UNK     1      42.153   4.049  12.998  0.00  0.00    +0.000 HD
ENDBRANCH  23  24
BRANCH  13  14
ATOM     14  C   UNK     1      44.070   6.903  11.250  0.00  0.00    +0.000 C 
BRANCH  14  15
ATOM     15  S   UNK     1      45.070   6.904  12.777  0.00  0.00    +0.000 S 
BRANCH  15  16
ATOM     16  C   UNK     1      46.738   6.810  12.063  0.00  0.00    +0.000 C 
BRANCH  16  17
ATOM     17  C   UNK     1      47.615   5.862  12.887  0.00  0.00    +0.000 C 
BRANCH  17  18
ATOM     18  C   UNK     1      47.137   5.611  14.325  0.00  0.00    +0.000 C 
BRANCH  18  19
ATOM     19  N   UNK     1      47.957   6.428  15.252  0.00  0.00    +0.000 NA
ATOM     29  H   UNK     1      48.131   7.331  14.805  0.00  0.00    +0.000 HD
ATOM     30  H   UNK     1      48.883   6.005  15.324  0.00  0.00    +0.000 HD
ENDBRANCH  18  19
BRANCH  18  20
ATOM     20  C   UNK     1      47.264   4.121  14.695  0.00  0.00    +0.000 C 
ATOM     21  O   UNK     1      47.189   3.205  13.891  0.00  0.00    +0.000 OA
BRANCH  20  22
ATOM     22  O   UNK     1      47.447   3.905  16.018  0.00  0.00    +0.000 OA
ATOM     31  H   UNK     1      47.253   2.985  16.299  0.00  0.00    +0.000 HD
ENDBRANCH  20  22
ENDBRANCH  18  20
ENDBRANCH  17  18
ENDBRANCH  16  17
ENDBRANCH  15  16
ENDBRANCH  14  15
ENDBRANCH  13  14
TORSDOF 12
ENDMDL
MODEL 2
REMARK VINA RESULT:    -6.941      2.725      6.893
REMARK INTER + INTRA:         -12.053
REMARK INTER:                 -11.162
REMARK INTRA:                  -0.891
REMARK UNBOUND:                -1.257
REMARK  Name = 
REMARK  12 active torsions:
REMARK  status: ('A' for Active; 'I' for Inactive)
REMARK    1  A    between atoms: N_1  and  C_2
REMARK    2  A    between atoms: N_10  and  C_11
REMARK    3  A    between atoms: C_13  and  C_14
REMARK    4  A    between atoms: C_14  and  S_15
REMARK    5  A    between atoms: S_15  and  C_16
REMARK    6  A    between atoms: C_16  and  C_17
REMARK    7  A    between atoms: C_17  and  C_18
REMARK    8  A    between atoms: C_18  and  N_19
REMARK    9  A    between atoms: C_18  and  C_20
REMARK   10  A    between atoms: C_20  and  O_22
REMARK   11  A    between atoms: C_23  and  O_24
REMARK   12  A    between atoms: C_25  and  O_26
REMARK                            x       y       z     vdW  Elec       q    Type
REMARK                         _______ _______ _______ _____ _____    ______ ____
ROOT
ATOM     11  C   UNK     1      45.278   3.725  12.369  0.00  0.00    +0.000 C 
ATOM     12  O   UNK     1      45.587   3.369  11.004  0.00  0.00    +0.000 OA
ATOM     13  C   UNK     1      44.361   3.188  10.258  0.00  0.00    +0.000 C 
ATOM     23  C   UNK     1      43.231   3.252  11.279  0.00  0.00    +0.000 C 
ATOM     25  C   UNK     1      43.801   4.118  12.393  0.00  0.00    +0.000 C 
ENDROOT
BRANCH  11  10
ATOM      2  C   UNK     1      48.396   6.242  15.084  0.00  0.00    +0.000 A 
ATOM      3  N   UNK     1      48.420   5.342  16.094  0.00  0.00    +0.000 NA
ATOM      4  C   UNK     1      47.648   4.237  15.986  0.00  0.00    +0.000 A 
ATOM      5  N   UNK     1      46.841   3.873  14.968  0.00  0.00    +0.000 NA
ATOM      6  C   UNK     1      46.866   4.790  13.988  0.00  0.00    +0.000 A 
ATOM      7  C   UNK     1      47.599   5.966  13.960  0.00  0.00    +0.000 A 
ATOM      8  N   UNK     1      47.390   6.646  12.777  0.00  0.00    +0.000 NA
ATOM      9  C   UNK     1      46.546   5.892  12.102  0.00  0.00    +0.000 A 
ATOM     10  N   UNK     1      46.183   4.771  12.800  0.00  0.00    +0.000 N 
BRANCH   2   1
ATOM      1  N   UNK     1      49.164   7.392  15.205  0.00  0.00    +0.000 N 
ATOM     27  H   UNK     1      50.146   7.196  15.346  0.00  0.00    +0.000 HD
ATOM     28  H   UNK     1      48.910   8.124  14.552  0.00  0.00    +0.000 HD
ENDBRANCH   2   1
ENDBRANCH  11  10
BRANCH  25  26
ATOM     26  O   UNK     1      43.149   3.839  13.628  0.00  0.00    +0.000 OA
ATOM     33  H   UNK     1      43.640   3.098  14.041  0.00  0.00    +0.000 HD
ENDBRANCH  25  26
BRANCH  23  24
ATOM     24  O   UNK     1      42.949   1.947  11.823  0.00  0.00    +0.000 OA
ATOM     32  H   UNK     1      43.646   1.706  12.463  0.00  0.00    +0.000 HD
ENDBRANCH  23  24
BRANCH  13  14
ATOM     14  C   UNK     1      44.240   4.253   9.160  0.00  0.00    +0.000 C 
BRANCH  14  15
ATOM     15  S   UNK     1      45.889   4.512   8.421  0.00  0.00    +0.000 S 
BRANCH  15  16
ATOM     16  C   UNK     1      45.858   3.239   7.124  0.00  0.00    +0.000 C 
BRANCH  16  17
ATOM     17  C   UNK     1      46.606   1.987   7.592  0.00  0.00    +0.000 C 
BRANCH  17  18
ATOM     18  C   UNK     1      47.886   1.657   6.811  0.00  0.00    +0.000 C 
BRANCH  18  19
ATOM     19  N   UNK     1      48.672   2.901   6.631  0.00  0.00    +0.000 NA
ATOM     29  H   UNK     1      48.748   3.360   7.542  0.00  0.00    +0.000 HD
ATOM     30  H   UNK     1      48.124   3.554   6.071  0.00  0.00    +0.000 HD
ENDBRANCH  18  19
BRANCH  18  20
ATOM     20  C   UNK     1      47.549   1.053   5.434  0.00  0.00    +0.000 C 
ATOM     21  O   UNK     1      46.952  -0.000   5.274  0.00  0.00    +0.000 OA
BRANCH  20  22
ATOM     22  O   UNK     1      48.000   1.791   4.393  0.00  0.00    +0.000 OA
ATOM     31  H   UNK     1      48.339   2.674   4.652  0.00  0.00    +0.000 HD
ENDBRANCH  20  22
ENDBRANCH  18  20
ENDBRANCH  17  18
ENDBRANCH  16  17
ENDBRANCH  15  16
ENDBRANCH  14  15
ENDBRANCH  13  14
TORSDOF 12
ENDMDL
MODEL 3
REMARK VINA RESULT:    -6.939      2.765      6.764
REMARK INTER + INTRA:         -12.050
REMARK INTER:                 -11.654
REMARK INTRA:                  -0.396
REMARK UNBOUND:                -1.257
REMARK  Name = 
REMARK  12 active torsions:
REMARK  status: ('A' for Active; 'I' for Inactive)
REMARK    1  A    between atoms: N_1  and  C_2
REMARK    2  A    between atoms: N_10  and  C_11
REMARK    3  A    between atoms: C_13  and  C_14
REMARK    4  A    between atoms: C_14  and  S_15
REMARK    5  A    between atoms: S_15  and  C_16
REMARK    6  A    between atoms: C_16  and  C_17
REMARK    7  A    between atoms: C_17  and  C_18
REMARK    8  A    between atoms: C_18  and  N_19
REMARK    9  A    between atoms: C_18  and  C_20
REMARK   10  A    between atoms: C_20  and  O_22
REMARK   11  A    between atoms: C_23  and  O_24
REMARK   12  A    between atoms: C_25  and  O_26
REMARK                            x       y       z     vdW  Elec       q    Type
REMARK                         _______ _______ _______ _____ _____    ______ ____
ROOT
ATOM     11  C   UNK     1      44.560   6.124  12.888  0.00  0.00    +0.000 C 
ATOM     12  O   UNK     1      44.056   4.809  13.206  0.00  0.00    +0.000 OA
ATOM     13  C   UNK     1      43.081   4.408  12.215  0.00  0.00    +0.000 C 
ATOM     23  C   UNK     1      42.835   5.633  11.343  0.00  0.00    +0.000 C 
ATOM     25  C   UNK     1      44.136   6.417  11.449  0.00  0.00    +0.000 C 
ENDROOT
BRANCH  11  10
ATOM      2  C   UNK     1      49.087   7.766  13.375  0.00  0.00    +0.000 A 
ATOM      3  N   UNK     1      48.759   9.064  13.180  0.00  0.00    +0.000 NA
ATOM      4  C   UNK     1      47.465   9.367  12.933  0.00  0.00    +0.000 A 
ATOM      5  N   UNK     1      46.404   8.536  12.871  0.00  0.00    +0.000 NA
ATOM      6  C   UNK     1      46.781   7.266  13.088  0.00  0.00    +0.000 A 
ATOM      7  C   UNK     1      48.062   6.804  13.346  0.00  0.00    +0.000 A 
ATOM      8  N   UNK     1      48.062   5.437  13.539  0.00  0.00    +0.000 NA
ATOM      9  C   UNK     1      46.801   5.081  13.401  0.00  0.00    +0.000 A 
ATOM     10  N   UNK     1      45.992   6.145  13.106  0.00  0.00    +0.000 N 
BRANCH   2   1
ATOM      1  N   UNK     1      50.419   7.447  13.599  0.00  0.00    +0.000 N 
ATOM     27  H   UNK     1      50.696   7.567  14.564  0.00  0.00    +0.000 HD
ATOM     28  H   UNK     1      50.728   6.614  13.111  0.00  0.00    +0.000 HD
ENDBRANCH   2   1
ENDBRANCH  11  10
BRANCH  25  26
ATOM     26  O   UNK     1      43.912   7.798  11.183  0.00  0.00    +0.000 OA
ATOM     33  H   UNK     1      44.291   8.293  11.939  0.00  0.00    +0.000 HD
ENDBRANCH  25  26
BRANCH  23  24
ATOM     24  O   UNK     1      41.774   6.448  11.879  0.00  0.00    +0.000 OA
ATOM     32  H   UNK     1      42.142   7.298  12.185  0.00  0.00    +0.000 HD
ENDBRANCH  23  24
BRANCH  13  14
ATOM     14  C   UNK     1      43.590   3.197  11.421  0.00  0.00    +0.000 C 
BRANCH  14  15
ATOM     15  S   UNK     1      44.265   3.792   9.832  0.00  0.00    +0.000 S 
BRANCH  15  16
ATOM     16  C   UNK     1      45.007   2.254   9.209  0.00  0.00    +0.000 C 
BRANCH  16  17
ATOM     17  C   UNK     1      45.444   2.430   7.751  0.00  0.00    +0.000 C 
BRANCH  17  18
ATOM     18  C   UNK     1      46.856   3.001   7.554  0.00  0.00    +0.000 C 
BRANCH  18  19
ATOM     19  N   UNK     1      46.752   4.313   6.873  0.00  0.00    +0.000 NA
ATOM     29  H   UNK     1      46.906   5.044   7.572  0.00  0.00    +0.000 HD
ATOM     30  H   UNK     1      45.784   4.451   6.580  0.00  0.00    +0.000 HD
ENDBRANCH  18  19
BRANCH  18  20
ATOM     20  C   UNK     1      47.723   2.045   6.711  0.00  0.00    +0.000 C 
ATOM     21  O   UNK     1      47.414   0.894   6.443  0.00  0.00    +0.000 OA
BRANCH  20  22
ATOM     22  O   UNK     1      48.890   2.593   6.300  0.00  0.00    +0.000 OA
ATOM     31  H   UNK     1      48.782   3.283   5.611  0.00  0.00    +0.000 HD
ENDBRANCH  20  22
ENDBRANCH  18  20
ENDBRANCH  17  18
ENDBRANCH  16  17
ENDBRANCH  15  16
ENDBRANCH  14  15
ENDBRANCH  13  14
TORSDOF 12
ENDMDL
MODEL 4
REMARK VINA RESULT:    -6.623      4.077      5.489
REMARK INTER + INTRA:         -11.558
REMARK INTER:                 -10.278
REMARK INTRA:                  -1.281
REMARK UNBOUND:                -1.257
REMARK  Name = 
REMARK  12 active torsions:
REMARK  status: ('A' for Active; 'I' for Inactive)
REMARK    1  A    between atoms: N_1  and  C_2
REMARK    2  A    between atoms: N_10  and  C_11
REMARK    3  A    between atoms: C_13  and  C_14
REMARK    4  A    between atoms: C_14  and  S_15
REMARK    5  A    between atoms: S_15  and  C_16
REMARK    6  A    between atoms: C_16  and  C_17
REMARK    7  A    between atoms: C_17  and  C_18
REMARK    8  A    between atoms: C_18  and  N_19
REMARK    9  A    between atoms: C_18  and  C_20
REMARK   10  A    between atoms: C_20  and  O_22
REMARK   11  A    between atoms: C_23  and  O_24
REMARK   12  A    between atoms: C_25  and  O_26
REMARK                            x       y       z     vdW  Elec       q    Type
REMARK                         _______ _______ _______ _____ _____    ______ ____
ROOT
ATOM     11  C   UNK     1      46.718   7.210  12.359  0.00  0.00    +0.000 C 
ATOM     12  O   UNK     1      48.046   7.297  12.921  0.00  0.00    +0.000 OA
ATOM     13  C   UNK     1      48.215   8.575  13.578  0.00  0.00    +0.000 C 
ATOM     23  C   UNK     1      46.978   9.395  13.233  0.00  0.00    +0.000 C 
ATOM     25  C   UNK     1      45.906   8.343  12.986  0.00  0.00    +0.000 C 
ENDROOT
BRANCH  11  10
ATOM      2  C   UNK     1      43.875   3.302  12.101  0.00  0.00    +0.000 A 
ATOM      3  N   UNK     1      43.045   3.828  11.171  0.00  0.00    +0.000 NA
ATOM      4  C   UNK     1      43.280   5.087  10.739  0.00  0.00    +0.000 A 
ATOM      5  N   UNK     1      44.274   5.925  11.098  0.00  0.00    +0.000 NA
ATOM      6  C   UNK     1      45.077   5.351  12.008  0.00  0.00    +0.000 A 
ATOM      7  C   UNK     1      44.959   4.079  12.545  0.00  0.00    +0.000 A 
ATOM      8  N   UNK     1      45.982   3.826  13.436  0.00  0.00    +0.000 NA
ATOM      9  C   UNK     1      46.706   4.927  13.436  0.00  0.00    +0.000 A 
ATOM     10  N   UNK     1      46.188   5.885  12.606  0.00  0.00    +0.000 N 
BRANCH   2   1
ATOM      1  N   UNK     1      43.619   2.021  12.567  0.00  0.00    +0.000 N 
ATOM     27  H   UNK     1      44.066   1.827  13.453  0.00  0.00    +0.000 HD
ATOM     28  H   UNK     1      42.657   1.723  12.440  0.00  0.00    +0.000 HD
ENDBRANCH   2   1
ENDBRANCH  11  10
BRANCH  25  26
ATOM     26  O   UNK     1      44.884   8.858  12.139  0.00  0.00    +0.000 OA
ATOM     33  H   UNK     1      44.553   9.676  12.566  0.00  0.00    +0.000 HD
ENDBRANCH  25  26
BRANCH  23  24
ATOM     24  O   UNK     1      47.171  10.136  12.011  0.00  0.00    +0.000 OA
ATOM     32  H   UNK     1      48.065  10.526  12.007  0.00  0.00    +0.000 HD
ENDBRANCH  23  24
BRANCH  13  14
ATOM     14  C   UNK     1      48.405   8.380  15.088  0.00  0.00    +0.000 C 
BRANCH  14  15
ATOM     15  S   UNK     1      49.224   6.772  15.365  0.00  0.00    +0.000 S 
BRANCH  15  16
ATOM     16  C   UNK     1      49.335   6.782  17.179  0.00  0.00    +0.000 C 
BRANCH  16  17
ATOM     17  C   UNK     1      48.912   5.421  17.742  0.00  0.00    +0.000 C 
BRANCH  17  18
ATOM     18  C   UNK     1      47.501   4.959  17.350  0.00  0.00    +0.000 C 
BRANCH  18  19
ATOM     19  N   UNK     1      46.586   5.184  18.495  0.00  0.00    +0.000 NA
ATOM     29  H   UNK     1      46.806   4.491  19.214  0.00  0.00    +0.000 HD
ATOM     30  H   UNK     1      45.638   4.947  18.205  0.00  0.00    +0.000 HD
ENDBRANCH  18  19
BRANCH  18  20
ATOM     20  C   UNK     1      47.497   3.466  16.968  0.00  0.00    +0.000 C 
ATOM     21  O   UNK     1      48.182   2.983  16.080  0.00  0.00    +0.000 OA
BRANCH  20  22
ATOM     22  O   UNK     1      46.637   2.721  17.701  0.00  0.00    +0.000 OA
ATOM     31  H   UNK     1      45.772   2.571  17.264  0.00  0.00    +0.000 HD
ENDBRANCH  20  22
ENDBRANCH  18  20
ENDBRANCH  17  18
ENDBRANCH  16  17
ENDBRANCH  15  16
ENDBRANCH  14  15
ENDBRANCH  13  14
TORSDOF 12
ENDMDL
MODEL 5
REMARK VINA RESULT:    -5.986      2.966      6.918
REMARK INTER + INTRA:         -10.568
REMARK INTER:                  -9.855
REMARK INTRA:                  -0.713
REMARK UNBOUND:                -1.257
REMARK  Name = 
REMARK  12 active torsions:
REMARK  status: ('A' for Active; 'I' for Inactive)
REMARK    1  A    between atoms: N_1  and  C_2
REMARK    2  A    between atoms: N_10  and  C_11
REMARK    3  A    between atoms: C_13  and  C_14
REMARK    4  A    between atoms: C_14  and  S_15
REMARK    5  A    between atoms: S_15  and  C_16
REMARK    6  A    between atoms: C_16  and  C_17
REMARK    7  A    between atoms: C_17  and  C_18
REMARK    8  A    between atoms: C_18  and  N_19
REMARK    9  A    between atoms: C_18  and  C_20
REMARK   10  A    between atoms: C_20  and  O_22
REMARK   11  A    between atoms: C_23  and  O_24
REMARK   12  A    between atoms: C_25  and  O_26
REMARK                            x       y       z     vdW  Elec       q    Type
REMARK                         _______ _______ _______ _____ _____    ______ ____
ROOT
ATOM     11  C   UNK     1      44.888   4.984  12.746  0.00  0.00    +0.000 C 
ATOM     12  O   UNK     1      45.514   4.120  11.772  0.00  0.00    +0.000 OA
ATOM     13  C   UNK     1      44.535   3.202  11.233  0.00  0.00    +0.000 C 
ATOM     23  C   UNK     1      43.273   3.391  12.067  0.00  0.00    +0.000 C 
ATOM     25  C   UNK     1      43.379   4.828  12.559  0.00  0.00    +0.000 C 
ENDROOT
BRANCH  11  10
ATOM      2  C   UNK     1      47.713   8.903  13.041  0.00  0.00    +0.000 A 
ATOM      3  N   UNK     1      48.666   8.300  13.787  0.00  0.00    +0.000 NA
ATOM      4  C   UNK     1      48.483   7.008  14.140  0.00  0.00    +0.000 A 
ATOM      5  N   UNK     1      47.456   6.190  13.827  0.00  0.00    +0.000 NA
ATOM      6  C   UNK     1      46.548   6.831  13.074  0.00  0.00    +0.000 A 
ATOM      7  C   UNK     1      46.598   8.147  12.641  0.00  0.00    +0.000 A 
ATOM      8  N   UNK     1      45.496   8.450  11.865  0.00  0.00    +0.000 NA
ATOM      9  C   UNK     1      44.795   7.335  11.830  0.00  0.00    +0.000 A 
ATOM     10  N   UNK     1      45.377   6.335  12.562  0.00  0.00    +0.000 N 
BRANCH   2   1
ATOM      1  N   UNK     1      47.885  10.238  12.702  0.00  0.00    +0.000 N 
ATOM     27  H   UNK     1      48.846  10.471  12.492  0.00  0.00    +0.000 HD
ATOM     28  H   UNK     1      47.159  10.602  12.094  0.00  0.00    +0.000 HD
ENDBRANCH   2   1
ENDBRANCH  11  10
BRANCH  25  26
ATOM     26  O   UNK     1      42.628   5.004  13.756  0.00  0.00    +0.000 OA
ATOM     33  H   UNK     1      43.274   5.010  14.493  0.00  0.00    +0.000 HD
ENDBRANCH  25  26
BRANCH  23  24
ATOM     24  O   UNK     1      43.276   2.521  13.216  0.00  0.00    +0.000 OA
ATOM     32  H   UNK     1      43.917   2.854  13.873  0.00  0.00    +0.000 HD
ENDBRANCH  23  24
BRANCH  13  14
ATOM     14  C   UNK     1      44.313   3.473   9.739  0.00  0.00    +0.000 C 
BRANCH  14  15
ATOM     15  S   UNK     1      45.591   2.575   8.794  0.00  0.00    +0.000 S 
BRANCH  15  16
ATOM     16  C   UNK     1      45.314   3.278   7.141  0.00  0.00    +0.000 C 
BRANCH  16  17
ATOM     17  C   UNK     1      46.616   3.264   6.334  0.00  0.00    +0.000 C 
BRANCH  17  18
ATOM     18  C   UNK     1      47.628   2.183   6.742  0.00  0.00    +0.000 C 
BRANCH  18  19
ATOM     19  N   UNK     1      48.997   2.673   6.452  0.00  0.00    +0.000 NA
ATOM     29  H   UNK     1      49.658   2.078   6.956  0.00  0.00    +0.000 HD
ATOM     30  H   UNK     1      49.111   3.590   6.883  0.00  0.00    +0.000 HD
ENDBRANCH  18  19
BRANCH  18  20
ATOM     20  C   UNK     1      47.372   0.872   5.972  0.00  0.00    +0.000 C 
ATOM     21  O   UNK     1      47.556   0.732   4.774  0.00  0.00    +0.000 OA
BRANCH  20  22
ATOM     22  O   UNK     1      46.895  -0.128   6.750  0.00  0.00    +0.000 OA
ATOM     31  H   UNK     1      47.430  -0.949   6.711  0.00  0.00    +0.000 HD
ENDBRANCH  20  22
ENDBRANCH  18  20
ENDBRANCH  17  18
ENDBRANCH  16  17
ENDBRANCH  15  16
ENDBRANCH  14  15
ENDBRANCH  13  14
TORSDOF 12
ENDMDL
MODEL 6
REMARK VINA RESULT:    -5.946      4.413      9.133
REMARK INTER + INTRA:         -10.505
REMARK INTER:                  -9.526
REMARK INTRA:                  -0.979
REMARK UNBOUND:                -1.257
REMARK  Name = 
REMARK  12 active torsions:
REMARK  status: ('A' for Active; 'I' for Inactive)
REMARK    1  A    between atoms: N_1  and  C_2
REMARK    2  A    between atoms: N_10  and  C_11
REMARK    3  A    between atoms: C_13  and  C_14
REMARK    4  A    between atoms: C_14  and  S_15
REMARK    5  A    between atoms: S_15  and  C_16
REMARK    6  A    between atoms: C_16  and  C_17
REMARK    7  A    between atoms: C_17  and  C_18
REMARK    8  A    between atoms: C_18  and  N_19
REMARK    9  A    between atoms: C_18  and  C_20
REMARK   10  A    between atoms: C_20  and  O_22
REMARK   11  A    between atoms: C_23  and  O_24
REMARK   12  A    between atoms: C_25  and  O_26
REMARK                            x       y       z     vdW  Elec       q    Type
REMARK                         _______ _______ _______ _____ _____    ______ ____
ROOT
ATOM     11  C   UNK     1      48.435   5.073  16.610  0.00  0.00    +0.000 C 
ATOM     12  O   UNK     1      48.808   5.754  15.392  0.00  0.00    +0.000 OA
ATOM     13  C   UNK     1      47.912   5.368  14.323  0.00  0.00    +0.000 C 
ATOM     23  C   UNK     1      47.055   4.235  14.878  0.00  0.00    +0.000 C 
ATOM     25  C   UNK     1      47.038   4.498  16.377  0.00  0.00    +0.000 C 
ENDROOT
BRANCH  11  10
ATOM      2  C   UNK     1      48.720   6.795  21.124  0.00  0.00    +0.000 A 
ATOM      3  N   UNK     1      48.726   5.576  21.710  0.00  0.00    +0.000 NA
ATOM      4  C   UNK     1      48.640   4.483  20.919  0.00  0.00    +0.000 A 
ATOM      5  N   UNK     1      48.567   4.425  19.573  0.00  0.00    +0.000 NA
ATOM      6  C   UNK     1      48.580   5.658  19.041  0.00  0.00    +0.000 A 
ATOM      7  C   UNK     1      48.659   6.863  19.721  0.00  0.00    +0.000 A 
ATOM      8  N   UNK     1      48.671   7.924  18.839  0.00  0.00    +0.000 NA
ATOM      9  C   UNK     1      48.602   7.369  17.646  0.00  0.00    +0.000 A 
ATOM     10  N   UNK     1      48.523   6.003  17.716  0.00  0.00    +0.000 N 
BRANCH   2   1
ATOM      1  N   UNK     1      48.779   7.919  21.935  0.00  0.00    +0.000 N 
ATOM     27  H   UNK     1      48.870   7.693  22.916  0.00  0.00    +0.000 HD
ATOM     28  H   UNK     1      49.354   8.665  21.560  0.00  0.00    +0.000 HD
ENDBRANCH   2   1
ENDBRANCH  11  10
BRANCH  25  26
ATOM     26  O   UNK     1      46.782   3.295  17.094  0.00  0.00    +0.000 OA
ATOM     33  H   UNK     1      47.630   2.804  17.127  0.00  0.00    +0.000 HD
ENDBRANCH  25  26
BRANCH  23  24
ATOM     24  O   UNK     1      47.679   2.955  14.653  0.00  0.00    +0.000 OA
ATOM     32  H   UNK     1      48.333   3.036  13.934  0.00  0.00    +0.000 HD
ENDBRANCH  23  24
BRANCH  13  14
ATOM     14  C   UNK     1      47.085   6.573  13.855  0.00  0.00    +0.000 C 
BRANCH  14  15
ATOM     15  S   UNK     1      46.554   6.275  12.134  0.00  0.00    +0.000 S 
BRANCH  15  16
ATOM     16  C   UNK     1      44.770   6.583  12.296  0.00  0.00    +0.000 C 
BRANCH  16  17
ATOM     17  C   UNK     1      43.987   5.662  11.355  0.00  0.00    +0.000 C 
BRANCH  17  18
ATOM     18  C   UNK     1      42.980   4.727  12.040  0.00  0.00    +0.000 C 
BRANCH  18  19
ATOM     19  N   UNK     1      42.649   5.276  13.377  0.00  0.00    +0.000 NA
ATOM     29  H   UNK     1      42.676   6.297  13.313  0.00  0.00    +0.000 HD
ATOM     30  H   UNK     1      43.408   5.048  14.019  0.00  0.00    +0.000 HD
ENDBRANCH  18  19
BRANCH  18  20
ATOM     20  C   UNK     1      43.562   3.308  12.192  0.00  0.00    +0.000 C 
ATOM     21  O   UNK     1      44.612   3.054  12.760  0.00  0.00    +0.000 OA
BRANCH  20  22
ATOM     22  O   UNK     1      42.807   2.348  11.609  0.00  0.00    +0.000 OA
ATOM     31  H   UNK     1      43.161   1.441  11.726  0.00  0.00    +0.000 HD
ENDBRANCH  20  22
ENDBRANCH  18  20
ENDBRANCH  17  18
ENDBRANCH  16  17
ENDBRANCH  15  16
ENDBRANCH  14  15
ENDBRANCH  13  14
TORSDOF 12
ENDMDL
MODEL 7
REMARK VINA RESULT:    -5.855      1.741      1.980
REMARK INTER + INTRA:         -10.365
REMARK INTER:                 -10.109
REMARK INTRA:                  -0.255
REMARK UNBOUND:                -1.257
REMARK  Name = 
REMARK  12 active torsions:
REMARK  status: ('A' for Active; 'I' for Inactive)
REMARK    1  A    between atoms: N_1  and  C_2
REMARK    2  A    between atoms: N_10  and  C_11
REMARK    3  A    between atoms: C_13  and  C_14
REMARK    4  A    between atoms: C_14  and  S_15
REMARK    5  A    between atoms: S_15  and  C_16
REMARK    6  A    between atoms: C_16  and  C_17
REMARK    7  A    between atoms: C_17  and  C_18
REMARK    8  A    between atoms: C_18  and  N_19
REMARK    9  A    between atoms: C_18  and  C_20
REMARK   10  A    between atoms: C_20  and  O_22
REMARK   11  A    between atoms: C_23  and  O_24
REMARK   12  A    between atoms: C_25  and  O_26
REMARK                            x       y       z     vdW  Elec       q    Type
REMARK                         _______ _______ _______ _____ _____    ______ ____
ROOT
ATOM     11  C   UNK     1      44.493   3.828  10.423  0.00  0.00    +0.000 C 
ATOM     12  O   UNK     1      43.661   5.009  10.416  0.00  0.00    +0.000 OA
ATOM     13  C   UNK     1      43.574   5.552  11.753  0.00  0.00    +0.000 C 
ATOM     23  C   UNK     1      44.240   4.532  12.669  0.00  0.00    +0.000 C 
ATOM     25  C   UNK     1      45.236   3.829  11.759  0.00  0.00    +0.000 C 
ENDROOT
BRANCH  11  10
ATOM      2  C   UNK     1      47.204   2.314   6.710  0.00  0.00    +0.000 A 
ATOM      3  N   UNK     1      46.980   0.999   6.936  0.00  0.00    +0.000 NA
ATOM      4  C   UNK     1      46.205   0.651   7.987  0.00  0.00    +0.000 A 
ATOM      5  N   UNK     1      45.577   1.456   8.869  0.00  0.00    +0.000 NA
ATOM      6  C   UNK     1      45.817   2.747   8.592  0.00  0.00    +0.000 A 
ATOM      7  C   UNK     1      46.590   3.252   7.558  0.00  0.00    +0.000 A 
ATOM      8  N   UNK     1      46.589   4.633   7.574  0.00  0.00    +0.000 NA
ATOM      9  C   UNK     1      45.826   4.955   8.599  0.00  0.00    +0.000 A 
ATOM     10  N   UNK     1      45.354   3.851   9.259  0.00  0.00    +0.000 N 
BRANCH   2   1
ATOM      1  N   UNK     1      48.023   2.673   5.649  0.00  0.00    +0.000 N 
ATOM     27  H   UNK     1      48.364   3.622   5.718  0.00  0.00    +0.000 HD
ATOM     28  H   UNK     1      48.675   1.948   5.372  0.00  0.00    +0.000 HD
ENDBRANCH   2   1
ENDBRANCH  11  10
BRANCH  25  26
ATOM     26  O   UNK     1      45.534   2.526  12.254  0.00  0.00    +0.000 OA
ATOM     33  H   UNK     1      44.867   2.331  12.945  0.00  0.00    +0.000 HD
ENDBRANCH  25  26
BRANCH  23  24
ATOM     24  O   UNK     1      43.289   3.555  13.136  0.00  0.00    +0.000 OA
ATOM     32  H   UNK     1      43.524   3.282  14.043  0.00  0.00    +0.000 HD
ENDBRANCH  23  24
BRANCH  13  14
ATOM     14  C   UNK     1      44.235   6.936  11.814  0.00  0.00    +0.000 C 
BRANCH  14  15
ATOM     15  S   UNK     1      46.038   6.707  11.981  0.00  0.00    +0.000 S 
BRANCH  15  16
ATOM     16  C   UNK     1      46.552   8.430  12.249  0.00  0.00    +0.000 C 
BRANCH  16  17
ATOM     17  C   UNK     1      47.159   8.591  13.646  0.00  0.00    +0.000 C 
BRANCH  17  18
ATOM     18  C   UNK     1      48.694   8.629  13.694  0.00  0.00    +0.000 C 
BRANCH  18  19
ATOM     19  N   UNK     1      49.196   9.263  12.452  0.00  0.00    +0.000 NA
ATOM     29  H   UNK     1      49.838   8.607  12.001  0.00  0.00    +0.000 HD
ATOM     30  H   UNK     1      49.789  10.053  12.708  0.00  0.00    +0.000 HD
ENDBRANCH  18  19
BRANCH  18  20
ATOM     20  C   UNK     1      49.275   7.208  13.823  0.00  0.00    +0.000 C 
ATOM     21  O   UNK     1      49.440   6.627  14.884  0.00  0.00    +0.000 OA
BRANCH  20  22
ATOM     22  O   UNK     1      49.617   6.652  12.637  0.00  0.00    +0.000 OA
ATOM     31  H   UNK     1      49.114   5.838  12.422  0.00  0.00    +0.000 HD
ENDBRANCH  20  22
ENDBRANCH  18  20
ENDBRANCH  17  18
ENDBRANCH  16  17
ENDBRANCH  15  16
ENDBRANCH  14  15
ENDBRANCH  13  14
TORSDOF 12
ENDMDL
MODEL 8
REMARK VINA RESULT:    -5.813      4.723      6.549
REMARK INTER + INTRA:         -10.299
REMARK INTER:                  -9.076
REMARK INTRA:                  -1.222
REMARK UNBOUND:                -1.257
REMARK  Name = 
REMARK  12 active torsions:
REMARK  status: ('A' for Active; 'I' for Inactive)
REMARK    1  A    between atoms: N_1  and  C_2
REMARK    2  A    between atoms: N_10  and  C_11
REMARK    3  A    between atoms: C_13  and  C_14
REMARK    4  A    between atoms: C_14  and  S_15
REMARK    5  A    between atoms: S_15  and  C_16
REMARK    6  A    between atoms: C_16  and  C_17
REMARK    7  A    between atoms: C_17  and  C_18
REMARK    8  A    between atoms: C_18  and  N_19
REMARK    9  A    between atoms: C_18  and  C_20
REMARK   10  A    between atoms: C_20  and  O_22
REMARK   11  A    between atoms: C_23  and  O_24
REMARK   12  A    between atoms: C_25  and  O_26
REMARK                            x       y       z     vdW  Elec       q    Type
REMARK                         _______ _______ _______ _____ _____    ______ ____
ROOT
ATOM     11  C   UNK     1      48.483   6.913  13.741  0.00  0.00    +0.000 C 
ATOM     12  O   UNK     1      48.548   6.196  14.993  0.00  0.00    +0.000 OA
ATOM     13  C   UNK     1      49.491   6.845  15.878  0.00  0.00    +0.000 C 
ATOM     23  C   UNK     1      50.186   7.915  15.045  0.00  0.00    +0.000 C 
ATOM     25  C   UNK     1      49.159   8.264  13.977  0.00  0.00    +0.000 C 
ENDROOT
BRANCH  11  10
ATOM      2  C   UNK     1      44.034   5.607  12.354  0.00  0.00    +0.000 A 
ATOM      3  N   UNK     1      44.277   4.278  12.429  0.00  0.00    +0.000 NA
ATOM      4  C   UNK     1      45.514   3.873  12.792  0.00  0.00    +0.000 A 
ATOM      5  N   UNK     1      46.581   4.628  13.127  0.00  0.00    +0.000 NA
ATOM      6  C   UNK     1      46.282   5.935  13.054  0.00  0.00    +0.000 A 
ATOM      7  C   UNK     1      45.068   6.497  12.693  0.00  0.00    +0.000 A 
ATOM      8  N   UNK     1      45.128   7.875  12.754  0.00  0.00    +0.000 NA
ATOM      9  C   UNK     1      46.358   8.139  13.145  0.00  0.00    +0.000 A 
ATOM     10  N   UNK     1      47.101   7.001  13.318  0.00  0.00    +0.000 N 
BRANCH   2   1
ATOM      1  N   UNK     1      42.773   6.027  11.953  0.00  0.00    +0.000 N 
ATOM     27  H   UNK     1      42.672   7.032  11.961  0.00  0.00    +0.000 HD
ATOM     28  H   UNK     1      42.405   5.514  11.159  0.00  0.00    +0.000 HD
ENDBRANCH   2   1
ENDBRANCH  11  10
BRANCH  25  26
ATOM     26  O   UNK     1      49.798   8.799  12.823  0.00  0.00    +0.000 OA
ATOM     33  H   UNK     1      50.722   8.470  12.837  0.00  0.00    +0.000 HD
ENDBRANCH  25  26
BRANCH  23  24
ATOM     24  O   UNK     1      51.354   7.384  14.388  0.00  0.00    +0.000 OA
ATOM     32  H   UNK     1      51.281   6.412  14.333  0.00  0.00    +0.000 HD
ENDBRANCH  23  24
BRANCH  13  14
ATOM     14  C   UNK     1      48.768   7.415  17.106  0.00  0.00    +0.000 C 
BRANCH  14  15
ATOM     15  S   UNK     1      49.124   6.338  18.537  0.00  0.00    +0.000 S 
BRANCH  15  16
ATOM     16  C   UNK     1      47.667   5.252  18.485  0.00  0.00    +0.000 C 
BRANCH  16  17
ATOM     17  C   UNK     1      48.094   3.804  18.228  0.00  0.00    +0.000 C 
BRANCH  17  18
ATOM     18  C   UNK     1      48.741   3.544  16.859  0.00  0.00    +0.000 C 
BRANCH  18  19
ATOM     19  N   UNK     1      47.672   3.300  15.862  0.00  0.00    +0.000 NA
ATOM     29  H   UNK     1      47.924   3.795  15.003  0.00  0.00    +0.000 HD
ATOM     30  H   UNK     1      46.822   3.769  16.176  0.00  0.00    +0.000 HD
ENDBRANCH  18  19
BRANCH  18  20
ATOM     20  C   UNK     1      49.684   2.326  16.919  0.00  0.00    +0.000 C 
ATOM     21  O   UNK     1      49.864   1.552  15.993  0.00  0.00    +0.000 OA
BRANCH  20  22
ATOM     22  O   UNK     1      50.291   2.170  18.118  0.00  0.00    +0.000 OA
ATOM     31  H   UNK     1      51.237   1.918  18.052  0.00  0.00    +0.000 HD
ENDBRANCH  20  22
ENDBRANCH  18  20
ENDBRANCH  17  18
ENDBRANCH  16  17
ENDBRANCH  15  16
ENDBRANCH  14  15
ENDBRANCH  13  14
TORSDOF 12
ENDMDL
MODEL 9
REMARK VINA RESULT:    -5.651      1.952      3.014
REMARK INTER + INTRA:         -10.048
REMARK INTER:                 -10.024
REMARK INTRA:                  -0.024
REMARK UNBOUND:                -1.257
REMARK  Name = 
REMARK  12 active torsions:
REMARK  status: ('A' for Active; 'I' for Inactive)
REMARK    1  A    between atoms: N_1  and  C_2
REMARK    2  A    between atoms: N_10  and  C_11
REMARK    3  A    between atoms: C_13  and  C_14
REMARK    4  A    between atoms: C_14  and  S_15
REMARK    5  A    between atoms: S_15  and  C_16
REMARK    6  A    between atoms: C_16  and  C_17
REMARK    7  A    between atoms: C_17  and  C_18
REMARK    8  A    between atoms: C_18  and  N_19
REMARK    9  A    between atoms: C_18  and  C_20
REMARK   10  A    between atoms: C_20  and  O_22
REMARK   11  A    between atoms: C_23  and  O_24
REMARK   12  A    between atoms: C_25  and  O_26
REMARK                            x       y       z     vdW  Elec       q    Type
REMARK                         _______ _______ _______ _____ _____    ______ ____
ROOT
ATOM     11  C   UNK     1      44.271   5.605  10.172  0.00  0.00    +0.000 C 
ATOM     12  O   UNK     1      45.498   6.346  10.347  0.00  0.00    +0.000 OA
ATOM     13  C   UNK     1      45.374   7.235  11.482  0.00  0.00    +0.000 C 
ATOM     23  C   UNK     1      43.913   7.170  11.912  0.00  0.00    +0.000 C 
ATOM     25  C   UNK     1      43.466   5.787  11.458  0.00  0.00    +0.000 C 
ENDROOT
BRANCH  11  10
ATOM      2  C   UNK     1      46.254   1.749   8.020  0.00  0.00    +0.000 A 
ATOM      3  N   UNK     1      46.994   2.474   7.150  0.00  0.00    +0.000 NA
ATOM      4  C   UNK     1      46.896   3.821   7.191  0.00  0.00    +0.000 A 
ATOM      5  N   UNK     1      46.154   4.584   8.020  0.00  0.00    +0.000 NA
ATOM      6  C   UNK     1      45.453   3.819   8.872  0.00  0.00    +0.000 A 
ATOM      7  C   UNK     1      45.448   2.435   8.945  0.00  0.00    +0.000 A 
ATOM      8  N   UNK     1      44.622   2.000   9.963  0.00  0.00    +0.000 NA
ATOM      9  C   UNK     1      44.138   3.104  10.495  0.00  0.00    +0.000 A 
ATOM     10  N   UNK     1      44.593   4.228   9.858  0.00  0.00    +0.000 N 
BRANCH   2   1
ATOM      1  N   UNK     1      46.330   0.365   7.961  0.00  0.00    +0.000 N 
ATOM     27  H   UNK     1      46.903  -0.030   8.694  0.00  0.00    +0.000 HD
ATOM     28  H   UNK     1      45.447  -0.085   7.747  0.00  0.00    +0.000 HD
ENDBRANCH   2   1
ENDBRANCH  11  10
BRANCH  25  26
ATOM     26  O   UNK     1      42.055   5.756  11.265  0.00  0.00    +0.000 OA
ATOM     33  H   UNK     1      41.721   4.985  11.771  0.00  0.00    +0.000 HD
ENDBRANCH  25  26
BRANCH  23  24
ATOM     24  O   UNK     1      43.122   8.151  11.212  0.00  0.00    +0.000 OA
ATOM     32  H   UNK     1      43.712   8.742  10.708  0.00  0.00    +0.000 HD
ENDBRANCH  23  24
BRANCH  13  14
ATOM     14  C   UNK     1      46.347   6.822  12.595  0.00  0.00    +0.000 C 
BRANCH  14  15
ATOM     15  S   UNK     1      46.572   5.012  12.523  0.00  0.00    +0.000 S 
BRANCH  15  16
ATOM     16  C   UNK     1      46.216   4.581  14.252  0.00  0.00    +0.000 C 
BRANCH  16  17
ATOM     17  C   UNK     1      47.345   5.071  15.164  0.00  0.00    +0.000 C 
BRANCH  17  18
ATOM     18  C   UNK     1      47.906   4.021  16.136  0.00  0.00    +0.000 C 
BRANCH  18  19
ATOM     19  N   UNK     1      47.934   2.705  15.455  0.00  0.00    +0.000 NA
ATOM     29  H   UNK     1      46.973   2.361  15.394  0.00  0.00    +0.000 HD
ATOM     30  H   UNK     1      48.398   2.033  16.066  0.00  0.00    +0.000 HD
ENDBRANCH  18  19
BRANCH  18  20
ATOM     20  C   UNK     1      47.039   3.930  17.407  0.00  0.00    +0.000 C 
ATOM     21  O   UNK     1      46.770   4.881  18.124  0.00  0.00    +0.000 OA
BRANCH  20  22
ATOM     22  O   UNK     1      46.608   2.677  17.680  0.00  0.00    +0.000 OA
ATOM     31  H   UNK     1      46.131   2.600  18.533  0.00  0.00    +0.000 HD
ENDBRANCH  20  22
ENDBRANCH  18  20
ENDBRANCH  17  18
ENDBRANCH  16  17
ENDBRANCH  15  16
ENDBRANCH  14  15
ENDBRANCH  13  14
TORSDOF 12
ENDMDL
