MODEL 1
REMARK VINA RESULT:    -7.947      0.000      0.000
REMARK INTER + INTRA:          -9.871
REMARK INTER:                  -9.340
REMARK INTRA:                  -0.530
REMARK UNBOUND:                -0.530
REMARK  Name = 
REMARK  4 active torsions:
REMARK  status: ('A' for Active; 'I' for Inactive)
REMARK    1  A    between atoms: C_1  and  C_2
REMARK    2  A    between atoms: C_2  and  N_3
REMARK    3  A    between atoms: C_2  and  C_13
REMARK    4  A    between atoms: C_7  and  C_8
REMARK                            x       y       z     vdW  Elec       q    Type
REMARK                         _______ _______ _______ _____ _____    ______ ____
ROOT
ATOM      3  N   UNL     1      43.814   3.822  10.339  0.00  0.00    +0.000 N 
ATOM      4  C   UNL     1      44.739   3.431   9.369  0.00  0.00    +0.000 A 
ATOM      5  C   UNL     1      45.024   2.068   9.289  0.00  0.00    +0.000 A 
ATOM      6  C   UNL     1      45.948   1.600   8.357  0.00  0.00    +0.000 A 
ATOM      7  C   UNL     1      46.547   2.492   7.470  0.00  0.00    +0.000 A 
ATOM     11  C   UNL     1      46.176   3.824   7.582  0.00  0.00    +0.000 A 
ATOM     12  N   UNL     1      45.305   4.309   8.521  0.00  0.00    +0.000 NA
ATOM     19  H   UNL     1      42.898   3.476  10.075  0.00  0.00    +0.000 HD
ENDROOT
BRANCH   7   8
ATOM      8  C   UNL     1      47.536   1.962   6.499  0.00  0.00    +0.000 C 
ATOM      9  N   UNL     1      48.709   2.637   6.297  0.00  0.00    +0.000 N 
ATOM     10  O   UNL     1      47.320   0.928   5.876  0.00  0.00    +0.000 OA
ATOM     20  H   UNL     1      48.972   3.510   6.715  0.00  0.00    +0.000 HD
ATOM     21  H   UNL     1      49.345   2.231   5.618  0.00  0.00    +0.000 HD
ENDBRANCH   7   8
BRANCH   3   2
ATOM      1  C   UNL     1      42.521   5.542  11.577  0.00  0.00    +0.000 C 
ATOM      2  C   UNL     1      43.795   5.208  10.800  0.00  0.00    +0.000 C 
BRANCH   2  13
ATOM     13  C   UNL     1      44.981   5.460  11.740  0.00  0.00    +0.000 A 
ATOM     14  C   UNL     1      45.161   4.631  12.862  0.00  0.00    +0.000 A 
ATOM     15  C   UNL     1      46.330   4.698  13.625  0.00  0.00    +0.000 A 
ATOM     16  C   UNL     1      47.333   5.603  13.289  0.00  0.00    +0.000 A 
ATOM     17  C   UNL     1      47.153   6.468  12.213  0.00  0.00    +0.000 A 
ATOM     18  C   UNL     1      45.986   6.400  11.447  0.00  0.00    +0.000 A 
ENDBRANCH   2  13
ENDBRANCH   3   2
TORSDOF 3
ENDMDL
MODEL 2
REMARK VINA RESULT:    -6.350      3.800      6.423
REMARK INTER + INTRA:          -7.994
REMARK INTER:                  -7.506
REMARK INTRA:                  -0.487
REMARK UNBOUND:                -0.530
REMARK  Name = 
REMARK  4 active torsions:
REMARK  status: ('A' for Active; 'I' for Inactive)
REMARK    1  A    between atoms: C_1  and  C_2
REMARK    2  A    between atoms: C_2  and  N_3
REMARK    3  A    between atoms: C_2  and  C_13
REMARK    4  A    between atoms: C_7  and  C_8
REMARK                            x       y       z     vdW  Elec       q    Type
REMARK                         _______ _______ _______ _____ _____    ______ ____
ROOT
ATOM      3  N   UNL     1      45.492   6.110  11.029  0.00  0.00    +0.000 N 
ATOM      4  C   UNL     1      46.489   6.256  11.994  0.00  0.00    +0.000 A 
ATOM      5  C   UNL     1      47.501   7.176  11.716  0.00  0.00    +0.000 A 
ATOM      6  C   UNL     1      48.541   7.367  12.624  0.00  0.00    +0.000 A 
ATOM      7  C   UNL     1      48.539   6.676  13.833  0.00  0.00    +0.000 A 
ATOM     11  C   UNL     1      47.475   5.813  14.055  0.00  0.00    +0.000 A 
ATOM     12  N   UNL     1      46.469   5.578  13.157  0.00  0.00    +0.000 NA
ATOM     19  H   UNL     1      44.940   6.960  11.000  0.00  0.00    +0.000 HD
ENDROOT
BRANCH   7   8
ATOM      8  C   UNL     1      49.669   6.893  14.770  0.00  0.00    +0.000 C 
ATOM      9  N   UNL     1      50.739   7.647  14.372  0.00  0.00    +0.000 N 
ATOM     10  O   UNL     1      49.658   6.408  15.897  0.00  0.00    +0.000 OA
ATOM     20  H   UNL     1      50.875   8.053  13.464  0.00  0.00    +0.000 HD
ATOM     21  H   UNL     1      51.484   7.757  15.053  0.00  0.00    +0.000 HD
ENDBRANCH   7   8
BRANCH   3   2
ATOM      1  C   UNL     1      43.186   5.199  10.903  0.00  0.00    +0.000 C 
ATOM      2  C   UNL     1      44.681   4.896  11.007  0.00  0.00    +0.000 C 
BRANCH   2  13
ATOM     13  C   UNL     1      45.058   4.039   9.791  0.00  0.00    +0.000 A 
ATOM     14  C   UNL     1      45.682   4.647   8.686  0.00  0.00    +0.000 A 
ATOM     15  C   UNL     1      46.219   3.877   7.651  0.00  0.00    +0.000 A 
ATOM     16  C   UNL     1      46.131   2.488   7.695  0.00  0.00    +0.000 A 
ATOM     17  C   UNL     1      45.473   1.869   8.754  0.00  0.00    +0.000 A 
ATOM     18  C   UNL     1      44.937   2.638   9.792  0.00  0.00    +0.000 A 
ENDBRANCH   2  13
ENDBRANCH   3   2
TORSDOF 3
ENDMDL
MODEL 3
REMARK VINA RESULT:    -6.179      3.218      6.121
REMARK INTER + INTRA:          -7.793
REMARK INTER:                  -8.316
REMARK INTRA:                   0.523
REMARK UNBOUND:                -0.530
REMARK  Name = 
REMARK  4 active torsions:
REMARK  status: ('A' for Active; 'I' for Inactive)
REMARK    1  A    between atoms: C_1  and  C_2
REMARK    2  A    between atoms: C_2  and  N_3
REMARK    3  A    between atoms: C_2  and  C_13
REMARK    4  A    between atoms: C_7  and  C_8
REMARK                            x       y       z     vdW  Elec       q    Type
REMARK                         _______ _______ _______ _____ _____    ______ ____
ROOT
ATOM      3  N   UNL     1      45.073   3.066  11.511  0.00  0.00    +0.000 N 
ATOM      4  C   UNL     1      45.671   4.217  12.027  0.00  0.00    +0.000 A 
ATOM      5  C   UNL     1      46.082   4.166  13.360  0.00  0.00    +0.000 A 
ATOM      6  C   UNL     1      46.674   5.280  13.952  0.00  0.00    +0.000 A 
ATOM      7  C   UNL     1      46.902   6.426  13.195  0.00  0.00    +0.000 A 
ATOM     11  C   UNL     1      46.507   6.382  11.866  0.00  0.00    +0.000 A 
ATOM     12  N   UNL     1      45.883   5.315  11.278  0.00  0.00    +0.000 NA
ATOM     19  H   UNL     1      45.774   2.338  11.441  0.00  0.00    +0.000 HD
ENDROOT
BRANCH   7   8
ATOM      8  C   UNL     1      47.522   7.598  13.861  0.00  0.00    +0.000 C 
ATOM      9  N   UNL     1      46.779   8.729  14.063  0.00  0.00    +0.000 N 
ATOM     10  O   UNL     1      48.690   7.569  14.235  0.00  0.00    +0.000 OA
ATOM     20  H   UNL     1      45.834   8.881  13.761  0.00  0.00    +0.000 HD
ATOM     21  H   UNL     1      47.257   9.500  14.518  0.00  0.00    +0.000 HD
ENDBRANCH   7   8
BRANCH   3   2
ATOM      1  C   UNL     1      43.578   4.544  10.190  0.00  0.00    +0.000 C 
ATOM      2  C   UNL     1      44.223   3.164  10.328  0.00  0.00    +0.000 C 
BRANCH   2  13
ATOM     13  C   UNL     1      45.060   2.924   9.064  0.00  0.00    +0.000 A 
ATOM     14  C   UNL     1      45.391   4.014   8.239  0.00  0.00    +0.000 A 
ATOM     15  C   UNL     1      46.311   3.872   7.196  0.00  0.00    +0.000 A 
ATOM     16  C   UNL     1      46.907   2.637   6.953  0.00  0.00    +0.000 A 
ATOM     17  C   UNL     1      46.555   1.535   7.726  0.00  0.00    +0.000 A 
ATOM     18  C   UNL     1      45.637   1.675   8.771  0.00  0.00    +0.000 A 
ENDBRANCH   2  13
ENDBRANCH   3   2
TORSDOF 3
ENDMDL
MODEL 4
REMARK VINA RESULT:    -5.849      5.727      8.439
REMARK INTER + INTRA:          -7.406
REMARK INTER:                  -7.077
REMARK INTRA:                  -0.329
REMARK UNBOUND:                -0.530
REMARK  Name = 
REMARK  4 active torsions:
REMARK  status: ('A' for Active; 'I' for Inactive)
REMARK    1  A    between atoms: C_1  and  C_2
REMARK    2  A    between atoms: C_2  and  N_3
REMARK    3  A    between atoms: C_2  and  C_13
REMARK    4  A    between atoms: C_7  and  C_8
REMARK                            x       y       z     vdW  Elec       q    Type
REMARK                         _______ _______ _______ _____ _____    ______ ____
ROOT
ATOM      3  N   UNL     1      46.942   3.955  14.620  0.00  0.00    +0.000 N 
ATOM      4  C   UNL     1      47.523   4.178  15.870  0.00  0.00    +0.000 A 
ATOM      5  C   UNL     1      47.620   3.076  16.721  0.00  0.00    +0.000 A 
ATOM      6  C   UNL     1      48.175   3.221  17.991  0.00  0.00    +0.000 A 
ATOM      7  C   UNL     1      48.680   4.456  18.389  0.00  0.00    +0.000 A 
ATOM     11  C   UNL     1      48.587   5.491  17.469  0.00  0.00    +0.000 A 
ATOM     12  N   UNL     1      48.006   5.380  16.235  0.00  0.00    +0.000 NA
ATOM     19  H   UNL     1      47.564   3.375  14.070  0.00  0.00    +0.000 HD
ENDROOT
BRANCH   7   8
ATOM      8  C   UNL     1      49.251   4.578  19.753  0.00  0.00    +0.000 C 
ATOM      9  N   UNL     1      48.583   4.031  20.814  0.00  0.00    +0.000 N 
ATOM     10  O   UNL     1      50.314   5.160  19.944  0.00  0.00    +0.000 OA
ATOM     20  H   UNL     1      47.691   3.573  20.782  0.00  0.00    +0.000 HD
ATOM     21  H   UNL     1      49.019   4.150  21.723  0.00  0.00    +0.000 HD
ENDBRANCH   7   8
BRANCH   3   2
ATOM      1  C   UNL     1      47.397   5.666  12.879  0.00  0.00    +0.000 C 
ATOM      2  C   UNL     1      46.390   5.081  13.871  0.00  0.00    +0.000 C 
BRANCH   2  13
ATOM     13  C   UNL     1      45.169   4.621  13.064  0.00  0.00    +0.000 A 
ATOM     14  C   UNL     1      44.036   5.451  12.994  0.00  0.00    +0.000 A 
ATOM     15  C   UNL     1      42.988   5.165  12.114  0.00  0.00    +0.000 A 
ATOM     16  C   UNL     1      43.050   4.038  11.297  0.00  0.00    +0.000 A 
ATOM     17  C   UNL     1      44.139   3.177  11.388  0.00  0.00    +0.000 A 
ATOM     18  C   UNL     1      45.189   3.463  12.266  0.00  0.00    +0.000 A 
ENDBRANCH   2  13
ENDBRANCH   3   2
TORSDOF 3
ENDMDL
MODEL 5
REMARK VINA RESULT:    -5.714      4.563      6.611
REMARK INTER + INTRA:          -7.246
REMARK INTER:                  -6.988
REMARK INTRA:                  -0.259
REMARK UNBOUND:                -0.530
REMARK  Name = 
REMARK  4 active torsions:
REMARK  status: ('A' for Active; 'I' for Inactive)
REMARK    1  A    between atoms: C_1  and  C_2
REMARK    2  A    between atoms: C_2  and  N_3
REMARK    3  A    between atoms: C_2  and  C_13
REMARK    4  A    between atoms: C_7  and  C_8
REMARK                            x       y       z     vdW  Elec       q    Type
REMARK                         _______ _______ _______ _____ _____    ______ ____
ROOT
ATOM      3  N   UNL     1      47.693   5.027  15.576  0.00  0.00    +0.000 N 
ATOM      4  C   UNL     1      46.965   5.012  14.385  0.00  0.00    +0.000 A 
ATOM      5  C   UNL     1      47.028   6.162  13.598  0.00  0.00    +0.000 A 
ATOM      6  C   UNL     1      46.316   6.230  12.401  0.00  0.00    +0.000 A 
ATOM      7  C   UNL     1      45.584   5.127  11.969  0.00  0.00    +0.000 A 
ATOM     11  C   UNL     1      45.608   4.006  12.786  0.00  0.00    +0.000 A 
ATOM     12  N   UNL     1      46.264   3.935  13.985  0.00  0.00    +0.000 NA
ATOM     19  H   UNL     1      48.682   5.021  15.353  0.00  0.00    +0.000 HD
ENDROOT
BRANCH   7   8
ATOM      8  C   UNL     1      44.827   5.239  10.698  0.00  0.00    +0.000 C 
ATOM      9  N   UNL     1      45.500   5.482   9.532  0.00  0.00    +0.000 N 
ATOM     10  O   UNL     1      43.606   5.116  10.676  0.00  0.00    +0.000 OA
ATOM     20  H   UNL     1      46.486   5.643   9.438  0.00  0.00    +0.000 HD
ATOM     21  H   UNL     1      44.929   5.554   8.695  0.00  0.00    +0.000 HD
ENDBRANCH   7   8
BRANCH   3   2
ATOM      1  C   UNL     1      48.055   2.757  16.515  0.00  0.00    +0.000 C 
ATOM      2  C   UNL     1      47.339   4.102  16.650  0.00  0.00    +0.000 C 
BRANCH   2  13
ATOM     13  C   UNL     1      47.742   4.699  18.005  0.00  0.00    +0.000 A 
ATOM     14  C   UNL     1      46.945   5.706  18.579  0.00  0.00    +0.000 A 
ATOM     15  C   UNL     1      47.161   6.132  19.892  0.00  0.00    +0.000 A 
ATOM     16  C   UNL     1      48.185   5.568  20.650  0.00  0.00    +0.000 A 
ATOM     17  C   UNL     1      49.016   4.607  20.084  0.00  0.00    +0.000 A 
ATOM     18  C   UNL     1      48.800   4.177  18.771  0.00  0.00    +0.000 A 
ENDBRANCH   2  13
ENDBRANCH   3   2
TORSDOF 3
ENDMDL
MODEL 6
REMARK VINA RESULT:    -5.566      3.414      4.867
REMARK INTER + INTRA:          -7.073
REMARK INTER:                  -6.529
REMARK INTRA:                  -0.544
REMARK UNBOUND:                -0.530
REMARK  Name = 
REMARK  4 active torsions:
REMARK  status: ('A' for Active; 'I' for Inactive)
REMARK    1  A    between atoms: C_1  and  C_2
REMARK    2  A    between atoms: C_2  and  N_3
REMARK    3  A    between atoms: C_2  and  C_13
REMARK    4  A    between atoms: C_7  and  C_8
REMARK                            x       y       z     vdW  Elec       q    Type
REMARK                         _______ _______ _______ _____ _____    ______ ____
ROOT
ATOM      3  N   UNL     1      45.156   7.957  12.591  0.00  0.00    +0.000 N 
ATOM      4  C   UNL     1      44.846   6.676  12.130  0.00  0.00    +0.000 A 
ATOM      5  C   UNL     1      44.143   5.849  13.006  0.00  0.00    +0.000 A 
ATOM      6  C   UNL     1      43.809   4.550  12.625  0.00  0.00    +0.000 A 
ATOM      7  C   UNL     1      44.134   4.099  11.348  0.00  0.00    +0.000 A 
ATOM     11  C   UNL     1      44.793   4.997  10.521  0.00  0.00    +0.000 A 
ATOM     12  N   UNL     1      45.168   6.260  10.892  0.00  0.00    +0.000 NA
ATOM     19  H   UNL     1      44.298   8.491  12.671  0.00  0.00    +0.000 HD
ENDROOT
BRANCH   7   8
ATOM      8  C   UNL     1      43.776   2.707  10.981  0.00  0.00    +0.000 C 
ATOM      9  N   UNL     1      44.407   2.105   9.927  0.00  0.00    +0.000 N 
ATOM     10  O   UNL     1      42.924   2.086  11.608  0.00  0.00    +0.000 OA
ATOM     20  H   UNL     1      45.084   2.529   9.319  0.00  0.00    +0.000 HD
ATOM     21  H   UNL     1      44.118   1.154   9.719  0.00  0.00    +0.000 HD
ENDBRANCH   7   8
BRANCH   3   2
ATOM      1  C   UNL     1      46.091  10.215  12.152  0.00  0.00    +0.000 C 
ATOM      2  C   UNL     1      46.243   8.705  11.965  0.00  0.00    +0.000 C 
BRANCH   2  13
ATOM     13  C   UNL     1      47.583   8.301  12.596  0.00  0.00    +0.000 A 
ATOM     14  C   UNL     1      48.673   7.994  11.761  0.00  0.00    +0.000 A 
ATOM     15  C   UNL     1      49.955   7.817  12.290  0.00  0.00    +0.000 A 
ATOM     16  C   UNL     1      50.167   7.932  13.661  0.00  0.00    +0.000 A 
ATOM     17  C   UNL     1      49.093   8.185  14.509  0.00  0.00    +0.000 A 
ATOM     18  C   UNL     1      47.810   8.365  13.982  0.00  0.00    +0.000 A 
ENDBRANCH   2  13
ENDBRANCH   3   2
TORSDOF 3
ENDMDL
MODEL 7
REMARK VINA RESULT:    -5.542      3.418      5.250
REMARK INTER + INTRA:          -7.044
REMARK INTER:                  -6.613
REMARK INTRA:                  -0.431
REMARK UNBOUND:                -0.530
REMARK  Name = 
REMARK  4 active torsions:
REMARK  status: ('A' for Active; 'I' for Inactive)
REMARK    1  A    between atoms: C_1  and  C_2
REMARK    2  A    between atoms: C_2  and  N_3
REMARK    3  A    between atoms: C_2  and  C_13
REMARK    4  A    between atoms: C_7  and  C_8
REMARK                            x       y       z     vdW  Elec       q    Type
REMARK                         _______ _______ _______ _____ _____    ______ ____
ROOT
ATOM      3  N   UNL     1      46.978   6.652  14.058  0.00  0.00    +0.000 N 
ATOM      4  C   UNL     1      46.335   6.001  13.004  0.00  0.00    +0.000 A 
ATOM      5  C   UNL     1      45.504   4.932  13.341  0.00  0.00    +0.000 A 
ATOM      6  C   UNL     1      44.839   4.222  12.343  0.00  0.00    +0.000 A 
ATOM      7  C   UNL     1      44.965   4.615  11.013  0.00  0.00    +0.000 A 
ATOM     11  C   UNL     1      45.773   5.716  10.764  0.00  0.00    +0.000 A 
ATOM     12  N   UNL     1      46.469   6.398  11.725  0.00  0.00    +0.000 NA
ATOM     19  H   UNL     1      46.284   7.148  14.606  0.00  0.00    +0.000 HD
ENDROOT
BRANCH   7   8
ATOM      8  C   UNL     1      44.254   3.828   9.976  0.00  0.00    +0.000 C 
ATOM      9  N   UNL     1      44.127   4.338   8.712  0.00  0.00    +0.000 N 
ATOM     10  O   UNL     1      43.780   2.727  10.232  0.00  0.00    +0.000 OA
ATOM     20  H   UNL     1      44.435   5.241   8.403  0.00  0.00    +0.000 HD
ATOM     21  H   UNL     1      43.627   3.758   8.046  0.00  0.00    +0.000 HD
ENDBRANCH   7   8
BRANCH   3   2
ATOM      1  C   UNL     1      47.889   8.947  13.792  0.00  0.00    +0.000 C 
ATOM      2  C   UNL     1      48.176   7.444  13.793  0.00  0.00    +0.000 C 
BRANCH   2  13
ATOM     13  C   UNL     1      49.225   7.181  14.881  0.00  0.00    +0.000 A 
ATOM     14  C   UNL     1      48.916   6.309  15.940  0.00  0.00    +0.000 A 
ATOM     15  C   UNL     1      49.904   5.888  16.836  0.00  0.00    +0.000 A 
ATOM     16  C   UNL     1      51.213   6.343  16.697  0.00  0.00    +0.000 A 
ATOM     17  C   UNL     1      51.528   7.247  15.687  0.00  0.00    +0.000 A 
ATOM     18  C   UNL     1      50.542   7.666  14.788  0.00  0.00    +0.000 A 
ENDBRANCH   2  13
ENDBRANCH   3   2
TORSDOF 3
ENDMDL
MODEL 8
REMARK VINA RESULT:    -5.424      4.036      5.857
REMARK INTER + INTRA:          -6.906
REMARK INTER:                  -6.433
REMARK INTRA:                  -0.473
REMARK UNBOUND:                -0.530
REMARK  Name = 
REMARK  4 active torsions:
REMARK  status: ('A' for Active; 'I' for Inactive)
REMARK    1  A    between atoms: C_1  and  C_2
REMARK    2  A    between atoms: C_2  and  N_3
REMARK    3  A    between atoms: C_2  and  C_13
REMARK    4  A    between atoms: C_7  and  C_8
REMARK                            x       y       z     vdW  Elec       q    Type
REMARK                         _______ _______ _______ _____ _____    ______ ____
ROOT
ATOM      3  N   UNL     1      47.592   6.750  14.129  0.00  0.00    +0.000 N 
ATOM      4  C   UNL     1      46.603   5.955  13.549  0.00  0.00    +0.000 A 
ATOM      5  C   UNL     1      46.845   4.581  13.514  0.00  0.00    +0.000 A 
ATOM      6  C   UNL     1      45.911   3.721  12.937  0.00  0.00    +0.000 A 
ATOM      7  C   UNL     1      44.713   4.232  12.443  0.00  0.00    +0.000 A 
ATOM     11  C   UNL     1      44.528   5.603  12.556  0.00  0.00    +0.000 A 
ATOM     12  N   UNL     1      45.451   6.468  13.078  0.00  0.00    +0.000 NA
ATOM     19  H   UNL     1      47.620   6.561  15.125  0.00  0.00    +0.000 HD
ENDROOT
BRANCH   7   8
ATOM      8  C   UNL     1      43.748   3.291  11.824  0.00  0.00    +0.000 C 
ATOM      9  N   UNL     1      43.574   2.049  12.370  0.00  0.00    +0.000 N 
ATOM     10  O   UNL     1      43.104   3.609  10.829  0.00  0.00    +0.000 OA
ATOM     20  H   UNL     1      44.075   1.667  13.151  0.00  0.00    +0.000 HD
ATOM     21  H   UNL     1      42.905   1.446  11.900  0.00  0.00    +0.000 HD
ENDBRANCH   7   8
BRANCH   3   2
ATOM      1  C   UNL     1      48.066   9.020  15.016  0.00  0.00    +0.000 C 
ATOM      2  C   UNL     1      47.650   8.175  13.812  0.00  0.00    +0.000 C 
BRANCH   2  13
ATOM     13  C   UNL     1      48.684   8.420  12.704  0.00  0.00    +0.000 A 
ATOM     14  C   UNL     1      48.899   9.730  12.239  0.00  0.00    +0.000 A 
ATOM     15  C   UNL     1      49.964  10.022  11.382  0.00  0.00    +0.000 A 
ATOM     16  C   UNL     1      50.823   9.008  10.964  0.00  0.00    +0.000 A 
ATOM     17  C   UNL     1      50.597   7.697  11.372  0.00  0.00    +0.000 A 
ATOM     18  C   UNL     1      49.534   7.404  12.232  0.00  0.00    +0.000 A 
ENDBRANCH   2  13
ENDBRANCH   3   2
TORSDOF 3
ENDMDL
MODEL 9
REMARK VINA RESULT:    -5.213      4.827      7.137
REMARK INTER + INTRA:          -6.658
REMARK INTER:                  -6.281
REMARK INTRA:                  -0.377
REMARK UNBOUND:                -0.530
REMARK  Name = 
REMARK  4 active torsions:
REMARK  status: ('A' for Active; 'I' for Inactive)
REMARK    1  A    between atoms: C_1  and  C_2
REMARK    2  A    between atoms: C_2  and  N_3
REMARK    3  A    between atoms: C_2  and  C_13
REMARK    4  A    between atoms: C_7  and  C_8
REMARK                            x       y       z     vdW  Elec       q    Type
REMARK                         _______ _______ _______ _____ _____    ______ ____
ROOT
ATOM      3  N   UNL     1      42.885   8.404  10.662  0.00  0.00    +0.000 N 
ATOM      4  C   UNL     1      43.708   7.550  11.400  0.00  0.00    +0.000 A 
ATOM      5  C   UNL     1      43.278   6.230  11.536  0.00  0.00    +0.000 A 
ATOM      6  C   UNL     1      44.037   5.321  12.272  0.00  0.00    +0.000 A 
ATOM      7  C   UNL     1      45.250   5.721  12.825  0.00  0.00    +0.000 A 
ATOM     11  C   UNL     1      45.630   7.037  12.606  0.00  0.00    +0.000 A 
ATOM     12  N   UNL     1      44.878   7.957  11.926  0.00  0.00    +0.000 NA
ATOM     19  H   UNL     1      42.910   8.119   9.689  0.00  0.00    +0.000 HD
ENDROOT
BRANCH   7   8
ATOM      8  C   UNL     1      46.025   4.731  13.613  0.00  0.00    +0.000 C 
ATOM      9  N   UNL     1      46.826   5.162  14.636  0.00  0.00    +0.000 N 
ATOM     10  O   UNL     1      45.959   3.532  13.363  0.00  0.00    +0.000 OA
ATOM     20  H   UNL     1      46.990   6.116  14.900  0.00  0.00    +0.000 HD
ATOM     21  H   UNL     1      47.336   4.441  15.136  0.00  0.00    +0.000 HD
ENDBRANCH   7   8
BRANCH   3   2
ATOM      1  C   UNL     1      43.924  10.491   9.809  0.00  0.00    +0.000 C 
ATOM      2  C   UNL     1      42.998   9.848  10.843  0.00  0.00    +0.000 C 
BRANCH   2  13
ATOM     13  C   UNL     1      41.618  10.502  10.688  0.00  0.00    +0.000 A 
ATOM     14  C   UNL     1      41.465  11.588   9.808  0.00  0.00    +0.000 A 
ATOM     15  C   UNL     1      40.196  12.080   9.488  0.00  0.00    +0.000 A 
ATOM     16  C   UNL     1      39.060  11.503  10.051  0.00  0.00    +0.000 A 
ATOM     17  C   UNL     1      39.194  10.460  10.963  0.00  0.00    +0.000 A 
ATOM     18  C   UNL     1      40.462   9.965  11.282  0.00  0.00    +0.000 A 
ENDBRANCH   2  13
ENDBRANCH   3   2
TORSDOF 3
ENDMDL
