MODEL 1
REMARK VINA RESULT:    -6.492      0.000      0.000
REMARK INTER + INTRA:          -7.839
REMARK INTER:                  -7.631
REMARK INTRA:                  -0.209
REMARK UNBOUND:                -0.209
REMARK  Name = 
REMARK  6 active torsions:
REMARK  status: ('A' for Active; 'I' for Inactive)
REMARK    1  A    between atoms: C_1  and  C_2
REMARK    2  A    between atoms: C_2  and  C_3
REMARK    3  A    between atoms: C_2  and  C_4
REMARK    4  A    between atoms: C_2  and  C_5
REMARK    5  A    between atoms: C_5  and  N_6
REMARK    6  A    between atoms: C_10  and  C_11
REMARK                            x       y       z     vdW  Elec       q    Type
REMARK                         _______ _______ _______ _____ _____    ______ ____
ROOT
ATOM      6  N   UNL     1      43.973   3.273  10.395  0.00  0.00    +0.000 N 
ATOM      7  C   UNL     1      44.850   3.082   9.317  0.00  0.00    +0.000 A 
ATOM      8  C   UNL     1      45.284   1.791   9.032  0.00  0.00    +0.000 A 
ATOM      9  C   UNL     1      46.153   1.580   7.959  0.00  0.00    +0.000 A 
ATOM     10  C   UNL     1      46.575   2.664   7.192  0.00  0.00    +0.000 A 
ATOM     14  C   UNL     1      46.104   3.913   7.555  0.00  0.00    +0.000 A 
ATOM     15  N   UNL     1      45.265   4.139   8.592  0.00  0.00    +0.000 NA
ATOM     16  H   UNL     1      43.169   2.668  10.247  0.00  0.00    +0.000 HD
ENDROOT
BRANCH  10  11
ATOM     11  C   UNL     1      47.488   2.441   6.045  0.00  0.00    +0.000 C 
ATOM     12  N   UNL     1      48.837   2.417   6.269  0.00  0.00    +0.000 N 
ATOM     13  O   UNL     1      47.052   2.283   4.912  0.00  0.00    +0.000 OA
ATOM     17  H   UNL     1      49.297   2.526   7.156  0.00  0.00    +0.000 HD
ATOM     18  H   UNL     1      49.423   2.257   5.458  0.00  0.00    +0.000 HD
ENDBRANCH  10  11
BRANCH   6   5
ATOM      5  C   UNL     1      43.588   4.671  10.610  0.00  0.00    +0.000 C 
BRANCH   5   2
ATOM      1  C   UNL     1      44.580   6.654  11.843  0.00  0.00    +0.000 C 
ATOM      2  C   UNL     1      44.094   5.201  11.975  0.00  0.00    +0.000 C 
ATOM      3  C   UNL     1      45.232   4.320  12.520  0.00  0.00    +0.000 C 
ATOM      4  C   UNL     1      42.926   5.165  12.980  0.00  0.00    +0.000 C 
ENDBRANCH   5   2
ENDBRANCH   6   5
TORSDOF 3
ENDMDL
MODEL 2
REMARK VINA RESULT:    -6.477      1.158      1.932
REMARK INTER + INTRA:          -7.822
REMARK INTER:                  -7.492
REMARK INTRA:                  -0.330
REMARK UNBOUND:                -0.209
REMARK  Name = 
REMARK  6 active torsions:
REMARK  status: ('A' for Active; 'I' for Inactive)
REMARK    1  A    between atoms: C_1  and  C_2
REMARK    2  A    between atoms: C_2  and  C_3
REMARK    3  A    between atoms: C_2  and  C_4
REMARK    4  A    between atoms: C_2  and  C_5
REMARK    5  A    between atoms: C_5  and  N_6
REMARK    6  A    between atoms: C_10  and  C_11
REMARK                            x       y       z     vdW  Elec       q    Type
REMARK                         _______ _______ _______ _____ _____    ______ ____
ROOT
ATOM      6  N   UNL     1      44.413   5.013   9.762  0.00  0.00    +0.000 N 
ATOM      7  C   UNL     1      45.128   4.065   9.015  0.00  0.00    +0.000 A 
ATOM      8  C   UNL     1      45.908   4.507   7.950  0.00  0.00    +0.000 A 
ATOM      9  C   UNL     1      46.632   3.579   7.198  0.00  0.00    +0.000 A 
ATOM     10  C   UNL     1      46.562   2.225   7.523  0.00  0.00    +0.000 A 
ATOM     14  C   UNL     1      45.753   1.875   8.589  0.00  0.00    +0.000 A 
ATOM     15  N   UNL     1      45.041   2.757   9.328  0.00  0.00    +0.000 NA
ATOM     16  H   UNL     1      45.076   5.709  10.091  0.00  0.00    +0.000 HD
ENDROOT
BRANCH  10  11
ATOM     11  C   UNL     1      47.339   1.240   6.734  0.00  0.00    +0.000 C 
ATOM     12  N   UNL     1      48.437   1.667   6.039  0.00  0.00    +0.000 N 
ATOM     13  O   UNL     1      47.011   0.060   6.696  0.00  0.00    +0.000 OA
ATOM     17  H   UNL     1      48.797   2.606   6.010  0.00  0.00    +0.000 HD
ATOM     18  H   UNL     1      48.941   0.960   5.518  0.00  0.00    +0.000 HD
ENDBRANCH  10  11
BRANCH   6   5
ATOM      5  C   UNL     1      43.620   4.437  10.853  0.00  0.00    +0.000 C 
BRANCH   5   2
ATOM      1  C   UNL     1      42.990   4.961  13.254  0.00  0.00    +0.000 C 
ATOM      2  C   UNL     1      44.143   4.886  12.240  0.00  0.00    +0.000 C 
ATOM      3  C   UNL     1      44.844   6.253  12.148  0.00  0.00    +0.000 C 
ATOM      4  C   UNL     1      45.168   3.847  12.739  0.00  0.00    +0.000 C 
ENDBRANCH   5   2
ENDBRANCH   6   5
TORSDOF 3
ENDMDL
MODEL 3
REMARK VINA RESULT:    -5.965      2.843      6.291
REMARK INTER + INTRA:          -7.220
REMARK INTER:                  -6.900
REMARK INTRA:                  -0.319
REMARK UNBOUND:                -0.209
REMARK  Name = 
REMARK  6 active torsions:
REMARK  status: ('A' for Active; 'I' for Inactive)
REMARK    1  A    between atoms: C_1  and  C_2
REMARK    2  A    between atoms: C_2  and  C_3
REMARK    3  A    between atoms: C_2  and  C_4
REMARK    4  A    between atoms: C_2  and  C_5
REMARK    5  A    between atoms: C_5  and  N_6
REMARK    6  A    between atoms: C_10  and  C_11
REMARK                            x       y       z     vdW  Elec       q    Type
REMARK                         _______ _______ _______ _____ _____    ______ ____
ROOT
ATOM      6  N   UNL     1      46.158   4.091   7.515  0.00  0.00    +0.000 N 
ATOM      7  C   UNL     1      45.500   4.184   8.751  0.00  0.00    +0.000 A 
ATOM      8  C   UNL     1      45.784   5.268   9.577  0.00  0.00    +0.000 A 
ATOM      9  C   UNL     1      45.135   5.382  10.808  0.00  0.00    +0.000 A 
ATOM     10  C   UNL     1      44.215   4.408  11.193  0.00  0.00    +0.000 A 
ATOM     14  C   UNL     1      44.003   3.360  10.316  0.00  0.00    +0.000 A 
ATOM     15  N   UNL     1      44.624   3.230   9.120  0.00  0.00    +0.000 NA
ATOM     16  H   UNL     1      45.988   4.957   7.011  0.00  0.00    +0.000 HD
ENDROOT
BRANCH  10  11
ATOM     11  C   UNL     1      43.515   4.533  12.494  0.00  0.00    +0.000 C 
ATOM     12  N   UNL     1      42.788   5.663  12.748  0.00  0.00    +0.000 N 
ATOM     13  O   UNL     1      43.584   3.647  13.337  0.00  0.00    +0.000 OA
ATOM     17  H   UNL     1      42.659   6.442  12.126  0.00  0.00    +0.000 HD
ATOM     18  H   UNL     1      42.323   5.704  13.647  0.00  0.00    +0.000 HD
ENDBRANCH  10  11
BRANCH   6   5
ATOM      5  C   UNL     1      45.789   2.908   6.732  0.00  0.00    +0.000 C 
BRANCH   5   2
ATOM      1  C   UNL     1      47.029   1.576   4.964  0.00  0.00    +0.000 C 
ATOM      2  C   UNL     1      47.017   2.010   6.439  0.00  0.00    +0.000 C 
ATOM      3  C   UNL     1      47.021   0.768   7.348  0.00  0.00    +0.000 C 
ATOM      4  C   UNL     1      48.298   2.822   6.720  0.00  0.00    +0.000 C 
ENDBRANCH   5   2
ENDBRANCH   6   5
TORSDOF 3
ENDMDL
MODEL 4
REMARK VINA RESULT:    -5.784      4.075      5.760
REMARK INTER + INTRA:          -7.007
REMARK INTER:                  -6.798
REMARK INTRA:                  -0.209
REMARK UNBOUND:                -0.209
REMARK  Name = 
REMARK  6 active torsions:
REMARK  status: ('A' for Active; 'I' for Inactive)
REMARK    1  A    between atoms: C_1  and  C_2
REMARK    2  A    between atoms: C_2  and  C_3
REMARK    3  A    between atoms: C_2  and  C_4
REMARK    4  A    between atoms: C_2  and  C_5
REMARK    5  A    between atoms: C_5  and  N_6
REMARK    6  A    between atoms: C_10  and  C_11
REMARK                            x       y       z     vdW  Elec       q    Type
REMARK                         _______ _______ _______ _____ _____    ______ ____
ROOT
ATOM      6  N   UNL     1      47.073   5.344  14.776  0.00  0.00    +0.000 N 
ATOM      7  C   UNL     1      46.370   4.918  13.639  0.00  0.00    +0.000 A 
ATOM      8  C   UNL     1      46.091   5.849  12.642  0.00  0.00    +0.000 A 
ATOM      9  C   UNL     1      45.397   5.444  11.499  0.00  0.00    +0.000 A 
ATOM     10  C   UNL     1      44.992   4.116  11.375  0.00  0.00    +0.000 A 
ATOM     14  C   UNL     1      45.301   3.263  12.419  0.00  0.00    +0.000 A 
ATOM     15  N   UNL     1      45.969   3.637  13.536  0.00  0.00    +0.000 NA
ATOM     16  H   UNL     1      47.938   5.773  14.459  0.00  0.00    +0.000 HD
ENDROOT
BRANCH  10  11
ATOM     11  C   UNL     1      44.266   3.681  10.158  0.00  0.00    +0.000 C 
ATOM     12  N   UNL     1      43.963   4.610   9.201  0.00  0.00    +0.000 N 
ATOM     13  O   UNL     1      43.936   2.512  10.003  0.00  0.00    +0.000 OA
ATOM     17  H   UNL     1      44.195   5.588   9.224  0.00  0.00    +0.000 HD
ATOM     18  H   UNL     1      43.471   4.268   8.384  0.00  0.00    +0.000 HD
ENDBRANCH  10  11
BRANCH   6   5
ATOM      5  C   UNL     1      47.304   4.285  15.764  0.00  0.00    +0.000 C 
BRANCH   5   2
ATOM      1  C   UNL     1      48.913   6.077  16.561  0.00  0.00    +0.000 C 
ATOM      2  C   UNL     1      48.177   4.783  16.943  0.00  0.00    +0.000 C 
ATOM      3  C   UNL     1      49.196   3.710  17.366  0.00  0.00    +0.000 C 
ATOM      4  C   UNL     1      47.257   5.080  18.144  0.00  0.00    +0.000 C 
ENDBRANCH   5   2
ENDBRANCH   6   5
TORSDOF 3
ENDMDL
MODEL 5
REMARK VINA RESULT:    -5.163      3.864      5.329
REMARK INTER + INTRA:          -6.277
REMARK INTER:                  -5.950
REMARK INTRA:                  -0.327
REMARK UNBOUND:                -0.209
REMARK  Name = 
REMARK  6 active torsions:
REMARK  status: ('A' for Active; 'I' for Inactive)
REMARK    1  A    between atoms: C_1  and  C_2
REMARK    2  A    between atoms: C_2  and  C_3
REMARK    3  A    between atoms: C_2  and  C_4
REMARK    4  A    between atoms: C_2  and  C_5
REMARK    5  A    between atoms: C_5  and  N_6
REMARK    6  A    between atoms: C_10  and  C_11
REMARK                            x       y       z     vdW  Elec       q    Type
REMARK                         _______ _______ _______ _____ _____    ______ ____
ROOT
ATOM      6  N   UNL     1      46.974   6.400  13.991  0.00  0.00    +0.000 N 
ATOM      7  C   UNL     1      46.309   5.719  12.960  0.00  0.00    +0.000 A 
ATOM      8  C   UNL     1      45.855   4.425  13.202  0.00  0.00    +0.000 A 
ATOM      9  C   UNL     1      45.186   3.732  12.190  0.00  0.00    +0.000 A 
ATOM     10  C   UNL     1      44.984   4.344  10.954  0.00  0.00    +0.000 A 
ATOM     14  C   UNL     1      45.479   5.627  10.798  0.00  0.00    +0.000 A 
ATOM     15  N   UNL     1      46.133   6.313  11.764  0.00  0.00    +0.000 NA
ATOM     16  H   UNL     1      46.363   6.399  14.803  0.00  0.00    +0.000 HD
ENDROOT
BRANCH  10  11
ATOM     11  C   UNL     1      44.263   3.616   9.884  0.00  0.00    +0.000 C 
ATOM     12  N   UNL     1      44.018   4.253   8.698  0.00  0.00    +0.000 N 
ATOM     13  O   UNL     1      43.884   2.463  10.048  0.00  0.00    +0.000 OA
ATOM     17  H   UNL     1      44.292   5.190   8.457  0.00  0.00    +0.000 HD
ATOM     18  H   UNL     1      43.527   3.717   7.994  0.00  0.00    +0.000 HD
ENDBRANCH  10  11
BRANCH   6   5
ATOM      5  C   UNL     1      47.415   7.750  13.624  0.00  0.00    +0.000 C 
BRANCH   5   2
ATOM      1  C   UNL     1      49.368   9.353  13.856  0.00  0.00    +0.000 C 
ATOM      2  C   UNL     1      48.957   7.882  13.677  0.00  0.00    +0.000 C 
ATOM      3  C   UNL     1      49.603   7.312  12.402  0.00  0.00    +0.000 C 
ATOM      4  C   UNL     1      49.478   7.079  14.886  0.00  0.00    +0.000 C 
ENDBRANCH   5   2
ENDBRANCH   6   5
TORSDOF 3
ENDMDL
MODEL 6
REMARK VINA RESULT:    -5.055      5.209      6.485
REMARK INTER + INTRA:          -6.151
REMARK INTER:                  -5.943
REMARK INTRA:                  -0.207
REMARK UNBOUND:                -0.209
REMARK  Name = 
REMARK  6 active torsions:
REMARK  status: ('A' for Active; 'I' for Inactive)
REMARK    1  A    between atoms: C_1  and  C_2
REMARK    2  A    between atoms: C_2  and  C_3
REMARK    3  A    between atoms: C_2  and  C_4
REMARK    4  A    between atoms: C_2  and  C_5
REMARK    5  A    between atoms: C_5  and  N_6
REMARK    6  A    between atoms: C_10  and  C_11
REMARK                            x       y       z     vdW  Elec       q    Type
REMARK                         _______ _______ _______ _____ _____    ______ ____
ROOT
ATOM      6  N   UNL     1      43.697   8.026  11.061  0.00  0.00    +0.000 N 
ATOM      7  C   UNL     1      44.442   7.122  11.833  0.00  0.00    +0.000 A 
ATOM      8  C   UNL     1      43.968   5.821  11.977  0.00  0.00    +0.000 A 
ATOM      9  C   UNL     1      44.698   4.905  12.737  0.00  0.00    +0.000 A 
ATOM     10  C   UNL     1      45.888   5.306  13.342  0.00  0.00    +0.000 A 
ATOM     14  C   UNL     1      46.277   6.620  13.155  0.00  0.00    +0.000 A 
ATOM     15  N   UNL     1      45.582   7.524  12.426  0.00  0.00    +0.000 NA
ATOM     16  H   UNL     1      43.563   7.609  10.144  0.00  0.00    +0.000 HD
ENDROOT
BRANCH  10  11
ATOM     11  C   UNL     1      46.671   4.332  14.139  0.00  0.00    +0.000 C 
ATOM     12  N   UNL     1      47.096   4.689  15.389  0.00  0.00    +0.000 N 
ATOM     13  O   UNL     1      46.942   3.224  13.693  0.00  0.00    +0.000 OA
ATOM     17  H   UNL     1      46.922   5.565  15.851  0.00  0.00    +0.000 HD
ATOM     18  H   UNL     1      47.624   3.991  15.899  0.00  0.00    +0.000 HD
ENDBRANCH  10  11
BRANCH   6   5
ATOM      5  C   UNL     1      44.283   9.368  10.984  0.00  0.00    +0.000 C 
BRANCH   5   2
ATOM      1  C   UNL     1      43.461  11.756  11.218  0.00  0.00    +0.000 C 
ATOM      2  C   UNL     1      43.252  10.416  10.495  0.00  0.00    +0.000 C 
ATOM      3  C   UNL     1      41.813   9.920  10.723  0.00  0.00    +0.000 C 
ATOM      4  C   UNL     1      43.456  10.639   8.983  0.00  0.00    +0.000 C 
ENDBRANCH   5   2
ENDBRANCH   6   5
TORSDOF 3
ENDMDL
MODEL 7
REMARK VINA RESULT:    -4.847      6.672      8.722
REMARK INTER + INTRA:          -5.905
REMARK INTER:                  -5.712
REMARK INTRA:                  -0.194
REMARK UNBOUND:                -0.209
REMARK  Name = 
REMARK  6 active torsions:
REMARK  status: ('A' for Active; 'I' for Inactive)
REMARK    1  A    between atoms: C_1  and  C_2
REMARK    2  A    between atoms: C_2  and  C_3
REMARK    3  A    between atoms: C_2  and  C_4
REMARK    4  A    between atoms: C_2  and  C_5
REMARK    5  A    between atoms: C_5  and  N_6
REMARK    6  A    between atoms: C_10  and  C_11
REMARK                            x       y       z     vdW  Elec       q    Type
REMARK                         _______ _______ _______ _____ _____    ______ ____
ROOT
ATOM      6  N   UNL     1      46.597   4.016  14.554  0.00  0.00    +0.000 N 
ATOM      7  C   UNL     1      47.478   4.226  15.626  0.00  0.00    +0.000 A 
ATOM      8  C   UNL     1      47.607   3.228  16.587  0.00  0.00    +0.000 A 
ATOM      9  C   UNL     1      48.482   3.416  17.659  0.00  0.00    +0.000 A 
ATOM     10  C   UNL     1      49.212   4.600  17.752  0.00  0.00    +0.000 A 
ATOM     14  C   UNL     1      49.011   5.543  16.759  0.00  0.00    +0.000 A 
ATOM     15  N   UNL     1      48.165   5.381  15.715  0.00  0.00    +0.000 NA
ATOM     16  H   UNL     1      46.863   3.143  14.105  0.00  0.00    +0.000 HD
ENDROOT
BRANCH  10  11
ATOM     11  C   UNL     1      50.151   4.797  18.882  0.00  0.00    +0.000 C 
ATOM     12  N   UNL     1      51.210   3.943  19.018  0.00  0.00    +0.000 N 
ATOM     13  O   UNL     1      49.988   5.705  19.688  0.00  0.00    +0.000 OA
ATOM     17  H   UNL     1      51.439   3.175  18.410  0.00  0.00    +0.000 HD
ATOM     18  H   UNL     1      51.829   4.117  19.801  0.00  0.00    +0.000 HD
ENDBRANCH  10  11
BRANCH   6   5
ATOM      5  C   UNL     1      46.534   5.134  13.607  0.00  0.00    +0.000 C 
BRANCH   5   2
ATOM      1  C   UNL     1      44.091   5.492  13.021  0.00  0.00    +0.000 C 
ATOM      2  C   UNL     1      45.433   4.917  12.539  0.00  0.00    +0.000 C 
ATOM      3  C   UNL     1      45.272   3.422  12.210  0.00  0.00    +0.000 C 
ATOM      4  C   UNL     1      45.847   5.656  11.250  0.00  0.00    +0.000 C 
ENDBRANCH   5   2
ENDBRANCH   6   5
TORSDOF 3
ENDMDL
MODEL 8
REMARK VINA RESULT:    -4.846      4.201      6.103
REMARK INTER + INTRA:          -5.905
REMARK INTER:                  -5.579
REMARK INTRA:                  -0.326
REMARK UNBOUND:                -0.209
REMARK  Name = 
REMARK  6 active torsions:
REMARK  status: ('A' for Active; 'I' for Inactive)
REMARK    1  A    between atoms: C_1  and  C_2
REMARK    2  A    between atoms: C_2  and  C_3
REMARK    3  A    between atoms: C_2  and  C_4
REMARK    4  A    between atoms: C_2  and  C_5
REMARK    5  A    between atoms: C_5  and  N_6
REMARK    6  A    between atoms: C_10  and  C_11
REMARK                            x       y       z     vdW  Elec       q    Type
REMARK                         _______ _______ _______ _____ _____    ______ ____
ROOT
ATOM      6  N   UNL     1      46.324   8.228  12.747  0.00  0.00    +0.000 N 
ATOM      7  C   UNL     1      45.738   6.985  12.461  0.00  0.00    +0.000 A 
ATOM      8  C   UNL     1      44.543   6.962  11.747  0.00  0.00    +0.000 A 
ATOM      9  C   UNL     1      43.947   5.735  11.447  0.00  0.00    +0.000 A 
ATOM     10  C   UNL     1      44.555   4.553  11.867  0.00  0.00    +0.000 A 
ATOM     14  C   UNL     1      45.734   4.672  12.581  0.00  0.00    +0.000 A 
ATOM     15  N   UNL     1      46.326   5.851  12.886  0.00  0.00    +0.000 NA
ATOM     16  H   UNL     1      46.443   8.722  11.867  0.00  0.00    +0.000 HD
ENDROOT
BRANCH  10  11
ATOM     11  C   UNL     1      43.932   3.250  11.539  0.00  0.00    +0.000 C 
ATOM     12  N   UNL     1      43.658   2.373  12.553  0.00  0.00    +0.000 N 
ATOM     13  O   UNL     1      43.664   2.950  10.382  0.00  0.00    +0.000 OA
ATOM     17  H   UNL     1      43.827   2.522  13.532  0.00  0.00    +0.000 HD
ATOM     18  H   UNL     1      43.227   1.497  12.283  0.00  0.00    +0.000 HD
ENDBRANCH  10  11
BRANCH   6   5
ATOM      5  C   UNL     1      47.573   8.136  13.509  0.00  0.00    +0.000 C 
BRANCH   5   2
ATOM      1  C   UNL     1      49.855   9.232  13.681  0.00  0.00    +0.000 C 
ATOM      2  C   UNL     1      48.771   8.720  12.719  0.00  0.00    +0.000 C 
ATOM      3  C   UNL     1      48.315   9.862  11.793  0.00  0.00    +0.000 C 
ATOM      4  C   UNL     1      49.378   7.601  11.848  0.00  0.00    +0.000 C 
ENDBRANCH   5   2
ENDBRANCH   6   5
TORSDOF 3
ENDMDL
MODEL 9
REMARK VINA RESULT:    -4.704      4.498      6.410
REMARK INTER + INTRA:          -5.738
REMARK INTER:                  -5.496
REMARK INTRA:                  -0.241
REMARK UNBOUND:                -0.209
REMARK  Name = 
REMARK  6 active torsions:
REMARK  status: ('A' for Active; 'I' for Inactive)
REMARK    1  A    between atoms: C_1  and  C_2
REMARK    2  A    between atoms: C_2  and  C_3
REMARK    3  A    between atoms: C_2  and  C_4
REMARK    4  A    between atoms: C_2  and  C_5
REMARK    5  A    between atoms: C_5  and  N_6
REMARK    6  A    between atoms: C_10  and  C_11
REMARK                            x       y       z     vdW  Elec       q    Type
REMARK                         _______ _______ _______ _____ _____    ______ ____
ROOT
ATOM      6  N   UNL     1      48.087   7.125  12.804  0.00  0.00    +0.000 N 
ATOM      7  C   UNL     1      47.025   6.233  12.590  0.00  0.00    +0.000 A 
ATOM      8  C   UNL     1      46.357   6.275  11.369  0.00  0.00    +0.000 A 
ATOM      9  C   UNL     1      45.301   5.392  11.134  0.00  0.00    +0.000 A 
ATOM     10  C   UNL     1      44.930   4.484  12.125  0.00  0.00    +0.000 A 
ATOM     14  C   UNL     1      45.641   4.521  13.311  0.00  0.00    +0.000 A 
ATOM     15  N   UNL     1      46.664   5.371  13.559  0.00  0.00    +0.000 NA
ATOM     16  H   UNL     1      48.753   6.997  12.046  0.00  0.00    +0.000 HD
ENDROOT
BRANCH  10  11
ATOM     11  C   UNL     1      43.817   3.537  11.873  0.00  0.00    +0.000 C 
ATOM     12  N   UNL     1      43.810   2.336  12.527  0.00  0.00    +0.000 N 
ATOM     13  O   UNL     1      42.916   3.814  11.092  0.00  0.00    +0.000 OA
ATOM     17  H   UNL     1      44.493   2.014  13.192  0.00  0.00    +0.000 HD
ATOM     18  H   UNL     1      43.029   1.722  12.329  0.00  0.00    +0.000 HD
ENDBRANCH  10  11
BRANCH   6   5
ATOM      5  C   UNL     1      48.713   6.999  14.124  0.00  0.00    +0.000 C 
BRANCH   5   2
ATOM      1  C   UNL     1      48.703   8.469  16.192  0.00  0.00    +0.000 C 
ATOM      2  C   UNL     1      49.098   8.381  14.708  0.00  0.00    +0.000 C 
ATOM      3  C   UNL     1      48.424   9.519  13.922  0.00  0.00    +0.000 C 
ATOM      4  C   UNL     1      50.626   8.553  14.599  0.00  0.00    +0.000 C 
ENDBRANCH   5   2
ENDBRANCH   6   5
TORSDOF 3
ENDMDL
