MODEL 1
REMARK VINA RESULT:    -7.276      0.000      0.000
REMARK INTER + INTRA:          -9.655
REMARK INTER:                  -8.978
REMARK INTRA:                  -0.677
REMARK UNBOUND:                -0.677
REMARK  Name = 
REMARK  4 active torsions:
REMARK  status: ('A' for Active; 'I' for Inactive)
REMARK    1  A    between atoms: C_2  and  C_4
REMARK    2  A    between atoms: N_11  and  C_12
REMARK    3  A    between atoms: C_12  and  C_13
REMARK    4  A    between atoms: N_15  and  C_16
REMARK                            x       y       z     vdW  Elec       q    Type
REMARK                         _______ _______ _______ _____ _____    ______ ____
ROOT
ATOM      4  C   UNL     1      46.454   3.087   7.441  0.00  0.00    +0.000 A 
ATOM      5  C   UNL     1      46.328   4.440   7.751  0.00  0.00    +0.000 A 
ATOM      6  N   UNL     1      45.539   4.955   8.729  0.00  0.00    +0.000 NA
ATOM      7  C   UNL     1      44.901   4.007   9.445  0.00  0.00    +0.000 A 
ATOM      8  C   UNL     1      44.983   2.627   9.271  0.00  0.00    +0.000 A 
ATOM      9  C   UNL     1      44.169   2.032  10.271  0.00  0.00    +0.000 A 
ATOM     10  C   UNL     1      43.598   3.050  11.003  0.00  0.00    +0.000 A 
ATOM     11  N   UNL     1      44.027   4.244  10.477  0.00  0.00    +0.000 N 
ATOM     22  C   UNL     1      45.788   2.144   8.228  0.00  0.00    +0.000 A 
ENDROOT
BRANCH   4   2
ATOM      1  N   UNL     1      48.615   2.507   6.497  0.00  0.00    +0.000 N 
ATOM      2  C   UNL     1      47.278   2.696   6.277  0.00  0.00    +0.000 C 
ATOM      3  O   UNL     1      46.782   2.505   5.176  0.00  0.00    +0.000 OA
ATOM     23  H   UNL     1      49.151   2.129   5.725  0.00  0.00    +0.000 HD
ATOM     24  H   UNL     1      49.014   2.426   7.422  0.00  0.00    +0.000 HD
ENDBRANCH   4   2
BRANCH  11  12
ATOM     12  C   UNL     1      43.679   5.558  10.987  0.00  0.00    +0.000 C 
BRANCH  12  13
ATOM     13  C   UNL     1      44.574   6.066  12.102  0.00  0.00    +0.000 C 
ATOM     14  O   UNL     1      44.263   5.863  13.278  0.00  0.00    +0.000 OA
ATOM     15  N   UNL     1      45.756   6.701  11.764  0.00  0.00    +0.000 N 
ATOM     25  H   UNL     1      46.074   6.661  10.799  0.00  0.00    +0.000 HD
BRANCH  15  16
ATOM     16  C   UNL     1      46.672   7.165  12.810  0.00  0.00    +0.000 C 
ATOM     17  C   UNL     1      46.458   8.637  13.180  0.00  0.00    +0.000 C 
ATOM     18  C   UNL     1      47.203   9.602  12.267  0.00  0.00    +0.000 C 
ATOM     19  N   UNL     1      48.624   9.271  12.172  0.00  0.00    +0.000 NA
ATOM     20  C   UNL     1      48.797   7.931  11.613  0.00  0.00    +0.000 C 
ATOM     21  C   UNL     1      48.141   6.862  12.481  0.00  0.00    +0.000 C 
ATOM     26  H   UNL     1      49.048   9.310  13.097  0.00  0.00    +0.000 HD
ENDBRANCH  15  16
ENDBRANCH  12  13
ENDBRANCH  11  12
TORSDOF 4
ENDMDL
MODEL 2
REMARK VINA RESULT:    -6.884      3.302      7.481
REMARK INTER + INTRA:          -9.170
REMARK INTER:                  -8.568
REMARK INTRA:                  -0.603
REMARK UNBOUND:                -0.677
REMARK  Name = 
REMARK  4 active torsions:
REMARK  status: ('A' for Active; 'I' for Inactive)
REMARK    1  A    between atoms: C_2  and  C_4
REMARK    2  A    between atoms: N_11  and  C_12
REMARK    3  A    between atoms: C_12  and  C_13
REMARK    4  A    between atoms: N_15  and  C_16
REMARK                            x       y       z     vdW  Elec       q    Type
REMARK                         _______ _______ _______ _____ _____    ______ ____
ROOT
ATOM      4  C   UNL     1      47.657   4.589  16.342  0.00  0.00    +0.000 A 
ATOM      5  C   UNL     1      47.117   4.252  15.103  0.00  0.00    +0.000 A 
ATOM      6  N   UNL     1      47.208   4.999  13.972  0.00  0.00    +0.000 NA
ATOM      7  C   UNL     1      47.943   6.117  14.138  0.00  0.00    +0.000 A 
ATOM      8  C   UNL     1      48.578   6.539  15.305  0.00  0.00    +0.000 A 
ATOM      9  C   UNL     1      49.256   7.747  14.997  0.00  0.00    +0.000 A 
ATOM     10  C   UNL     1      49.001   8.044  13.675  0.00  0.00    +0.000 A 
ATOM     11  N   UNL     1      48.182   7.063  13.172  0.00  0.00    +0.000 N 
ATOM     22  C   UNL     1      48.429   5.748  16.455  0.00  0.00    +0.000 A 
ENDROOT
BRANCH   4   2
ATOM      1  N   UNL     1      48.070   3.976  18.655  0.00  0.00    +0.000 N 
ATOM      2  C   UNL     1      47.382   3.715  17.502  0.00  0.00    +0.000 C 
ATOM      3  O   UNL     1      46.544   2.826  17.449  0.00  0.00    +0.000 OA
ATOM     23  H   UNL     1      47.795   3.449  19.475  0.00  0.00    +0.000 HD
ATOM     24  H   UNL     1      48.586   4.832  18.806  0.00  0.00    +0.000 HD
ENDBRANCH   4   2
BRANCH  11  12
ATOM     12  C   UNL     1      47.709   6.988  11.800  0.00  0.00    +0.000 C 
BRANCH  12  13
ATOM     13  C   UNL     1      46.216   6.764  11.652  0.00  0.00    +0.000 C 
ATOM     14  O   UNL     1      45.439   7.713  11.786  0.00  0.00    +0.000 OA
ATOM     15  N   UNL     1      45.767   5.501  11.310  0.00  0.00    +0.000 N 
ATOM     25  H   UNL     1      46.445   4.807  11.006  0.00  0.00    +0.000 HD
BRANCH  15  16
ATOM     16  C   UNL     1      44.336   5.254  11.111  0.00  0.00    +0.000 C 
ATOM     17  C   UNL     1      43.634   4.758  12.380  0.00  0.00    +0.000 C 
ATOM     18  C   UNL     1      43.744   3.251  12.579  0.00  0.00    +0.000 C 
ATOM     19  N   UNL     1      43.304   2.514  11.396  0.00  0.00    +0.000 NA
ATOM     20  C   UNL     1      44.138   2.856  10.245  0.00  0.00    +0.000 C 
ATOM     21  C   UNL     1      44.060   4.342   9.906  0.00  0.00    +0.000 C 
ATOM     26  H   UNL     1      42.333   2.741  11.192  0.00  0.00    +0.000 HD
ENDBRANCH  15  16
ENDBRANCH  12  13
ENDBRANCH  11  12
TORSDOF 4
ENDMDL
MODEL 3
REMARK VINA RESULT:    -6.766      6.160      8.636
REMARK INTER + INTRA:          -9.025
REMARK INTER:                  -8.520
REMARK INTRA:                  -0.505
REMARK UNBOUND:                -0.677
REMARK  Name = 
REMARK  4 active torsions:
REMARK  status: ('A' for Active; 'I' for Inactive)
REMARK    1  A    between atoms: C_2  and  C_4
REMARK    2  A    between atoms: N_11  and  C_12
REMARK    3  A    between atoms: C_12  and  C_13
REMARK    4  A    between atoms: N_15  and  C_16
REMARK                            x       y       z     vdW  Elec       q    Type
REMARK                         _______ _______ _______ _____ _____    ______ ____
ROOT
ATOM      4  C   UNL     1      51.862   2.301  17.697  0.00  0.00    +0.000 A 
ATOM      5  C   UNL     1      50.712   1.703  17.186  0.00  0.00    +0.000 A 
ATOM      6  N   UNL     1      49.537   2.337  16.934  0.00  0.00    +0.000 NA
ATOM      7  C   UNL     1      49.592   3.662  17.176  0.00  0.00    +0.000 A 
ATOM      8  C   UNL     1      50.691   4.387  17.634  0.00  0.00    +0.000 A 
ATOM      9  C   UNL     1      50.292   5.748  17.707  0.00  0.00    +0.000 A 
ATOM     10  C   UNL     1      48.970   5.815  17.322  0.00  0.00    +0.000 A 
ATOM     11  N   UNL     1      48.548   4.541  17.028  0.00  0.00    +0.000 N 
ATOM     22  C   UNL     1      51.873   3.682  17.909  0.00  0.00    +0.000 A 
ENDROOT
BRANCH   4   2
ATOM      1  N   UNL     1      52.799   0.110  18.164  0.00  0.00    +0.000 N 
ATOM      2  C   UNL     1      53.029   1.450  18.011  0.00  0.00    +0.000 C 
ATOM      3  O   UNL     1      54.157   1.914  18.088  0.00  0.00    +0.000 OA
ATOM     23  H   UNL     1      53.616  -0.480  18.265  0.00  0.00    +0.000 HD
ATOM     24  H   UNL     1      51.937  -0.336  17.881  0.00  0.00    +0.000 HD
ENDBRANCH   4   2
BRANCH  11  12
ATOM     12  C   UNL     1      47.224   4.187  16.549  0.00  0.00    +0.000 C 
BRANCH  12  13
ATOM     13  C   UNL     1      47.076   4.164  15.040  0.00  0.00    +0.000 C 
ATOM     14  O   UNL     1      47.421   3.164  14.406  0.00  0.00    +0.000 OA
ATOM     15  N   UNL     1      46.500   5.255  14.415  0.00  0.00    +0.000 N 
ATOM     25  H   UNL     1      46.042   5.961  14.987  0.00  0.00    +0.000 HD
BRANCH  15  16
ATOM     16  C   UNL     1      46.296   5.254  12.963  0.00  0.00    +0.000 C 
ATOM     17  C   UNL     1      46.568   6.619  12.322  0.00  0.00    +0.000 C 
ATOM     18  C   UNL     1      45.368   7.557  12.369  0.00  0.00    +0.000 C 
ATOM     19  N   UNL     1      44.168   6.931  11.815  0.00  0.00    +0.000 NA
ATOM     20  C   UNL     1      43.814   5.741  12.589  0.00  0.00    +0.000 C 
ATOM     21  C   UNL     1      44.923   4.693  12.563  0.00  0.00    +0.000 C 
ATOM     26  H   UNL     1      44.334   6.669  10.846  0.00  0.00    +0.000 HD
ENDBRANCH  15  16
ENDBRANCH  12  13
ENDBRANCH  11  12
TORSDOF 4
ENDMDL
MODEL 4
REMARK VINA RESULT:    -6.524      4.047      6.365
REMARK INTER + INTRA:          -8.726
REMARK INTER:                  -7.991
REMARK INTRA:                  -0.735
REMARK UNBOUND:                -0.677
REMARK  Name = 
REMARK  4 active torsions:
REMARK  status: ('A' for Active; 'I' for Inactive)
REMARK    1  A    between atoms: C_2  and  C_4
REMARK    2  A    between atoms: N_11  and  C_12
REMARK    3  A    between atoms: C_12  and  C_13
REMARK    4  A    between atoms: N_15  and  C_16
REMARK                            x       y       z     vdW  Elec       q    Type
REMARK                         _______ _______ _______ _____ _____    ______ ____
ROOT
ATOM      4  C   UNL     1      44.621   4.659  12.361  0.00  0.00    +0.000 A 
ATOM      5  C   UNL     1      45.845   4.285  12.913  0.00  0.00    +0.000 A 
ATOM      6  N   UNL     1      46.832   5.137  13.295  0.00  0.00    +0.000 NA
ATOM      7  C   UNL     1      46.497   6.434  13.141  0.00  0.00    +0.000 A 
ATOM      8  C   UNL     1      45.292   6.937  12.654  0.00  0.00    +0.000 A 
ATOM      9  C   UNL     1      45.381   8.354  12.705  0.00  0.00    +0.000 A 
ATOM     10  C   UNL     1      46.630   8.676  13.191  0.00  0.00    +0.000 A 
ATOM     11  N   UNL     1      47.308   7.504  13.427  0.00  0.00    +0.000 N 
ATOM     22  C   UNL     1      44.315   6.018  12.244  0.00  0.00    +0.000 A 
ENDROOT
BRANCH   4   2
ATOM      1  N   UNL     1      43.784   2.386  12.519  0.00  0.00    +0.000 N 
ATOM      2  C   UNL     1      43.693   3.604  11.903  0.00  0.00    +0.000 C 
ATOM      3  O   UNL     1      42.851   3.820  11.044  0.00  0.00    +0.000 OA
ATOM     23  H   UNL     1      43.072   1.705  12.282  0.00  0.00    +0.000 HD
ATOM     24  H   UNL     1      44.296   2.240  13.379  0.00  0.00    +0.000 HD
ENDBRANCH   4   2
BRANCH  11  12
ATOM     12  C   UNL     1      48.649   7.408  13.977  0.00  0.00    +0.000 C 
BRANCH  12  13
ATOM     13  C   UNL     1      48.708   7.184  15.476  0.00  0.00    +0.000 C 
ATOM     14  O   UNL     1      48.934   8.135  16.228  0.00  0.00    +0.000 OA
ATOM     15  N   UNL     1      48.447   5.917  15.966  0.00  0.00    +0.000 N 
ATOM     25  H   UNL     1      48.063   5.218  15.336  0.00  0.00    +0.000 HD
BRANCH  15  16
ATOM     16  C   UNL     1      48.448   5.668  17.411  0.00  0.00    +0.000 C 
ATOM     17  C   UNL     1      49.820   5.238  17.941  0.00  0.00    +0.000 C 
ATOM     18  C   UNL     1      50.077   3.743  17.805  0.00  0.00    +0.000 C 
ATOM     19  N   UNL     1      48.999   2.951  18.395  0.00  0.00    +0.000 NA
ATOM     20  C   UNL     1      47.733   3.232  17.718  0.00  0.00    +0.000 C 
ATOM     21  C   UNL     1      47.335   4.700  17.841  0.00  0.00    +0.000 C 
ATOM     26  H   UNL     1      48.912   3.174  19.385  0.00  0.00    +0.000 HD
ENDBRANCH  15  16
ENDBRANCH  12  13
ENDBRANCH  11  12
TORSDOF 4
ENDMDL
MODEL 5
REMARK VINA RESULT:    -6.242      4.609      5.949
REMARK INTER + INTRA:          -8.379
REMARK INTER:                  -8.001
REMARK INTRA:                  -0.378
REMARK UNBOUND:                -0.677
REMARK  Name = 
REMARK  4 active torsions:
REMARK  status: ('A' for Active; 'I' for Inactive)
REMARK    1  A    between atoms: C_2  and  C_4
REMARK    2  A    between atoms: N_11  and  C_12
REMARK    3  A    between atoms: C_12  and  C_13
REMARK    4  A    between atoms: N_15  and  C_16
REMARK                            x       y       z     vdW  Elec       q    Type
REMARK                         _______ _______ _______ _____ _____    ______ ____
ROOT
ATOM      4  C   UNL     1      45.005   4.135  11.038  0.00  0.00    +0.000 A 
ATOM      5  C   UNL     1      45.033   3.290  12.146  0.00  0.00    +0.000 A 
ATOM      6  N   UNL     1      45.715   3.521  13.298  0.00  0.00    +0.000 NA
ATOM      7  C   UNL     1      46.347   4.712  13.306  0.00  0.00    +0.000 A 
ATOM      8  C   UNL     1      46.353   5.665  12.289  0.00  0.00    +0.000 A 
ATOM      9  C   UNL     1      47.119   6.767  12.755  0.00  0.00    +0.000 A 
ATOM     10  C   UNL     1      47.576   6.452  14.017  0.00  0.00    +0.000 A 
ATOM     11  N   UNL     1      47.125   5.193  14.330  0.00  0.00    +0.000 N 
ATOM     22  C   UNL     1      45.659   5.368  11.107  0.00  0.00    +0.000 A 
ENDROOT
BRANCH   4   2
ATOM      1  N   UNL     1      43.971   4.653   8.903  0.00  0.00    +0.000 N 
ATOM      2  C   UNL     1      44.296   3.690   9.819  0.00  0.00    +0.000 C 
ATOM      3  O   UNL     1      44.050   2.510   9.617  0.00  0.00    +0.000 OA
ATOM     23  H   UNL     1      43.590   4.328   8.023  0.00  0.00    +0.000 HD
ATOM     24  H   UNL     1      44.358   5.586   8.924  0.00  0.00    +0.000 HD
ENDBRANCH   4   2
BRANCH  11  12
ATOM     12  C   UNL     1      47.360   4.507  15.588  0.00  0.00    +0.000 C 
BRANCH  12  13
ATOM     13  C   UNL     1      48.318   5.211  16.529  0.00  0.00    +0.000 C 
ATOM     14  O   UNL     1      49.530   5.004  16.437  0.00  0.00    +0.000 OA
ATOM     15  N   UNL     1      47.805   6.120  17.437  0.00  0.00    +0.000 N 
ATOM     25  H   UNL     1      46.837   6.415  17.340  0.00  0.00    +0.000 HD
BRANCH  15  16
ATOM     16  C   UNL     1      48.702   6.858  18.333  0.00  0.00    +0.000 C 
ATOM     17  C   UNL     1      48.679   6.325  19.769  0.00  0.00    +0.000 C 
ATOM     18  C   UNL     1      47.552   6.910  20.611  0.00  0.00    +0.000 C 
ATOM     19  N   UNL     1      47.553   8.371  20.579  0.00  0.00    +0.000 NA
ATOM     20  C   UNL     1      47.358   8.849  19.210  0.00  0.00    +0.000 C 
ATOM     21  C   UNL     1      48.469   8.375  18.277  0.00  0.00    +0.000 C 
ATOM     26  H   UNL     1      48.439   8.723  20.937  0.00  0.00    +0.000 HD
ENDBRANCH  15  16
ENDBRANCH  12  13
ENDBRANCH  11  12
TORSDOF 4
ENDMDL
MODEL 6
REMARK VINA RESULT:    -5.932      1.826      2.569
REMARK INTER + INTRA:          -7.996
REMARK INTER:                  -7.674
REMARK INTRA:                  -0.323
REMARK UNBOUND:                -0.677
REMARK  Name = 
REMARK  4 active torsions:
REMARK  status: ('A' for Active; 'I' for Inactive)
REMARK    1  A    between atoms: C_2  and  C_4
REMARK    2  A    between atoms: N_11  and  C_12
REMARK    3  A    between atoms: C_12  and  C_13
REMARK    4  A    between atoms: N_15  and  C_16
REMARK                            x       y       z     vdW  Elec       q    Type
REMARK                         _______ _______ _______ _____ _____    ______ ____
ROOT
ATOM      4  C   UNL     1      46.739   1.928   6.551  0.00  0.00    +0.000 A 
ATOM      5  C   UNL     1      46.623   1.045   7.623  0.00  0.00    +0.000 A 
ATOM      6  N   UNL     1      45.942   1.285   8.774  0.00  0.00    +0.000 NA
ATOM      7  C   UNL     1      45.313   2.477   8.774  0.00  0.00    +0.000 A 
ATOM      8  C   UNL     1      45.305   3.422   7.750  0.00  0.00    +0.000 A 
ATOM      9  C   UNL     1      44.487   4.499   8.182  0.00  0.00    +0.000 A 
ATOM     10  C   UNL     1      44.042   4.201   9.452  0.00  0.00    +0.000 A 
ATOM     11  N   UNL     1      44.571   2.985   9.812  0.00  0.00    +0.000 N 
ATOM     22  C   UNL     1      46.049   3.142   6.593  0.00  0.00    +0.000 A 
ENDROOT
BRANCH   4   2
ATOM      1  N   UNL     1      48.333   2.557   4.831  0.00  0.00    +0.000 N 
ATOM      2  C   UNL     1      47.603   1.555   5.411  0.00  0.00    +0.000 C 
ATOM      3  O   UNL     1      47.696   0.398   5.030  0.00  0.00    +0.000 OA
ATOM     23  H   UNL     1      49.006   2.276   4.128  0.00  0.00    +0.000 HD
ATOM     24  H   UNL     1      48.460   3.464   5.258  0.00  0.00    +0.000 HD
ENDBRANCH   4   2
BRANCH  11  12
ATOM     12  C   UNL     1      44.315   2.298  11.065  0.00  0.00    +0.000 C 
BRANCH  12  13
ATOM     13  C   UNL     1      44.348   3.183  12.296  0.00  0.00    +0.000 C 
ATOM     14  O   UNL     1      43.544   2.991  13.211  0.00  0.00    +0.000 OA
ATOM     15  N   UNL     1      45.328   4.156  12.385  0.00  0.00    +0.000 N 
ATOM     25  H   UNL     1      46.093   4.142  11.715  0.00  0.00    +0.000 HD
BRANCH  15  16
ATOM     16  C   UNL     1      45.425   5.001  13.579  0.00  0.00    +0.000 C 
ATOM     17  C   UNL     1      44.954   6.439  13.331  0.00  0.00    +0.000 C 
ATOM     18  C   UNL     1      46.041   7.337  12.753  0.00  0.00    +0.000 C 
ATOM     19  N   UNL     1      47.260   7.301  13.559  0.00  0.00    +0.000 NA
ATOM     20  C   UNL     1      47.802   5.943  13.599  0.00  0.00    +0.000 C 
ATOM     21  C   UNL     1      46.820   4.955  14.220  0.00  0.00    +0.000 C 
ATOM     26  H   UNL     1      47.055   7.612  14.507  0.00  0.00    +0.000 HD
ENDBRANCH  15  16
ENDBRANCH  12  13
ENDBRANCH  11  12
TORSDOF 4
ENDMDL
MODEL 7
REMARK VINA RESULT:    -5.918      5.935      8.159
REMARK INTER + INTRA:          -7.979
REMARK INTER:                  -7.428
REMARK INTRA:                  -0.552
REMARK UNBOUND:                -0.677
REMARK  Name = 
REMARK  4 active torsions:
REMARK  status: ('A' for Active; 'I' for Inactive)
REMARK    1  A    between atoms: C_2  and  C_4
REMARK    2  A    between atoms: N_11  and  C_12
REMARK    3  A    between atoms: C_12  and  C_13
REMARK    4  A    between atoms: N_15  and  C_16
REMARK                            x       y       z     vdW  Elec       q    Type
REMARK                         _______ _______ _______ _____ _____    ______ ____
ROOT
ATOM      4  C   UNL     1      51.387   2.299  17.567  0.00  0.00    +0.000 A 
ATOM      5  C   UNL     1      51.752   3.640  17.467  0.00  0.00    +0.000 A 
ATOM      6  N   UNL     1      50.910   4.668  17.185  0.00  0.00    +0.000 NA
ATOM      7  C   UNL     1      49.626   4.277  17.058  0.00  0.00    +0.000 A 
ATOM      8  C   UNL     1      49.126   2.983  17.186  0.00  0.00    +0.000 A 
ATOM      9  C   UNL     1      47.720   3.058  17.003  0.00  0.00    +0.000 A 
ATOM     10  C   UNL     1      47.404   4.375  16.745  0.00  0.00    +0.000 A 
ATOM     11  N   UNL     1      48.570   5.101  16.754  0.00  0.00    +0.000 N 
ATOM     22  C   UNL     1      50.039   1.950  17.448  0.00  0.00    +0.000 A 
ENDROOT
BRANCH   4   2
ATOM      1  N   UNL     1      52.053   0.079  18.293  0.00  0.00    +0.000 N 
ATOM      2  C   UNL     1      52.443   1.286  17.780  0.00  0.00    +0.000 C 
ATOM      3  O   UNL     1      53.606   1.500  17.472  0.00  0.00    +0.000 OA
ATOM     23  H   UNL     1      52.759  -0.646  18.328  0.00  0.00    +0.000 HD
ATOM     24  H   UNL     1      51.086  -0.213  18.338  0.00  0.00    +0.000 HD
ENDBRANCH   4   2
BRANCH  11  12
ATOM     12  C   UNL     1      48.665   6.536  16.558  0.00  0.00    +0.000 C 
BRANCH  12  13
ATOM     13  C   UNL     1      48.738   6.979  15.109  0.00  0.00    +0.000 C 
ATOM     14  O   UNL     1      49.820   6.968  14.519  0.00  0.00    +0.000 OA
ATOM     15  N   UNL     1      47.565   7.332  14.466  0.00  0.00    +0.000 N 
ATOM     25  H   UNL     1      46.678   7.128  14.919  0.00  0.00    +0.000 HD
BRANCH  15  16
ATOM     16  C   UNL     1      47.584   7.721  13.052  0.00  0.00    +0.000 C 
ATOM     17  C   UNL     1      46.818   9.020  12.781  0.00  0.00    +0.000 C 
ATOM     18  C   UNL     1      45.323   8.807  12.578  0.00  0.00    +0.000 C 
ATOM     19  N   UNL     1      45.053   7.798  11.555  0.00  0.00    +0.000 NA
ATOM     20  C   UNL     1      45.620   6.509  11.950  0.00  0.00    +0.000 C 
ATOM     21  C   UNL     1      47.134   6.582  12.125  0.00  0.00    +0.000 C 
ATOM     26  H   UNL     1      45.460   8.090  10.668  0.00  0.00    +0.000 HD
ENDBRANCH  15  16
ENDBRANCH  12  13
ENDBRANCH  11  12
TORSDOF 4
ENDMDL
MODEL 8
REMARK VINA RESULT:    -5.827      4.684      8.106
REMARK INTER + INTRA:          -7.866
REMARK INTER:                  -7.372
REMARK INTRA:                  -0.494
REMARK UNBOUND:                -0.677
REMARK  Name = 
REMARK  4 active torsions:
REMARK  status: ('A' for Active; 'I' for Inactive)
REMARK    1  A    between atoms: C_2  and  C_4
REMARK    2  A    between atoms: N_11  and  C_12
REMARK    3  A    between atoms: C_12  and  C_13
REMARK    4  A    between atoms: N_15  and  C_16
REMARK                            x       y       z     vdW  Elec       q    Type
REMARK                         _______ _______ _______ _____ _____    ______ ____
ROOT
ATOM      4  C   UNL     1      51.353   7.281  15.649  0.00  0.00    +0.000 A 
ATOM      5  C   UNL     1      50.048   7.250  15.162  0.00  0.00    +0.000 A 
ATOM      6  N   UNL     1      49.086   6.368  15.538  0.00  0.00    +0.000 NA
ATOM      7  C   UNL     1      49.496   5.522  16.504  0.00  0.00    +0.000 A 
ATOM      8  C   UNL     1      50.750   5.484  17.110  0.00  0.00    +0.000 A 
ATOM      9  C   UNL     1      50.710   4.456  18.088  0.00  0.00    +0.000 A 
ATOM     10  C   UNL     1      49.458   3.882  18.038  0.00  0.00    +0.000 A 
ATOM     11  N   UNL     1      48.739   4.518  17.055  0.00  0.00    +0.000 N 
ATOM     22  C   UNL     1      51.720   6.396  16.666  0.00  0.00    +0.000 A 
ENDROOT
BRANCH   4   2
ATOM      1  N   UNL     1      52.606   8.093  13.734  0.00  0.00    +0.000 N 
ATOM      2  C   UNL     1      52.312   8.241  15.062  0.00  0.00    +0.000 C 
ATOM      3  O   UNL     1      52.786   9.155  15.720  0.00  0.00    +0.000 OA
ATOM     23  H   UNL     1      53.171   8.820  13.313  0.00  0.00    +0.000 HD
ATOM     24  H   UNL     1      52.065   7.508  13.112  0.00  0.00    +0.000 HD
ENDBRANCH   4   2
BRANCH  11  12
ATOM     12  C   UNL     1      47.358   4.232  16.709  0.00  0.00    +0.000 C 
BRANCH  12  13
ATOM     13  C   UNL     1      47.100   4.032  15.228  0.00  0.00    +0.000 C 
ATOM     14  O   UNL     1      47.563   3.044  14.653  0.00  0.00    +0.000 OA
ATOM     15  N   UNL     1      46.295   4.943  14.568  0.00  0.00    +0.000 N 
ATOM     25  H   UNL     1      45.767   5.617  15.117  0.00  0.00    +0.000 HD
BRANCH  15  16
ATOM     16  C   UNL     1      45.982   4.761  13.147  0.00  0.00    +0.000 C 
ATOM     17  C   UNL     1      46.236   6.022  12.314  0.00  0.00    +0.000 C 
ATOM     18  C   UNL     1      45.065   6.997  12.323  0.00  0.00    +0.000 C 
ATOM     19  N   UNL     1      43.813   6.344  11.945  0.00  0.00    +0.000 NA
ATOM     20  C   UNL     1      43.490   5.277  12.891  0.00  0.00    +0.000 C 
ATOM     21  C   UNL     1      44.570   4.199  12.924  0.00  0.00    +0.000 C 
ATOM     26  H   UNL     1      43.899   5.953  11.008  0.00  0.00    +0.000 HD
ENDBRANCH  15  16
ENDBRANCH  12  13
ENDBRANCH  11  12
TORSDOF 4
ENDMDL
MODEL 9
REMARK VINA RESULT:    -5.584      4.730      6.809
REMARK INTER + INTRA:          -7.567
REMARK INTER:                  -6.874
REMARK INTRA:                  -0.692
REMARK UNBOUND:                -0.677
REMARK  Name = 
REMARK  4 active torsions:
REMARK  status: ('A' for Active; 'I' for Inactive)
REMARK    1  A    between atoms: C_2  and  C_4
REMARK    2  A    between atoms: N_11  and  C_12
REMARK    3  A    between atoms: C_12  and  C_13
REMARK    4  A    between atoms: N_15  and  C_16
REMARK                            x       y       z     vdW  Elec       q    Type
REMARK                         _______ _______ _______ _____ _____    ______ ____
ROOT
ATOM      4  C   UNL     1      47.834   8.266  12.592  0.00  0.00    +0.000 A 
ATOM      5  C   UNL     1      48.722   7.522  13.366  0.00  0.00    +0.000 A 
ATOM      6  N   UNL     1      48.450   6.326  13.950  0.00  0.00    +0.000 NA
ATOM      7  C   UNL     1      47.215   5.870  13.664  0.00  0.00    +0.000 A 
ATOM      8  C   UNL     1      46.255   6.489  12.865  0.00  0.00    +0.000 A 
ATOM      9  C   UNL     1      45.127   5.627  12.824  0.00  0.00    +0.000 A 
ATOM     10  C   UNL     1      45.412   4.531  13.609  0.00  0.00    +0.000 A 
ATOM     11  N   UNL     1      46.670   4.701  14.135  0.00  0.00    +0.000 N 
ATOM     22  C   UNL     1      46.572   7.737  12.308  0.00  0.00    +0.000 A 
ENDROOT
BRANCH   4   2
ATOM      1  N   UNL     1      47.525  10.675  12.548  0.00  0.00    +0.000 N 
ATOM      2  C   UNL     1      48.251   9.601  12.111  0.00  0.00    +0.000 C 
ATOM      3  O   UNL     1      49.228   9.744  11.391  0.00  0.00    +0.000 OA
ATOM     23  H   UNL     1      47.884  11.591  12.308  0.00  0.00    +0.000 HD
ATOM     24  H   UNL     1      46.870  10.620  13.315  0.00  0.00    +0.000 HD
ENDBRANCH   4   2
BRANCH  11  12
ATOM     12  C   UNL     1      47.356   3.750  14.991  0.00  0.00    +0.000 C 
BRANCH  12  13
ATOM     13  C   UNL     1      47.174   3.984  16.479  0.00  0.00    +0.000 C 
ATOM     14  O   UNL     1      46.544   3.167  17.155  0.00  0.00    +0.000 OA
ATOM     15  N   UNL     1      47.776   5.089  17.053  0.00  0.00    +0.000 N 
ATOM     25  H   UNL     1      48.454   5.616  16.507  0.00  0.00    +0.000 HD
BRANCH  15  16
ATOM     16  C   UNL     1      47.665   5.327  18.496  0.00  0.00    +0.000 C 
ATOM     17  C   UNL     1      47.573   6.815  18.849  0.00  0.00    +0.000 C 
ATOM     18  C   UNL     1      48.933   7.492  18.964  0.00  0.00    +0.000 C 
ATOM     19  N   UNL     1      49.820   6.775  19.878  0.00  0.00    +0.000 NA
ATOM     20  C   UNL     1      50.058   5.415  19.393  0.00  0.00    +0.000 C 
ATOM     21  C   UNL     1      48.764   4.612  19.295  0.00  0.00    +0.000 C 
ATOM     26  H   UNL     1      49.400   6.736  20.805  0.00  0.00    +0.000 HD
ENDBRANCH  15  16
ENDBRANCH  12  13
ENDBRANCH  11  12
TORSDOF 4
ENDMDL
