MODEL 1
REMARK VINA RESULT:    -8.348      0.000      0.000
REMARK INTER + INTRA:         -12.904
REMARK INTER:                 -11.764
REMARK INTRA:                  -1.140
REMARK UNBOUND:                -1.140
REMARK  Name = 
REMARK  7 active torsions:
REMARK  status: ('A' for Active; 'I' for Inactive)
REMARK    1  A    between atoms: C_2  and  C_20
REMARK    2  A    between atoms: N_3  and  C_4
REMARK    3  A    between atoms: C_4  and  C_5
REMARK    4  A    between atoms: C_8  and  C_9
REMARK    5  A    between atoms: C_9  and  N_10
REMARK    6  A    between atoms: N_10  and  C_11
REMARK    7  A    between atoms: C_11  and  C_12
REMARK                            x       y       z     vdW  Elec       q    Type
REMARK                         _______ _______ _______ _____ _____    ______ ____
ROOT
ATOM      4  C   UNL     1      48.156   6.675  13.401  0.00  0.00    +0.000 C 
ENDROOT
BRANCH   4   5
ATOM      5  C   UNL     1      46.971   5.985  12.778  0.00  0.00    +0.000 A 
ATOM      6  C   UNL     1      46.341   4.929  13.447  0.00  0.00    +0.000 A 
ATOM      7  C   UNL     1      45.234   4.292  12.886  0.00  0.00    +0.000 A 
ATOM      8  C   UNL     1      44.734   4.690  11.638  0.00  0.00    +0.000 A 
ATOM     18  C   UNL     1      45.382   5.728  10.955  0.00  0.00    +0.000 A 
ATOM     19  C   UNL     1      46.495   6.364  11.516  0.00  0.00    +0.000 A 
BRANCH   8   9
ATOM      9  C   UNL     1      43.535   3.997  11.031  0.00  0.00    +0.000 C 
BRANCH   9  10
ATOM     10  N   UNL     1      43.790   3.618   9.644  0.00  0.00    +0.000 NA
ATOM     31  H   UNL     1      44.341   4.346   9.191  0.00  0.00    +0.000 HD
BRANCH  10  11
ATOM     11  C   UNL     1      44.511   2.351   9.558  0.00  0.00    +0.000 C 
BRANCH  11  12
ATOM     12  C   UNL     1      45.557   2.396   8.468  0.00  0.00    +0.000 A 
ATOM     13  C   UNL     1      46.333   1.269   8.163  0.00  0.00    +0.000 A 
ATOM     14  C   UNL     1      47.281   1.317   7.139  0.00  0.00    +0.000 A 
ATOM     15  C   UNL     1      47.464   2.490   6.410  0.00  0.00    +0.000 A 
ATOM     16  C   UNL     1      46.705   3.621   6.707  0.00  0.00    +0.000 A 
ATOM     17  C   UNL     1      45.758   3.574   7.730  0.00  0.00    +0.000 A 
ENDBRANCH  11  12
ENDBRANCH  10  11
ENDBRANCH   9  10
ENDBRANCH   8   9
ENDBRANCH   4   5
BRANCH   4   3
ATOM      1  O   UNL     1      50.310   6.768  15.225  0.00  0.00    +0.000 OA
ATOM      2  C   UNL     1      49.160   6.800  15.651  0.00  0.00    +0.000 C 
ATOM      3  N   UNL     1      48.061   6.693  14.837  0.00  0.00    +0.000 N 
ATOM     30  H   UNL     1      47.149   6.922  15.212  0.00  0.00    +0.000 HD
BRANCH   2  20
ATOM     20  C   UNL     1      48.878   6.892  17.089  0.00  0.00    +0.000 A 
ATOM     21  C   UNL     1      48.501   8.104  17.648  0.00  0.00    +0.000 A 
ATOM     22  S   UNL     1      48.232   8.021  19.332  0.00  0.00    +0.000 S 
ATOM     23  C   UNL     1      48.572   6.353  19.360  0.00  0.00    +0.000 A 
ATOM     24  N   UNL     1      48.501   5.642  20.515  0.00  0.00    +0.000 NA
ATOM     25  C   UNL     1      48.745   4.378  20.380  0.00  0.00    +0.000 A 
ATOM     26  N   UNL     1      49.065   3.768  19.197  0.00  0.00    +0.000 N 
ATOM     27  C   UNL     1      49.226   4.460  18.021  0.00  0.00    +0.000 A 
ATOM     28  O   UNL     1      49.658   3.899  17.019  0.00  0.00    +0.000 OA
ATOM     29  C   UNL     1      48.913   5.873  18.109  0.00  0.00    +0.000 A 
ATOM     32  H   UNL     1      49.281   2.783  19.165  0.00  0.00    +0.000 HD
ENDBRANCH   2  20
ENDBRANCH   4   3
TORSDOF 7
ENDMDL
MODEL 2
REMARK VINA RESULT:    -7.500      1.620      2.667
REMARK INTER + INTRA:         -11.710
REMARK INTER:                 -10.741
REMARK INTRA:                  -0.969
REMARK UNBOUND:                -1.140
REMARK  Name = 
REMARK  7 active torsions:
REMARK  status: ('A' for Active; 'I' for Inactive)
REMARK    1  A    between atoms: C_2  and  C_20
REMARK    2  A    between atoms: N_3  and  C_4
REMARK    3  A    between atoms: C_4  and  C_5
REMARK    4  A    between atoms: C_8  and  C_9
REMARK    5  A    between atoms: C_9  and  N_10
REMARK    6  A    between atoms: N_10  and  C_11
REMARK    7  A    between atoms: C_11  and  C_12
REMARK                            x       y       z     vdW  Elec       q    Type
REMARK                         _______ _______ _______ _____ _____    ______ ____
ROOT
ATOM      4  C   UNL     1      47.284   3.792  15.012  0.00  0.00    +0.000 C 
ENDROOT
BRANCH   4   5
ATOM      5  C   UNL     1      46.654   4.292  13.738  0.00  0.00    +0.000 A 
ATOM      6  C   UNL     1      46.913   5.592  13.290  0.00  0.00    +0.000 A 
ATOM      7  C   UNL     1      46.346   6.061  12.104  0.00  0.00    +0.000 A 
ATOM      8  C   UNL     1      45.501   5.243  11.341  0.00  0.00    +0.000 A 
ATOM     18  C   UNL     1      45.219   3.951  11.805  0.00  0.00    +0.000 A 
ATOM     19  C   UNL     1      45.783   3.483  12.997  0.00  0.00    +0.000 A 
BRANCH   8   9
ATOM      9  C   UNL     1      44.886   5.754  10.058  0.00  0.00    +0.000 C 
BRANCH   9  10
ATOM     10  N   UNL     1      45.542   5.175   8.889  0.00  0.00    +0.000 NA
ATOM     31  H   UNL     1      46.503   4.932   9.128  0.00  0.00    +0.000 HD
BRANCH  10  11
ATOM     11  C   UNL     1      44.849   3.976   8.424  0.00  0.00    +0.000 C 
BRANCH  11  12
ATOM     12  C   UNL     1      45.813   3.012   7.772  0.00  0.00    +0.000 A 
ATOM     13  C   UNL     1      45.981   1.712   8.268  0.00  0.00    +0.000 A 
ATOM     14  C   UNL     1      46.858   0.823   7.642  0.00  0.00    +0.000 A 
ATOM     15  C   UNL     1      47.575   1.223   6.516  0.00  0.00    +0.000 A 
ATOM     16  C   UNL     1      47.423   2.516   6.017  0.00  0.00    +0.000 A 
ATOM     17  C   UNL     1      46.548   3.405   6.641  0.00  0.00    +0.000 A 
ENDBRANCH  11  12
ENDBRANCH  10  11
ENDBRANCH   9  10
ENDBRANCH   8   9
ENDBRANCH   4   5
BRANCH   4   3
ATOM      1  O   UNL     1      48.003   3.513  17.728  0.00  0.00    +0.000 OA
ATOM      2  C   UNL     1      47.882   4.637  17.250  0.00  0.00    +0.000 C 
ATOM      3  N   UNL     1      47.473   4.857  15.961  0.00  0.00    +0.000 N 
ATOM     30  H   UNL     1      47.581   5.783  15.563  0.00  0.00    +0.000 HD
BRANCH   2  20
ATOM     20  C   UNL     1      48.110   5.841  18.059  0.00  0.00    +0.000 A 
ATOM     21  C   UNL     1      47.394   6.038  19.231  0.00  0.00    +0.000 A 
ATOM     22  S   UNL     1      47.781   7.499  20.025  0.00  0.00    +0.000 S 
ATOM     23  C   UNL     1      48.946   7.895  18.848  0.00  0.00    +0.000 A 
ATOM     24  N   UNL     1      49.679   9.035  18.943  0.00  0.00    +0.000 NA
ATOM     25  C   UNL     1      50.554   9.187  18.001  0.00  0.00    +0.000 A 
ATOM     26  N   UNL     1      50.751   8.306  16.971  0.00  0.00    +0.000 N 
ATOM     27  C   UNL     1      49.980   7.183  16.793  0.00  0.00    +0.000 A 
ATOM     28  O   UNL     1      50.091   6.504  15.778  0.00  0.00    +0.000 OA
ATOM     29  C   UNL     1      49.018   6.941  17.850  0.00  0.00    +0.000 A 
ATOM     32  H   UNL     1      51.425   8.502  16.246  0.00  0.00    +0.000 HD
ENDBRANCH   2  20
ENDBRANCH   4   3
TORSDOF 7
ENDMDL
MODEL 3
REMARK VINA RESULT:    -7.239      3.499      8.474
REMARK INTER + INTRA:         -11.342
REMARK INTER:                  -9.709
REMARK INTRA:                  -1.634
REMARK UNBOUND:                -1.140
REMARK  Name = 
REMARK  7 active torsions:
REMARK  status: ('A' for Active; 'I' for Inactive)
REMARK    1  A    between atoms: C_2  and  C_20
REMARK    2  A    between atoms: N_3  and  C_4
REMARK    3  A    between atoms: C_4  and  C_5
REMARK    4  A    between atoms: C_8  and  C_9
REMARK    5  A    between atoms: C_9  and  N_10
REMARK    6  A    between atoms: N_10  and  C_11
REMARK    7  A    between atoms: C_11  and  C_12
REMARK                            x       y       z     vdW  Elec       q    Type
REMARK                         _______ _______ _______ _____ _____    ______ ____
ROOT
ATOM      4  C   UNL     1      48.139   8.069  12.157  0.00  0.00    +0.000 C 
ENDROOT
BRANCH   4   5
ATOM      5  C   UNL     1      48.315   7.963  13.649  0.00  0.00    +0.000 A 
ATOM      6  C   UNL     1      48.256   9.112  14.446  0.00  0.00    +0.000 A 
ATOM      7  C   UNL     1      48.403   9.025  15.831  0.00  0.00    +0.000 A 
ATOM      8  C   UNL     1      48.620   7.786  16.452  0.00  0.00    +0.000 A 
ATOM     18  C   UNL     1      48.707   6.640  15.651  0.00  0.00    +0.000 A 
ATOM     19  C   UNL     1      48.565   6.728  14.262  0.00  0.00    +0.000 A 
BRANCH   8   9
ATOM      9  C   UNL     1      48.781   7.694  17.953  0.00  0.00    +0.000 C 
BRANCH   9  10
ATOM     10  N   UNL     1      47.683   6.946  18.558  0.00  0.00    +0.000 NA
ATOM     31  H   UNL     1      47.071   6.592  17.823  0.00  0.00    +0.000 HD
BRANCH  10  11
ATOM     11  C   UNL     1      48.172   5.824  19.355  0.00  0.00    +0.000 C 
BRANCH  11  12
ATOM     12  C   UNL     1      48.450   4.622  18.483  0.00  0.00    +0.000 A 
ATOM     13  C   UNL     1      47.416   3.973  17.795  0.00  0.00    +0.000 A 
ATOM     14  C   UNL     1      47.689   2.876  16.974  0.00  0.00    +0.000 A 
ATOM     15  C   UNL     1      48.997   2.418  16.832  0.00  0.00    +0.000 A 
ATOM     16  C   UNL     1      50.035   3.049  17.517  0.00  0.00    +0.000 A 
ATOM     17  C   UNL     1      49.763   4.144  18.337  0.00  0.00    +0.000 A 
ENDBRANCH  11  12
ENDBRANCH  10  11
ENDBRANCH   9  10
ENDBRANCH   8   9
ENDBRANCH   4   5
BRANCH   4   3
ATOM      1  O   UNL     1      45.357   7.865  11.723  0.00  0.00    +0.000 OA
ATOM      2  C   UNL     1      46.087   6.937  11.391  0.00  0.00    +0.000 C 
ATOM      3  N   UNL     1      47.437   6.930  11.626  0.00  0.00    +0.000 N 
ATOM     30  H   UNL     1      48.014   6.240  11.160  0.00  0.00    +0.000 HD
BRANCH   2  20
ATOM     20  C   UNL     1      45.546   5.724  10.765  0.00  0.00    +0.000 A 
ATOM     21  C   UNL     1      45.801   5.456   9.429  0.00  0.00    +0.000 A 
ATOM     22  S   UNL     1      45.077   4.013   8.874  0.00  0.00    +0.000 S 
ATOM     23  C   UNL     1      44.433   3.679  10.414  0.00  0.00    +0.000 A 
ATOM     24  N   UNL     1      43.707   2.554  10.642  0.00  0.00    +0.000 NA
ATOM     25  C   UNL     1      43.315   2.410  11.867  0.00  0.00    +0.000 A 
ATOM     26  N   UNL     1      43.576   3.296  12.878  0.00  0.00    +0.000 N 
ATOM     27  C   UNL     1      44.238   4.483  12.677  0.00  0.00    +0.000 A 
ATOM     28  O   UNL     1      44.318   5.314  13.575  0.00  0.00    +0.000 OA
ATOM     29  C   UNL     1      44.742   4.668  11.330  0.00  0.00    +0.000 A 
ATOM     32  H   UNL     1      43.210   3.144  13.806  0.00  0.00    +0.000 HD
ENDBRANCH   2  20
ENDBRANCH   4   3
TORSDOF 7
ENDMDL
MODEL 4
REMARK VINA RESULT:    -7.234      2.861      4.540
REMARK INTER + INTRA:         -11.334
REMARK INTER:                 -10.166
REMARK INTRA:                  -1.168
REMARK UNBOUND:                -1.140
REMARK  Name = 
REMARK  7 active torsions:
REMARK  status: ('A' for Active; 'I' for Inactive)
REMARK    1  A    between atoms: C_2  and  C_20
REMARK    2  A    between atoms: N_3  and  C_4
REMARK    3  A    between atoms: C_4  and  C_5
REMARK    4  A    between atoms: C_8  and  C_9
REMARK    5  A    between atoms: C_9  and  N_10
REMARK    6  A    between atoms: N_10  and  C_11
REMARK    7  A    between atoms: C_11  and  C_12
REMARK                            x       y       z     vdW  Elec       q    Type
REMARK                         _______ _______ _______ _____ _____    ______ ____
ROOT
ATOM      4  C   UNL     1      47.704   5.647  14.381  0.00  0.00    +0.000 C 
ENDROOT
BRANCH   4   5
ATOM      5  C   UNL     1      46.657   5.440  13.319  0.00  0.00    +0.000 A 
ATOM      6  C   UNL     1      45.712   4.416  13.454  0.00  0.00    +0.000 A 
ATOM      7  C   UNL     1      44.729   4.224  12.483  0.00  0.00    +0.000 A 
ATOM      8  C   UNL     1      44.670   5.046  11.349  0.00  0.00    +0.000 A 
ATOM     18  C   UNL     1      45.634   6.053  11.200  0.00  0.00    +0.000 A 
ATOM     19  C   UNL     1      46.623   6.242  12.171  0.00  0.00    +0.000 A 
BRANCH   8   9
ATOM      9  C   UNL     1      43.605   4.835  10.297  0.00  0.00    +0.000 C 
BRANCH   9  10
ATOM     10  N   UNL     1      44.182   4.332   9.053  0.00  0.00    +0.000 NA
ATOM     31  H   UNL     1      44.991   4.900   8.803  0.00  0.00    +0.000 HD
BRANCH  10  11
ATOM     11  C   UNL     1      44.599   2.937   9.181  0.00  0.00    +0.000 C 
BRANCH  11  12
ATOM     12  C   UNL     1      45.648   2.589   8.151  0.00  0.00    +0.000 A 
ATOM     13  C   UNL     1      46.281   1.339   8.158  0.00  0.00    +0.000 A 
ATOM     14  C   UNL     1      47.232   1.021   7.187  0.00  0.00    +0.000 A 
ATOM     15  C   UNL     1      47.560   1.947   6.198  0.00  0.00    +0.000 A 
ATOM     16  C   UNL     1      46.943   3.197   6.183  0.00  0.00    +0.000 A 
ATOM     17  C   UNL     1      45.993   3.516   7.153  0.00  0.00    +0.000 A 
ENDBRANCH  11  12
ENDBRANCH  10  11
ENDBRANCH   9  10
ENDBRANCH   8   9
ENDBRANCH   4   5
BRANCH   4   3
ATOM      1  O   UNL     1      50.072   6.464  15.685  0.00  0.00    +0.000 OA
ATOM      2  C   UNL     1      49.562   7.200  14.847  0.00  0.00    +0.000 C 
ATOM      3  N   UNL     1      48.380   6.907  14.218  0.00  0.00    +0.000 N 
ATOM     30  H   UNL     1      48.110   7.445  13.403  0.00  0.00    +0.000 HD
BRANCH   2  20
ATOM     20  C   UNL     1      50.160   8.496  14.502  0.00  0.00    +0.000 A 
ATOM     21  C   UNL     1      50.416   9.431  15.494  0.00  0.00    +0.000 A 
ATOM     22  S   UNL     1      51.095  10.882  14.902  0.00  0.00    +0.000 S 
ATOM     23  C   UNL     1      51.105  10.290  13.305  0.00  0.00    +0.000 A 
ATOM     24  N   UNL     1      51.592  11.040  12.283  0.00  0.00    +0.000 NA
ATOM     25  C   UNL     1      51.575  10.448  11.131  0.00  0.00    +0.000 A 
ATOM     26  N   UNL     1      51.104   9.181  10.914  0.00  0.00    +0.000 N 
ATOM     27  C   UNL     1      50.531   8.418  11.902  0.00  0.00    +0.000 A 
ATOM     28  O   UNL     1      49.988   7.352  11.633  0.00  0.00    +0.000 OA
ATOM     29  C   UNL     1      50.573   9.017  13.222  0.00  0.00    +0.000 A 
ATOM     32  H   UNL     1      51.084   8.790   9.983  0.00  0.00    +0.000 HD
ENDBRANCH   2  20
ENDBRANCH   4   3
TORSDOF 7
ENDMDL
MODEL 5
REMARK VINA RESULT:    -7.108      4.498      5.477
REMARK INTER + INTRA:         -11.157
REMARK INTER:                 -10.003
REMARK INTRA:                  -1.154
REMARK UNBOUND:                -1.140
REMARK  Name = 
REMARK  7 active torsions:
REMARK  status: ('A' for Active; 'I' for Inactive)
REMARK    1  A    between atoms: C_2  and  C_20
REMARK    2  A    between atoms: N_3  and  C_4
REMARK    3  A    between atoms: C_4  and  C_5
REMARK    4  A    between atoms: C_8  and  C_9
REMARK    5  A    between atoms: C_9  and  N_10
REMARK    6  A    between atoms: N_10  and  C_11
REMARK    7  A    between atoms: C_11  and  C_12
REMARK                            x       y       z     vdW  Elec       q    Type
REMARK                         _______ _______ _______ _____ _____    ______ ____
ROOT
ATOM      4  C   UNL     1      45.690   8.842  12.845  0.00  0.00    +0.000 C 
ENDROOT
BRANCH   4   5
ATOM      5  C   UNL     1      45.415   7.414  12.449  0.00  0.00    +0.000 A 
ATOM      6  C   UNL     1      46.196   6.378  12.971  0.00  0.00    +0.000 A 
ATOM      7  C   UNL     1      45.942   5.051  12.623  0.00  0.00    +0.000 A 
ATOM      8  C   UNL     1      44.904   4.729  11.737  0.00  0.00    +0.000 A 
ATOM     18  C   UNL     1      44.139   5.769  11.192  0.00  0.00    +0.000 A 
ATOM     19  C   UNL     1      44.398   7.100  11.538  0.00  0.00    +0.000 A 
BRANCH   8   9
ATOM      9  C   UNL     1      44.631   3.290  11.359  0.00  0.00    +0.000 C 
BRANCH   9  10
ATOM     10  N   UNL     1      44.048   3.196  10.024  0.00  0.00    +0.000 NA
ATOM     31  H   UNL     1      44.370   3.981   9.459  0.00  0.00    +0.000 HD
BRANCH  10  11
ATOM     11  C   UNL     1      44.420   1.947   9.363  0.00  0.00    +0.000 C 
BRANCH  11  12
ATOM     12  C   UNL     1      45.564   2.164   8.401  0.00  0.00    +0.000 A 
ATOM     13  C   UNL     1      45.831   3.433   7.869  0.00  0.00    +0.000 A 
ATOM     14  C   UNL     1      46.906   3.625   6.998  0.00  0.00    +0.000 A 
ATOM     15  C   UNL     1      47.725   2.552   6.651  0.00  0.00    +0.000 A 
ATOM     16  C   UNL     1      47.467   1.283   7.167  0.00  0.00    +0.000 A 
ATOM     17  C   UNL     1      46.394   1.090   8.036  0.00  0.00    +0.000 A 
ENDBRANCH  11  12
ENDBRANCH  10  11
ENDBRANCH   9  10
ENDBRANCH   8   9
ENDBRANCH   4   5
BRANCH   4   3
ATOM      1  O   UNL     1      48.154   9.417  14.096  0.00  0.00    +0.000 OA
ATOM      2  C   UNL     1      48.054   9.543  12.880  0.00  0.00    +0.000 C 
ATOM      3  N   UNL     1      46.876   9.347  12.206  0.00  0.00    +0.000 N 
ATOM     30  H   UNL     1      46.895   9.270  11.196  0.00  0.00    +0.000 HD
BRANCH   2  20
ATOM     20  C   UNL     1      49.189   9.981  12.059  0.00  0.00    +0.000 A 
ATOM     21  C   UNL     1      49.353  11.324  11.756  0.00  0.00    +0.000 A 
ATOM     22  S   UNL     1      50.717  11.639  10.779  0.00  0.00    +0.000 S 
ATOM     23  C   UNL     1      51.155   9.994  10.763  0.00  0.00    +0.000 A 
ATOM     24  N   UNL     1      52.267   9.571  10.109  0.00  0.00    +0.000 NA
ATOM     25  C   UNL     1      52.499   8.302  10.215  0.00  0.00    +0.000 A 
ATOM     26  N   UNL     1      51.711   7.421  10.907  0.00  0.00    +0.000 N 
ATOM     27  C   UNL     1      50.537   7.791  11.516  0.00  0.00    +0.000 A 
ATOM     28  O   UNL     1      49.788   6.946  11.995  0.00  0.00    +0.000 OA
ATOM     29  C   UNL     1      50.258   9.213  11.468  0.00  0.00    +0.000 A 
ATOM     32  H   UNL     1      51.927   6.436  10.920  0.00  0.00    +0.000 HD
ENDBRANCH   2  20
ENDBRANCH   4   3
TORSDOF 7
ENDMDL
MODEL 6
REMARK VINA RESULT:    -7.092      4.219      6.413
REMARK INTER + INTRA:         -11.135
REMARK INTER:                  -9.614
REMARK INTRA:                  -1.521
REMARK UNBOUND:                -1.140
REMARK  Name = 
REMARK  7 active torsions:
REMARK  status: ('A' for Active; 'I' for Inactive)
REMARK    1  A    between atoms: C_2  and  C_20
REMARK    2  A    between atoms: N_3  and  C_4
REMARK    3  A    between atoms: C_4  and  C_5
REMARK    4  A    between atoms: C_8  and  C_9
REMARK    5  A    between atoms: C_9  and  N_10
REMARK    6  A    between atoms: N_10  and  C_11
REMARK    7  A    between atoms: C_11  and  C_12
REMARK                            x       y       z     vdW  Elec       q    Type
REMARK                         _______ _______ _______ _____ _____    ______ ____
ROOT
ATOM      4  C   UNL     1      48.436   6.997  13.246  0.00  0.00    +0.000 C 
ENDROOT
BRANCH   4   5
ATOM      5  C   UNL     1      47.092   6.325  13.136  0.00  0.00    +0.000 A 
ATOM      6  C   UNL     1      46.958   4.968  13.449  0.00  0.00    +0.000 A 
ATOM      7  C   UNL     1      45.715   4.338  13.364  0.00  0.00    +0.000 A 
ATOM      8  C   UNL     1      44.578   5.049  12.957  0.00  0.00    +0.000 A 
ATOM     18  C   UNL     1      44.718   6.402  12.616  0.00  0.00    +0.000 A 
ATOM     19  C   UNL     1      45.965   7.031  12.696  0.00  0.00    +0.000 A 
BRANCH   8   9
ATOM      9  C   UNL     1      43.232   4.365  12.863  0.00  0.00    +0.000 C 
BRANCH   9  10
ATOM     10  N   UNL     1      42.915   4.009  11.483  0.00  0.00    +0.000 NA
ATOM     31  H   UNL     1      43.186   4.774  10.867  0.00  0.00    +0.000 HD
BRANCH  10  11
ATOM     11  C   UNL     1      43.612   2.793  11.069  0.00  0.00    +0.000 C 
BRANCH  11  12
ATOM     12  C   UNL     1      44.507   3.060   9.882  0.00  0.00    +0.000 A 
ATOM     13  C   UNL     1      44.838   4.369   9.506  0.00  0.00    +0.000 A 
ATOM     14  C   UNL     1      45.685   4.601   8.420  0.00  0.00    +0.000 A 
ATOM     15  C   UNL     1      46.210   3.530   7.700  0.00  0.00    +0.000 A 
ATOM     16  C   UNL     1      45.883   2.223   8.059  0.00  0.00    +0.000 A 
ATOM     17  C   UNL     1      45.037   1.989   9.143  0.00  0.00    +0.000 A 
ENDBRANCH  11  12
ENDBRANCH  10  11
ENDBRANCH   9  10
ENDBRANCH   8   9
ENDBRANCH   4   5
BRANCH   4   3
ATOM      1  O   UNL     1      49.862   9.387  13.719  0.00  0.00    +0.000 OA
ATOM      2  C   UNL     1      49.303   9.224  12.640  0.00  0.00    +0.000 C 
ATOM      3  N   UNL     1      48.537   8.123  12.357  0.00  0.00    +0.000 N 
ATOM     30  H   UNL     1      48.267   7.947  11.396  0.00  0.00    +0.000 HD
BRANCH   2  20
ATOM     20  C   UNL     1      49.365  10.243  11.585  0.00  0.00    +0.000 A 
ATOM     21  C   UNL     1      50.577  10.557  10.990  0.00  0.00    +0.000 A 
ATOM     22  S   UNL     1      50.455  11.774   9.798  0.00  0.00    +0.000 S 
ATOM     23  C   UNL     1      48.770  11.892  10.013  0.00  0.00    +0.000 A 
ATOM     24  N   UNL     1      48.027  12.752   9.269  0.00  0.00    +0.000 NA
ATOM     25  C   UNL     1      46.756  12.706   9.511  0.00  0.00    +0.000 A 
ATOM     26  N   UNL     1      46.168  11.886  10.435  0.00  0.00    +0.000 N 
ATOM     27  C   UNL     1      46.887  11.058  11.263  0.00  0.00    +0.000 A 
ATOM     28  O   UNL     1      46.336  10.454  12.176  0.00  0.00    +0.000 OA
ATOM     29  C   UNL     1      48.313  11.036  10.997  0.00  0.00    +0.000 A 
ATOM     32  H   UNL     1      45.174  11.925  10.602  0.00  0.00    +0.000 HD
ENDBRANCH   2  20
ENDBRANCH   4   3
TORSDOF 7
ENDMDL
MODEL 7
REMARK VINA RESULT:    -7.020      3.288      8.839
REMARK INTER + INTRA:         -11.034
REMARK INTER:                  -9.431
REMARK INTRA:                  -1.602
REMARK UNBOUND:                -1.140
REMARK  Name = 
REMARK  7 active torsions:
REMARK  status: ('A' for Active; 'I' for Inactive)
REMARK    1  A    between atoms: C_2  and  C_20
REMARK    2  A    between atoms: N_3  and  C_4
REMARK    3  A    between atoms: C_4  and  C_5
REMARK    4  A    between atoms: C_8  and  C_9
REMARK    5  A    between atoms: C_9  and  N_10
REMARK    6  A    between atoms: N_10  and  C_11
REMARK    7  A    between atoms: C_11  and  C_12
REMARK                            x       y       z     vdW  Elec       q    Type
REMARK                         _______ _______ _______ _____ _____    ______ ____
ROOT
ATOM      4  C   UNL     1      47.640   7.778  12.016  0.00  0.00    +0.000 C 
ENDROOT
BRANCH   4   5
ATOM      5  C   UNL     1      48.213   7.901  13.404  0.00  0.00    +0.000 A 
ATOM      6  C   UNL     1      47.720   8.871  14.283  0.00  0.00    +0.000 A 
ATOM      7  C   UNL     1      48.234   8.986  15.576  0.00  0.00    +0.000 A 
ATOM      8  C   UNL     1      49.259   8.138  16.017  0.00  0.00    +0.000 A 
ATOM     18  C   UNL     1      49.772   7.185  15.127  0.00  0.00    +0.000 A 
ATOM     19  C   UNL     1      49.260   7.073  13.829  0.00  0.00    +0.000 A 
BRANCH   8   9
ATOM      9  C   UNL     1      49.815   8.265  17.418  0.00  0.00    +0.000 C 
BRANCH   9  10
ATOM     10  N   UNL     1      50.485   7.036  17.834  0.00  0.00    +0.000 NA
ATOM     31  H   UNL     1      51.344   7.271  18.329  0.00  0.00    +0.000 HD
BRANCH  10  11
ATOM     11  C   UNL     1      49.635   6.232  18.709  0.00  0.00    +0.000 C 
BRANCH  11  12
ATOM     12  C   UNL     1      49.160   4.983  18.005  0.00  0.00    +0.000 A 
ATOM     13  C   UNL     1      49.988   3.858  17.891  0.00  0.00    +0.000 A 
ATOM     14  C   UNL     1      49.530   2.701  17.257  0.00  0.00    +0.000 A 
ATOM     15  C   UNL     1      48.240   2.656  16.732  0.00  0.00    +0.000 A 
ATOM     16  C   UNL     1      47.408   3.770  16.831  0.00  0.00    +0.000 A 
ATOM     17  C   UNL     1      47.865   4.926  17.464  0.00  0.00    +0.000 A 
ENDBRANCH  11  12
ENDBRANCH  10  11
ENDBRANCH   9  10
ENDBRANCH   8   9
ENDBRANCH   4   5
BRANCH   4   3
ATOM      1  O   UNL     1      44.832   7.544  11.845  0.00  0.00    +0.000 OA
ATOM      2  C   UNL     1      45.527   6.540  11.726  0.00  0.00    +0.000 C 
ATOM      3  N   UNL     1      46.891   6.559  11.861  0.00  0.00    +0.000 N 
ATOM     30  H   UNL     1      47.425   5.753  11.560  0.00  0.00    +0.000 HD
BRANCH   2  20
ATOM     20  C   UNL     1      44.931   5.219  11.489  0.00  0.00    +0.000 A 
ATOM     21  C   UNL     1      44.201   4.596  12.490  0.00  0.00    +0.000 A 
ATOM     22  S   UNL     1      43.601   3.062  12.038  0.00  0.00    +0.000 S 
ATOM     23  C   UNL     1      44.264   3.201  10.476  0.00  0.00    +0.000 A 
ATOM     24  N   UNL     1      44.095   2.220   9.553  0.00  0.00    +0.000 NA
ATOM     25  C   UNL     1      44.618   2.478   8.398  0.00  0.00    +0.000 A 
ATOM     26  N   UNL     1      45.303   3.623   8.091  0.00  0.00    +0.000 N 
ATOM     27  C   UNL     1      45.565   4.606   9.014  0.00  0.00    +0.000 A 
ATOM     28  O   UNL     1      46.308   5.541   8.738  0.00  0.00    +0.000 OA
ATOM     29  C   UNL     1      44.956   4.387  10.312  0.00  0.00    +0.000 A 
ATOM     32  H   UNL     1      45.720   3.747   7.180  0.00  0.00    +0.000 HD
ENDBRANCH   2  20
ENDBRANCH   4   3
TORSDOF 7
ENDMDL
MODEL 8
REMARK VINA RESULT:    -6.987      3.506      8.543
REMARK INTER + INTRA:         -10.986
REMARK INTER:                  -8.862
REMARK INTRA:                  -2.124
REMARK UNBOUND:                -1.140
REMARK  Name = 
REMARK  7 active torsions:
REMARK  status: ('A' for Active; 'I' for Inactive)
REMARK    1  A    between atoms: C_2  and  C_20
REMARK    2  A    between atoms: N_3  and  C_4
REMARK    3  A    between atoms: C_4  and  C_5
REMARK    4  A    between atoms: C_8  and  C_9
REMARK    5  A    between atoms: C_9  and  N_10
REMARK    6  A    between atoms: N_10  and  C_11
REMARK    7  A    between atoms: C_11  and  C_12
REMARK                            x       y       z     vdW  Elec       q    Type
REMARK                         _______ _______ _______ _____ _____    ______ ____
ROOT
ATOM      4  C   UNL     1      48.457   8.476  14.594  0.00  0.00    +0.000 C 
ENDROOT
BRANCH   4   5
ATOM      5  C   UNL     1      48.910   8.056  15.968  0.00  0.00    +0.000 A 
ATOM      6  C   UNL     1      49.981   7.168  16.113  0.00  0.00    +0.000 A 
ATOM      7  C   UNL     1      50.419   6.783  17.381  0.00  0.00    +0.000 A 
ATOM      8  C   UNL     1      49.789   7.271  18.535  0.00  0.00    +0.000 A 
ATOM     18  C   UNL     1      48.698   8.138  18.389  0.00  0.00    +0.000 A 
ATOM     19  C   UNL     1      48.257   8.520  17.118  0.00  0.00    +0.000 A 
BRANCH   8   9
ATOM      9  C   UNL     1      50.263   6.850  19.909  0.00  0.00    +0.000 C 
BRANCH   9  10
ATOM     10  N   UNL     1      50.358   5.397  20.013  0.00  0.00    +0.000 NA
ATOM     31  H   UNL     1      50.901   5.154  20.841  0.00  0.00    +0.000 HD
BRANCH  10  11
ATOM     11  C   UNL     1      49.038   4.779  20.109  0.00  0.00    +0.000 C 
BRANCH  11  12
ATOM     12  C   UNL     1      48.630   4.165  18.791  0.00  0.00    +0.000 A 
ATOM     13  C   UNL     1      47.471   4.586  18.125  0.00  0.00    +0.000 A 
ATOM     14  C   UNL     1      47.117   4.026  16.896  0.00  0.00    +0.000 A 
ATOM     15  C   UNL     1      47.917   3.042  16.319  0.00  0.00    +0.000 A 
ATOM     16  C   UNL     1      49.069   2.608  16.973  0.00  0.00    +0.000 A 
ATOM     17  C   UNL     1      49.423   3.166  18.201  0.00  0.00    +0.000 A 
ENDBRANCH  11  12
ENDBRANCH  10  11
ENDBRANCH   9  10
ENDBRANCH   8   9
ENDBRANCH   4   5
BRANCH   4   3
ATOM      1  O   UNL     1      48.892   6.285  12.867  0.00  0.00    +0.000 OA
ATOM      2  C   UNL     1      47.760   6.506  13.286  0.00  0.00    +0.000 C 
ATOM      3  N   UNL     1      47.454   7.585  14.074  0.00  0.00    +0.000 N 
ATOM     30  H   UNL     1      46.559   7.609  14.548  0.00  0.00    +0.000 HD
BRANCH   2  20
ATOM     20  C   UNL     1      46.626   5.650  12.914  0.00  0.00    +0.000 A 
ATOM     21  C   UNL     1      46.664   4.290  13.179  0.00  0.00    +0.000 A 
ATOM     22  S   UNL     1      45.266   3.457  12.660  0.00  0.00    +0.000 S 
ATOM     23  C   UNL     1      44.549   4.896  12.100  0.00  0.00    +0.000 A 
ATOM     24  N   UNL     1      43.308   4.893  11.548  0.00  0.00    +0.000 NA
ATOM     25  C   UNL     1      42.874   6.063  11.204  0.00  0.00    +0.000 A 
ATOM     26  N   UNL     1      43.574   7.229  11.354  0.00  0.00    +0.000 N 
ATOM     27  C   UNL     1      44.861   7.270  11.834  0.00  0.00    +0.000 A 
ATOM     28  O   UNL     1      45.504   8.314  11.811  0.00  0.00    +0.000 OA
ATOM     29  C   UNL     1      45.375   5.990  12.281  0.00  0.00    +0.000 A 
ATOM     32  H   UNL     1      43.193   8.106  11.031  0.00  0.00    +0.000 HD
ENDBRANCH   2  20
ENDBRANCH   4   3
TORSDOF 7
ENDMDL
MODEL 9
REMARK VINA RESULT:    -6.806      3.811      9.359
REMARK INTER + INTRA:         -10.731
REMARK INTER:                  -8.990
REMARK INTRA:                  -1.741
REMARK UNBOUND:                -1.140
REMARK  Name = 
REMARK  7 active torsions:
REMARK  status: ('A' for Active; 'I' for Inactive)
REMARK    1  A    between atoms: C_2  and  C_20
REMARK    2  A    between atoms: N_3  and  C_4
REMARK    3  A    between atoms: C_4  and  C_5
REMARK    4  A    between atoms: C_8  and  C_9
REMARK    5  A    between atoms: C_9  and  N_10
REMARK    6  A    between atoms: N_10  and  C_11
REMARK    7  A    between atoms: C_11  and  C_12
REMARK                            x       y       z     vdW  Elec       q    Type
REMARK                         _______ _______ _______ _____ _____    ______ ____
ROOT
ATOM      4  C   UNL     1      47.485   3.763  16.718  0.00  0.00    +0.000 C 
ENDROOT
BRANCH   4   5
ATOM      5  C   UNL     1      47.866   4.469  17.993  0.00  0.00    +0.000 A 
ATOM      6  C   UNL     1      46.976   5.369  18.590  0.00  0.00    +0.000 A 
ATOM      7  C   UNL     1      47.313   6.019  19.778  0.00  0.00    +0.000 A 
ATOM      8  C   UNL     1      48.551   5.789  20.395  0.00  0.00    +0.000 A 
ATOM     18  C   UNL     1      49.453   4.909  19.782  0.00  0.00    +0.000 A 
ATOM     19  C   UNL     1      49.118   4.262  18.588  0.00  0.00    +0.000 A 
BRANCH   8   9
ATOM      9  C   UNL     1      48.914   6.496  21.682  0.00  0.00    +0.000 C 
BRANCH   9  10
ATOM     10  N   UNL     1      48.770   7.943  21.550  0.00  0.00    +0.000 NA
ATOM     31  H   UNL     1      48.771   8.367  22.477  0.00  0.00    +0.000 HD
BRANCH  10  11
ATOM     11  C   UNL     1      49.854   8.520  20.759  0.00  0.00    +0.000 C 
BRANCH  11  12
ATOM     12  C   UNL     1      49.432   8.710  19.321  0.00  0.00    +0.000 A 
ATOM     13  C   UNL     1      50.193   8.183  18.268  0.00  0.00    +0.000 A 
ATOM     14  C   UNL     1      49.780   8.347  16.944  0.00  0.00    +0.000 A 
ATOM     15  C   UNL     1      48.604   9.038  16.658  0.00  0.00    +0.000 A 
ATOM     16  C   UNL     1      47.842   9.574  17.694  0.00  0.00    +0.000 A 
ATOM     17  C   UNL     1      48.253   9.411  19.017  0.00  0.00    +0.000 A 
ENDBRANCH  11  12
ENDBRANCH  10  11
ENDBRANCH   9  10
ENDBRANCH   8   9
ENDBRANCH   4   5
BRANCH   4   3
ATOM      1  O   UNL     1      47.200   3.238  13.959  0.00  0.00    +0.000 OA
ATOM      2  C   UNL     1      46.877   4.337  14.398  0.00  0.00    +0.000 C 
ATOM      3  N   UNL     1      47.045   4.692  15.711  0.00  0.00    +0.000 N 
ATOM     30  H   UNL     1      46.585   5.526  16.057  0.00  0.00    +0.000 HD
BRANCH   2  20
ATOM     20  C   UNL     1      46.338   5.384  13.521  0.00  0.00    +0.000 A 
ATOM     21  C   UNL     1      47.104   6.499  13.216  0.00  0.00    +0.000 A 
ATOM     22  S   UNL     1      46.306   7.614  12.199  0.00  0.00    +0.000 S 
ATOM     23  C   UNL     1      44.925   6.622  12.102  0.00  0.00    +0.000 A 
ATOM     24  N   UNL     1      43.852   6.985  11.353  0.00  0.00    +0.000 NA
ATOM     25  C   UNL     1      42.892   6.117  11.339  0.00  0.00    +0.000 A 
ATOM     26  N   UNL     1      42.908   4.927  12.015  0.00  0.00    +0.000 N 
ATOM     27  C   UNL     1      43.937   4.555  12.846  0.00  0.00    +0.000 A 
ATOM     28  O   UNL     1      43.844   3.553  13.547  0.00  0.00    +0.000 OA
ATOM     29  C   UNL     1      45.061   5.471  12.856  0.00  0.00    +0.000 A 
ATOM     32  H   UNL     1      42.111   4.309  11.993  0.00  0.00    +0.000 HD
ENDBRANCH   2  20
ENDBRANCH   4   3
TORSDOF 7
ENDMDL
