MODEL 1
REMARK VINA RESULT:    -7.911      0.000      0.000
REMARK INTER + INTRA:         -12.429
REMARK INTER:                 -11.148
REMARK INTRA:                  -1.281
REMARK UNBOUND:                -1.281
REMARK  Name = 
REMARK  8 active torsions:
REMARK  status: ('A' for Active; 'I' for Inactive)
REMARK    1  A    between atoms: C_1  and  C_2
REMARK    2  A    between atoms: C_2  and  N_3
REMARK    3  A    between atoms: N_3  and  C_4
REMARK    4  A    between atoms: N_3  and  C_25
REMARK    5  A    between atoms: C_4  and  C_5
REMARK    6  A    between atoms: C_8  and  C_9
REMARK    7  A    between atoms: C_9  and  N_10
REMARK    8  A    between atoms: C_11  and  C_13
REMARK                            x       y       z     vdW  Elec       q    Type
REMARK                         _______ _______ _______ _____ _____    ______ ____
ROOT
ATOM      5  C   UNL     1      44.800   5.629  10.653  0.00  0.00    +0.000 A 
ATOM      6  C   UNL     1      46.181   5.810  10.466  0.00  0.00    +0.000 A 
ATOM      7  C   UNL     1      46.936   6.607  11.354  0.00  0.00    +0.000 A 
ATOM      8  C   UNL     1      46.306   7.302  12.393  0.00  0.00    +0.000 A 
ATOM     23  C   UNL     1      44.922   7.167  12.537  0.00  0.00    +0.000 A 
ATOM     24  C   UNL     1      44.199   6.283  11.736  0.00  0.00    +0.000 A 
ENDROOT
BRANCH   5   4
ATOM      4  C   UNL     1      43.937   4.862   9.656  0.00  0.00    +0.000 C 
BRANCH   4   3
ATOM      3  N   UNL     1      43.956   3.376   9.706  0.00  0.00    +0.000 NA
BRANCH   3  25
ATOM     25  C   UNL     1      44.703   2.792   8.507  0.00  0.00    +0.000 C 
ATOM     26  C   UNL     1      45.616   1.583   8.861  0.00  0.00    +0.000 C 
ATOM     27  C   UNL     1      46.538   1.109   7.732  0.00  0.00    +0.000 C 
ATOM     28  C   UNL     1      47.364   2.252   7.169  0.00  0.00    +0.000 C 
ATOM     29  C   UNL     1      46.437   3.329   6.644  0.00  0.00    +0.000 C 
ATOM     30  C   UNL     1      45.542   3.873   7.755  0.00  0.00    +0.000 C 
ENDBRANCH   3  25
BRANCH   3   2
ATOM      1  C   UNL     1      43.740   2.709  12.241  0.00  0.00    +0.000 C 
ATOM      2  C   UNL     1      44.547   2.827  10.951  0.00  0.00    +0.000 C 
ENDBRANCH   3   2
ENDBRANCH   4   3
ENDBRANCH   5   4
BRANCH   8   9
ATOM      9  C   UNL     1      47.043   8.171  13.387  0.00  0.00    +0.000 C 
BRANCH   9  10
ATOM     10  N   UNL     1      47.477   7.420  14.535  0.00  0.00    +0.000 N 
ATOM     11  C   UNL     1      48.718   6.849  14.601  0.00  0.00    +0.000 C 
ATOM     12  O   UNL     1      49.549   6.942  13.700  0.00  0.00    +0.000 OA
ATOM     31  H   UNL     1      46.739   7.028  15.111  0.00  0.00    +0.000 HD
BRANCH  11  13
ATOM     13  C   UNL     1      49.025   6.182  15.866  0.00  0.00    +0.000 A 
ATOM     14  C   UNL     1      50.051   6.655  16.677  0.00  0.00    +0.000 A 
ATOM     15  S   UNL     1      50.197   5.803  18.149  0.00  0.00    +0.000 S 
ATOM     16  C   UNL     1      48.928   4.748  17.733  0.00  0.00    +0.000 A 
ATOM     17  N   UNL     1      48.538   3.738  18.569  0.00  0.00    +0.000 NA
ATOM     18  C   UNL     1      47.563   3.034  18.128  0.00  0.00    +0.000 A 
ATOM     19  N   UNL     1      46.931   3.212  16.934  0.00  0.00    +0.000 N 
ATOM     20  C   UNL     1      47.291   4.203  16.046  0.00  0.00    +0.000 A 
ATOM     21  O   UNL     1      46.707   4.343  14.973  0.00  0.00    +0.000 OA
ATOM     22  C   UNL     1      48.395   5.055  16.497  0.00  0.00    +0.000 A 
ATOM     32  H   UNL     1      46.177   2.617  16.639  0.00  0.00    +0.000 HD
ENDBRANCH  11  13
ENDBRANCH   9  10
ENDBRANCH   8   9
TORSDOF 7
ENDMDL
MODEL 2
REMARK VINA RESULT:    -7.576      2.497      3.070
REMARK INTER + INTRA:         -11.958
REMARK INTER:                 -10.800
REMARK INTRA:                  -1.158
REMARK UNBOUND:                -1.281
REMARK  Name = 
REMARK  8 active torsions:
REMARK  status: ('A' for Active; 'I' for Inactive)
REMARK    1  A    between atoms: C_1  and  C_2
REMARK    2  A    between atoms: C_2  and  N_3
REMARK    3  A    between atoms: N_3  and  C_4
REMARK    4  A    between atoms: N_3  and  C_25
REMARK    5  A    between atoms: C_4  and  C_5
REMARK    6  A    between atoms: C_8  and  C_9
REMARK    7  A    between atoms: C_9  and  N_10
REMARK    8  A    between atoms: C_11  and  C_13
REMARK                            x       y       z     vdW  Elec       q    Type
REMARK                         _______ _______ _______ _____ _____    ______ ____
ROOT
ATOM      5  C   UNL     1      46.044   4.860  12.871  0.00  0.00    +0.000 A 
ATOM      6  C   UNL     1      46.579   4.270  14.028  0.00  0.00    +0.000 A 
ATOM      7  C   UNL     1      47.463   4.984  14.866  0.00  0.00    +0.000 A 
ATOM      8  C   UNL     1      47.892   6.270  14.513  0.00  0.00    +0.000 A 
ATOM     23  C   UNL     1      47.404   6.828  13.328  0.00  0.00    +0.000 A 
ATOM     24  C   UNL     1      46.437   6.170  12.568  0.00  0.00    +0.000 A 
ENDROOT
BRANCH   5   4
ATOM      4  C   UNL     1      45.172   4.084  11.890  0.00  0.00    +0.000 C 
BRANCH   4   3
ATOM      3  N   UNL     1      44.654   4.797  10.691  0.00  0.00    +0.000 NA
BRANCH   3  25
ATOM     25  C   UNL     1      44.775   3.929   9.438  0.00  0.00    +0.000 C 
ATOM     26  C   UNL     1      45.115   2.440   9.734  0.00  0.00    +0.000 C 
ATOM     27  C   UNL     1      45.453   1.592   8.502  0.00  0.00    +0.000 C 
ATOM     28  C   UNL     1      46.547   2.231   7.666  0.00  0.00    +0.000 C 
ATOM     29  C   UNL     1      46.098   3.608   7.223  0.00  0.00    +0.000 C 
ATOM     30  C   UNL     1      45.811   4.506   8.423  0.00  0.00    +0.000 C 
ENDBRANCH   3  25
BRANCH   3   2
ATOM      1  C   UNL     1      42.563   5.357  12.187  0.00  0.00    +0.000 C 
ATOM      2  C   UNL     1      43.247   5.248  10.826  0.00  0.00    +0.000 C 
ENDBRANCH   3   2
ENDBRANCH   4   3
ENDBRANCH   5   4
BRANCH   8   9
ATOM      9  C   UNL     1      48.832   7.101  15.356  0.00  0.00    +0.000 C 
BRANCH   9  10
ATOM     10  N   UNL     1      49.922   6.316  15.872  0.00  0.00    +0.000 N 
ATOM     11  C   UNL     1      49.940   5.858  17.160  0.00  0.00    +0.000 C 
ATOM     12  O   UNL     1      49.034   6.069  17.962  0.00  0.00    +0.000 OA
ATOM     31  H   UNL     1      50.809   6.423  15.389  0.00  0.00    +0.000 HD
BRANCH  11  13
ATOM     13  C   UNL     1      51.089   5.016  17.500  0.00  0.00    +0.000 A 
ATOM     14  C   UNL     1      52.270   5.593  17.953  0.00  0.00    +0.000 A 
ATOM     15  S   UNL     1      53.460   4.447  18.383  0.00  0.00    +0.000 S 
ATOM     16  C   UNL     1      52.457   3.148  17.933  0.00  0.00    +0.000 A 
ATOM     17  N   UNL     1      52.882   1.852  18.035  0.00  0.00    +0.000 NA
ATOM     18  C   UNL     1      52.015   0.982  17.672  0.00  0.00    +0.000 A 
ATOM     19  N   UNL     1      50.763   1.254  17.205  0.00  0.00    +0.000 N 
ATOM     20  C   UNL     1      50.288   2.541  17.069  0.00  0.00    +0.000 A 
ATOM     21  O   UNL     1      49.156   2.762  16.643  0.00  0.00    +0.000 OA
ATOM     22  C   UNL     1      51.229   3.586  17.479  0.00  0.00    +0.000 A 
ATOM     32  H   UNL     1      50.132   0.526  16.926  0.00  0.00    +0.000 HD
ENDBRANCH  11  13
ENDBRANCH   9  10
ENDBRANCH   8   9
TORSDOF 7
ENDMDL
MODEL 3
REMARK VINA RESULT:    -7.111      2.026      2.727
REMARK INTER + INTRA:         -11.302
REMARK INTER:                 -10.112
REMARK INTRA:                  -1.190
REMARK UNBOUND:                -1.281
REMARK  Name = 
REMARK  8 active torsions:
REMARK  status: ('A' for Active; 'I' for Inactive)
REMARK    1  A    between atoms: C_1  and  C_2
REMARK    2  A    between atoms: C_2  and  N_3
REMARK    3  A    between atoms: N_3  and  C_4
REMARK    4  A    between atoms: N_3  and  C_25
REMARK    5  A    between atoms: C_4  and  C_5
REMARK    6  A    between atoms: C_8  and  C_9
REMARK    7  A    between atoms: C_9  and  N_10
REMARK    8  A    between atoms: C_11  and  C_13
REMARK                            x       y       z     vdW  Elec       q    Type
REMARK                         _______ _______ _______ _____ _____    ______ ____
ROOT
ATOM      5  C   UNL     1      46.443   5.415  12.465  0.00  0.00    +0.000 A 
ATOM      6  C   UNL     1      47.032   6.511  11.812  0.00  0.00    +0.000 A 
ATOM      7  C   UNL     1      48.083   7.237  12.414  0.00  0.00    +0.000 A 
ATOM      8  C   UNL     1      48.503   6.928  13.714  0.00  0.00    +0.000 A 
ATOM     23  C   UNL     1      47.872   5.876  14.382  0.00  0.00    +0.000 A 
ATOM     24  C   UNL     1      46.921   5.084  13.740  0.00  0.00    +0.000 A 
ENDROOT
BRANCH   5   4
ATOM      4  C   UNL     1      45.239   4.676  11.891  0.00  0.00    +0.000 C 
BRANCH   4   3
ATOM      3  N   UNL     1      44.588   5.230  10.673  0.00  0.00    +0.000 NA
BRANCH   3  25
ATOM     25  C   UNL     1      44.629   4.227   9.520  0.00  0.00    +0.000 C 
ATOM     26  C   UNL     1      44.719   2.743   9.979  0.00  0.00    +0.000 C 
ATOM     27  C   UNL     1      44.975   1.728   8.859  0.00  0.00    +0.000 C 
ATOM     28  C   UNL     1      46.193   2.103   8.033  0.00  0.00    +0.000 C 
ATOM     29  C   UNL     1      45.984   3.478   7.430  0.00  0.00    +0.000 C 
ATOM     30  C   UNL     1      45.787   4.530   8.518  0.00  0.00    +0.000 C 
ENDBRANCH   3  25
BRANCH   3   2
ATOM      1  C   UNL     1      42.438   5.347  12.183  0.00  0.00    +0.000 C 
ATOM      2  C   UNL     1      43.183   5.655  10.887  0.00  0.00    +0.000 C 
ENDBRANCH   3   2
ENDBRANCH   4   3
ENDBRANCH   5   4
BRANCH   8   9
ATOM      9  C   UNL     1      49.623   7.653  14.426  0.00  0.00    +0.000 C 
BRANCH   9  10
ATOM     10  N   UNL     1      49.476   7.593  15.856  0.00  0.00    +0.000 N 
ATOM     11  C   UNL     1      50.278   6.805  16.634  0.00  0.00    +0.000 C 
ATOM     12  O   UNL     1      51.179   6.105  16.179  0.00  0.00    +0.000 OA
ATOM     31  H   UNL     1      48.563   7.851  16.216  0.00  0.00    +0.000 HD
BRANCH  11  13
ATOM     13  C   UNL     1      50.041   6.915  18.074  0.00  0.00    +0.000 A 
ATOM     14  C   UNL     1      50.296   8.110  18.737  0.00  0.00    +0.000 A 
ATOM     15  S   UNL     1      49.873   8.071  20.390  0.00  0.00    +0.000 S 
ATOM     16  C   UNL     1      49.381   6.445  20.287  0.00  0.00    +0.000 A 
ATOM     17  N   UNL     1      48.913   5.772  21.381  0.00  0.00    +0.000 NA
ATOM     18  C   UNL     1      48.569   4.560  21.149  0.00  0.00    +0.000 A 
ATOM     19  N   UNL     1      48.647   3.929  19.943  0.00  0.00    +0.000 N 
ATOM     20  C   UNL     1      49.124   4.554  18.810  0.00  0.00    +0.000 A 
ATOM     21  O   UNL     1      49.186   3.964  17.733  0.00  0.00    +0.000 OA
ATOM     22  C   UNL     1      49.524   5.950  19.006  0.00  0.00    +0.000 A 
ATOM     32  H   UNL     1      48.371   2.971  19.827  0.00  0.00    +0.000 HD
ENDBRANCH  11  13
ENDBRANCH   9  10
ENDBRANCH   8   9
TORSDOF 7
ENDMDL
MODEL 4
REMARK VINA RESULT:    -6.847      3.009      7.902
REMARK INTER + INTRA:         -10.930
REMARK INTER:                  -9.664
REMARK INTRA:                  -1.266
REMARK UNBOUND:                -1.281
REMARK  Name = 
REMARK  8 active torsions:
REMARK  status: ('A' for Active; 'I' for Inactive)
REMARK    1  A    between atoms: C_1  and  C_2
REMARK    2  A    between atoms: C_2  and  N_3
REMARK    3  A    between atoms: N_3  and  C_4
REMARK    4  A    between atoms: N_3  and  C_25
REMARK    5  A    between atoms: C_4  and  C_5
REMARK    6  A    between atoms: C_8  and  C_9
REMARK    7  A    between atoms: C_9  and  N_10
REMARK    8  A    between atoms: C_11  and  C_13
REMARK                            x       y       z     vdW  Elec       q    Type
REMARK                         _______ _______ _______ _____ _____    ______ ____
ROOT
ATOM      5  C   UNL     1      50.139   6.984  15.855  0.00  0.00    +0.000 A 
ATOM      6  C   UNL     1      50.922   7.686  14.924  0.00  0.00    +0.000 A 
ATOM      7  C   UNL     1      50.397   8.062  13.668  0.00  0.00    +0.000 A 
ATOM      8  C   UNL     1      49.106   7.666  13.292  0.00  0.00    +0.000 A 
ATOM     23  C   UNL     1      48.354   6.914  14.200  0.00  0.00    +0.000 A 
ATOM     24  C   UNL     1      48.830   6.652  15.484  0.00  0.00    +0.000 A 
ENDROOT
BRANCH   5   4
ATOM      4  C   UNL     1      50.707   6.473  17.174  0.00  0.00    +0.000 C 
BRANCH   4   3
ATOM      3  N   UNL     1      49.754   6.103  18.255  0.00  0.00    +0.000 NA
BRANCH   3  25
ATOM     25  C   UNL     1      49.469   4.601  18.251  0.00  0.00    +0.000 C 
ATOM     26  C   UNL     1      50.543   3.759  17.503  0.00  0.00    +0.000 C 
ATOM     27  C   UNL     1      50.185   2.283  17.295  0.00  0.00    +0.000 C 
ATOM     28  C   UNL     1      48.829   2.125  16.631  0.00  0.00    +0.000 C 
ATOM     29  C   UNL     1      47.770   2.784  17.492  0.00  0.00    +0.000 C 
ATOM     30  C   UNL     1      48.057   4.272  17.672  0.00  0.00    +0.000 C 
ENDBRANCH   3  25
BRANCH   3   2
ATOM      1  C   UNL     1      49.565   5.928  20.873  0.00  0.00    +0.000 C 
ATOM      2  C   UNL     1      50.206   6.500  19.611  0.00  0.00    +0.000 C 
ENDBRANCH   3   2
ENDBRANCH   4   3
ENDBRANCH   5   4
BRANCH   8   9
ATOM      9  C   UNL     1      48.470   8.030  11.970  0.00  0.00    +0.000 C 
BRANCH   9  10
ATOM     10  N   UNL     1      47.690   6.947  11.435  0.00  0.00    +0.000 N 
ATOM     11  C   UNL     1      46.324   6.985  11.400  0.00  0.00    +0.000 C 
ATOM     12  O   UNL     1      45.667   7.939  11.809  0.00  0.00    +0.000 OA
ATOM     31  H   UNL     1      48.144   6.039  11.426  0.00  0.00    +0.000 HD
BRANCH  11  13
ATOM     13  C   UNL     1      45.690   5.832  10.759  0.00  0.00    +0.000 A 
ATOM     14  C   UNL     1      45.875   5.597   9.401  0.00  0.00    +0.000 A 
ATOM     15  S   UNL     1      45.132   4.159   8.857  0.00  0.00    +0.000 S 
ATOM     16  C   UNL     1      44.502   3.829  10.402  0.00  0.00    +0.000 A 
ATOM     17  N   UNL     1      43.731   2.723  10.636  0.00  0.00    +0.000 NA
ATOM     18  C   UNL     1      43.338   2.601  11.849  0.00  0.00    +0.000 A 
ATOM     19  N   UNL     1      43.616   3.464  12.866  0.00  0.00    +0.000 N 
ATOM     20  C   UNL     1      44.375   4.601  12.685  0.00  0.00    +0.000 A 
ATOM     21  O   UNL     1      44.612   5.366  13.618  0.00  0.00    +0.000 OA
ATOM     22  C   UNL     1      44.868   4.795  11.319  0.00  0.00    +0.000 A 
ATOM     32  H   UNL     1      43.269   3.317  13.796  0.00  0.00    +0.000 HD
ENDBRANCH  11  13
ENDBRANCH   9  10
ENDBRANCH   8   9
TORSDOF 7
ENDMDL
MODEL 5
REMARK VINA RESULT:    -6.739      1.647      2.194
REMARK INTER + INTRA:         -10.778
REMARK INTER:                  -9.382
REMARK INTRA:                  -1.396
REMARK UNBOUND:                -1.281
REMARK  Name = 
REMARK  8 active torsions:
REMARK  status: ('A' for Active; 'I' for Inactive)
REMARK    1  A    between atoms: C_1  and  C_2
REMARK    2  A    between atoms: C_2  and  N_3
REMARK    3  A    between atoms: N_3  and  C_4
REMARK    4  A    between atoms: N_3  and  C_25
REMARK    5  A    between atoms: C_4  and  C_5
REMARK    6  A    between atoms: C_8  and  C_9
REMARK    7  A    between atoms: C_9  and  N_10
REMARK    8  A    between atoms: C_11  and  C_13
REMARK                            x       y       z     vdW  Elec       q    Type
REMARK                         _______ _______ _______ _____ _____    ______ ____
ROOT
ATOM      5  C   UNL     1      45.753   6.934  11.776  0.00  0.00    +0.000 A 
ATOM      6  C   UNL     1      47.084   6.554  11.534  0.00  0.00    +0.000 A 
ATOM      7  C   UNL     1      48.141   7.070  12.316  0.00  0.00    +0.000 A 
ATOM      8  C   UNL     1      47.890   8.037  13.297  0.00  0.00    +0.000 A 
ATOM     23  C   UNL     1      46.571   8.456  13.492  0.00  0.00    +0.000 A 
ATOM     24  C   UNL     1      45.517   7.856  12.804  0.00  0.00    +0.000 A 
ENDROOT
BRANCH   5   4
ATOM      4  C   UNL     1      44.602   6.479  10.886  0.00  0.00    +0.000 C 
BRANCH   4   3
ATOM      3  N   UNL     1      44.221   5.041  10.908  0.00  0.00    +0.000 NA
BRANCH   3  25
ATOM     25  C   UNL     1      45.186   4.201  10.072  0.00  0.00    +0.000 C 
ATOM     26  C   UNL     1      45.604   4.869   8.730  0.00  0.00    +0.000 C 
ATOM     27  C   UNL     1      46.397   3.971   7.774  0.00  0.00    +0.000 C 
ATOM     28  C   UNL     1      45.678   2.659   7.514  0.00  0.00    +0.000 C 
ATOM     29  C   UNL     1      45.467   1.935   8.828  0.00  0.00    +0.000 C 
ATOM     30  C   UNL     1      44.626   2.772   9.788  0.00  0.00    +0.000 C 
ENDBRANCH   3  25
BRANCH   3   2
ATOM      1  C   UNL     1      43.015   4.826  13.235  0.00  0.00    +0.000 C 
ATOM      2  C   UNL     1      44.143   4.465  12.273  0.00  0.00    +0.000 C 
ENDBRANCH   3   2
ENDBRANCH   4   3
ENDBRANCH   5   4
BRANCH   8   9
ATOM      9  C   UNL     1      48.964   8.634  14.178  0.00  0.00    +0.000 C 
BRANCH   9  10
ATOM     10  N   UNL     1      49.154   7.871  15.382  0.00  0.00    +0.000 N 
ATOM     11  C   UNL     1      48.605   8.251  16.576  0.00  0.00    +0.000 C 
ATOM     12  O   UNL     1      47.909   9.255  16.707  0.00  0.00    +0.000 OA
ATOM     31  H   UNL     1      49.974   7.274  15.402  0.00  0.00    +0.000 HD
BRANCH  11  13
ATOM     13  C   UNL     1      48.836   7.324  17.685  0.00  0.00    +0.000 A 
ATOM     14  C   UNL     1      49.256   7.802  18.921  0.00  0.00    +0.000 A 
ATOM     15  S   UNL     1      49.384   6.583  20.109  0.00  0.00    +0.000 S 
ATOM     16  C   UNL     1      48.930   5.374  19.003  0.00  0.00    +0.000 A 
ATOM     17  N   UNL     1      48.854   4.060  19.375  0.00  0.00    +0.000 NA
ATOM     18  C   UNL     1      48.488   3.266  18.439  0.00  0.00    +0.000 A 
ATOM     19  N   UNL     1      48.194   3.629  17.159  0.00  0.00    +0.000 N 
ATOM     20  C   UNL     1      48.267   4.935  16.724  0.00  0.00    +0.000 A 
ATOM     21  O   UNL     1      48.000   5.238  15.563  0.00  0.00    +0.000 OA
ATOM     22  C   UNL     1      48.670   5.899  17.752  0.00  0.00    +0.000 A 
ATOM     32  H   UNL     1      47.922   2.955  16.466  0.00  0.00    +0.000 HD
ENDBRANCH  11  13
ENDBRANCH   9  10
ENDBRANCH   8   9
TORSDOF 7
ENDMDL
MODEL 6
REMARK VINA RESULT:    -6.602      4.275      9.928
REMARK INTER + INTRA:         -10.585
REMARK INTER:                  -9.236
REMARK INTRA:                  -1.349
REMARK UNBOUND:                -1.281
REMARK  Name = 
REMARK  8 active torsions:
REMARK  status: ('A' for Active; 'I' for Inactive)
REMARK    1  A    between atoms: C_1  and  C_2
REMARK    2  A    between atoms: C_2  and  N_3
REMARK    3  A    between atoms: N_3  and  C_4
REMARK    4  A    between atoms: N_3  and  C_25
REMARK    5  A    between atoms: C_4  and  C_5
REMARK    6  A    between atoms: C_8  and  C_9
REMARK    7  A    between atoms: C_9  and  N_10
REMARK    8  A    between atoms: C_11  and  C_13
REMARK                            x       y       z     vdW  Elec       q    Type
REMARK                         _______ _______ _______ _____ _____    ______ ____
ROOT
ATOM      5  C   UNL     1      48.192   6.972  19.421  0.00  0.00    +0.000 A 
ATOM      6  C   UNL     1      49.191   6.905  18.435  0.00  0.00    +0.000 A 
ATOM      7  C   UNL     1      49.074   6.019  17.341  0.00  0.00    +0.000 A 
ATOM      8  C   UNL     1      47.996   5.128  17.263  0.00  0.00    +0.000 A 
ATOM     23  C   UNL     1      47.037   5.158  18.280  0.00  0.00    +0.000 A 
ATOM     24  C   UNL     1      47.091   6.116  19.291  0.00  0.00    +0.000 A 
ENDROOT
BRANCH   5   4
ATOM      4  C   UNL     1      48.337   7.840  20.667  0.00  0.00    +0.000 C 
BRANCH   4   3
ATOM      3  N   UNL     1      48.794   9.245  20.497  0.00  0.00    +0.000 NA
BRANCH   3  25
ATOM     25  C   UNL     1      47.708  10.234  20.919  0.00  0.00    +0.000 C 
ATOM     26  C   UNL     1      46.619   9.618  21.843  0.00  0.00    +0.000 C 
ATOM     27  C   UNL     1      45.407  10.516  22.112  0.00  0.00    +0.000 C 
ATOM     28  C   UNL     1      44.785  11.018  20.821  0.00  0.00    +0.000 C 
ATOM     29  C   UNL     1      45.823  11.792  20.034  0.00  0.00    +0.000 C 
ATOM     30  C   UNL     1      47.023  10.912  19.691  0.00  0.00    +0.000 C 
ENDBRANCH   3  25
BRANCH   3   2
ATOM      1  C   UNL     1      51.418   9.398  20.599  0.00  0.00    +0.000 C 
ATOM      2  C   UNL     1      50.042   9.560  21.237  0.00  0.00    +0.000 C 
ENDBRANCH   3   2
ENDBRANCH   4   3
ENDBRANCH   5   4
BRANCH   8   9
ATOM      9  C   UNL     1      47.796   4.153  16.125  0.00  0.00    +0.000 C 
BRANCH   9  10
ATOM     10  N   UNL     1      46.877   4.660  15.142  0.00  0.00    +0.000 N 
ATOM     11  C   UNL     1      47.289   5.448  14.102  0.00  0.00    +0.000 C 
ATOM     12  O   UNL     1      48.461   5.770  13.926  0.00  0.00    +0.000 OA
ATOM     31  H   UNL     1      45.907   4.723  15.435  0.00  0.00    +0.000 HD
BRANCH  11  13
ATOM     13  C   UNL     1      46.237   5.819  13.154  0.00  0.00    +0.000 A 
ATOM     14  C   UNL     1      45.967   7.158  12.896  0.00  0.00    +0.000 A 
ATOM     15  S   UNL     1      44.772   7.388  11.699  0.00  0.00    +0.000 S 
ATOM     16  C   UNL     1      44.544   5.712  11.520  0.00  0.00    +0.000 A 
ATOM     17  N   UNL     1      43.625   5.208  10.640  0.00  0.00    +0.000 NA
ATOM     18  C   UNL     1      43.574   3.928  10.606  0.00  0.00    +0.000 A 
ATOM     19  N   UNL     1      44.331   3.082  11.359  0.00  0.00    +0.000 N 
ATOM     20  C   UNL     1      45.262   3.534  12.270  0.00  0.00    +0.000 A 
ATOM     21  O   UNL     1      45.932   2.750  12.940  0.00  0.00    +0.000 OA
ATOM     22  C   UNL     1      45.379   4.992  12.351  0.00  0.00    +0.000 A 
ATOM     32  H   UNL     1      44.236   2.085  11.293  0.00  0.00    +0.000 HD
ENDBRANCH  11  13
ENDBRANCH   9  10
ENDBRANCH   8   9
TORSDOF 7
ENDMDL
MODEL 7
REMARK VINA RESULT:    -6.508      3.269      8.006
REMARK INTER + INTRA:         -10.453
REMARK INTER:                  -8.648
REMARK INTRA:                  -1.805
REMARK UNBOUND:                -1.281
REMARK  Name = 
REMARK  8 active torsions:
REMARK  status: ('A' for Active; 'I' for Inactive)
REMARK    1  A    between atoms: C_1  and  C_2
REMARK    2  A    between atoms: C_2  and  N_3
REMARK    3  A    between atoms: N_3  and  C_4
REMARK    4  A    between atoms: N_3  and  C_25
REMARK    5  A    between atoms: C_4  and  C_5
REMARK    6  A    between atoms: C_8  and  C_9
REMARK    7  A    between atoms: C_9  and  N_10
REMARK    8  A    between atoms: C_11  and  C_13
REMARK                            x       y       z     vdW  Elec       q    Type
REMARK                         _______ _______ _______ _____ _____    ______ ____
ROOT
ATOM      5  C   UNL     1      50.117   6.939  17.717  0.00  0.00    +0.000 A 
ATOM      6  C   UNL     1      50.378   6.604  16.378  0.00  0.00    +0.000 A 
ATOM      7  C   UNL     1      49.727   7.277  15.320  0.00  0.00    +0.000 A 
ATOM      8  C   UNL     1      48.744   8.238  15.590  0.00  0.00    +0.000 A 
ATOM     23  C   UNL     1      48.446   8.523  16.925  0.00  0.00    +0.000 A 
ATOM     24  C   UNL     1      49.176   7.947  17.964  0.00  0.00    +0.000 A 
ENDROOT
BRANCH   5   4
ATOM      4  C   UNL     1      50.722   6.163  18.883  0.00  0.00    +0.000 C 
BRANCH   4   3
ATOM      3  N   UNL     1      49.804   5.410  19.779  0.00  0.00    +0.000 NA
BRANCH   3  25
ATOM     25  C   UNL     1      49.232   4.179  19.074  0.00  0.00    +0.000 C 
ATOM     26  C   UNL     1      50.212   3.522  18.060  0.00  0.00    +0.000 C 
ATOM     27  C   UNL     1      49.602   2.421  17.185  0.00  0.00    +0.000 C 
ATOM     28  C   UNL     1      48.347   2.900  16.477  0.00  0.00    +0.000 C 
ATOM     29  C   UNL     1      47.330   3.345  17.509  0.00  0.00    +0.000 C 
ATOM     30  C   UNL     1      47.877   4.487  18.363  0.00  0.00    +0.000 C 
ENDBRANCH   3  25
BRANCH   3   2
ATOM      1  C   UNL     1      51.940   4.793  21.184  0.00  0.00    +0.000 C 
ATOM      2  C   UNL     1      50.432   4.983  21.054  0.00  0.00    +0.000 C 
ENDBRANCH   3   2
ENDBRANCH   4   3
ENDBRANCH   5   4
BRANCH   8   9
ATOM      9  C   UNL     1      48.007   9.005  14.516  0.00  0.00    +0.000 C 
BRANCH   9  10
ATOM     10  N   UNL     1      46.926   8.237  13.957  0.00  0.00    +0.000 N 
ATOM     11  C   UNL     1      46.865   7.933  12.625  0.00  0.00    +0.000 C 
ATOM     12  O   UNL     1      47.723   8.279  11.817  0.00  0.00    +0.000 OA
ATOM     31  H   UNL     1      46.060   8.245  14.486  0.00  0.00    +0.000 HD
BRANCH  11  13
ATOM     13  C   UNL     1      45.738   7.086  12.236  0.00  0.00    +0.000 A 
ATOM     14  C   UNL     1      44.660   7.628  11.545  0.00  0.00    +0.000 A 
ATOM     15  S   UNL     1      43.488   6.468  11.102  0.00  0.00    +0.000 S 
ATOM     16  C   UNL     1      44.357   5.215  11.857  0.00  0.00    +0.000 A 
ATOM     17  N   UNL     1      43.890   3.929  11.866  0.00  0.00    +0.000 NA
ATOM     18  C   UNL     1      44.656   3.093  12.461  0.00  0.00    +0.000 A 
ATOM     19  N   UNL     1      45.841   3.391  13.064  0.00  0.00    +0.000 N 
ATOM     20  C   UNL     1      46.353   4.671  13.099  0.00  0.00    +0.000 A 
ATOM     21  O   UNL     1      47.424   4.916  13.651  0.00  0.00    +0.000 OA
ATOM     22  C   UNL     1      45.529   5.676  12.423  0.00  0.00    +0.000 A 
ATOM     32  H   UNL     1      46.393   2.690  13.525  0.00  0.00    +0.000 HD
ENDBRANCH  11  13
ENDBRANCH   9  10
ENDBRANCH   8   9
TORSDOF 7
ENDMDL
MODEL 8
REMARK VINA RESULT:    -6.363      4.731      7.683
REMARK INTER + INTRA:         -10.248
REMARK INTER:                  -9.041
REMARK INTRA:                  -1.207
REMARK UNBOUND:                -1.281
REMARK  Name = 
REMARK  8 active torsions:
REMARK  status: ('A' for Active; 'I' for Inactive)
REMARK    1  A    between atoms: C_1  and  C_2
REMARK    2  A    between atoms: C_2  and  N_3
REMARK    3  A    between atoms: N_3  and  C_4
REMARK    4  A    between atoms: N_3  and  C_25
REMARK    5  A    between atoms: C_4  and  C_5
REMARK    6  A    between atoms: C_8  and  C_9
REMARK    7  A    between atoms: C_9  and  N_10
REMARK    8  A    between atoms: C_11  and  C_13
REMARK                            x       y       z     vdW  Elec       q    Type
REMARK                         _______ _______ _______ _____ _____    ______ ____
ROOT
ATOM      5  C   UNL     1      50.424   8.776  11.340  0.00  0.00    +0.000 A 
ATOM      6  C   UNL     1      49.686   9.908  11.727  0.00  0.00    +0.000 A 
ATOM      7  C   UNL     1      48.384   9.780  12.259  0.00  0.00    +0.000 A 
ATOM      8  C   UNL     1      47.769   8.523  12.333  0.00  0.00    +0.000 A 
ATOM     23  C   UNL     1      48.486   7.408  11.890  0.00  0.00    +0.000 A 
ATOM     24  C   UNL     1      49.814   7.523  11.480  0.00  0.00    +0.000 A 
ENDROOT
BRANCH   5   4
ATOM      4  C   UNL     1      51.787   8.886  10.666  0.00  0.00    +0.000 C 
BRANCH   4   3
ATOM      3  N   UNL     1      52.821   7.869  10.999  0.00  0.00    +0.000 NA
BRANCH   3  25
ATOM     25  C   UNL     1      53.488   7.326   9.736  0.00  0.00    +0.000 C 
ATOM     26  C   UNL     1      52.865   7.860   8.414  0.00  0.00    +0.000 C 
ATOM     27  C   UNL     1      53.365   7.179   7.135  0.00  0.00    +0.000 C 
ATOM     28  C   UNL     1      53.226   5.669   7.216  0.00  0.00    +0.000 C 
ATOM     29  C   UNL     1      54.016   5.157   8.402  0.00  0.00    +0.000 C 
ATOM     30  C   UNL     1      53.507   5.765   9.706  0.00  0.00    +0.000 C 
ENDBRANCH   3  25
BRANCH   3   2
ATOM      1  C   UNL     1      54.793   7.416  12.679  0.00  0.00    +0.000 C 
ATOM      2  C   UNL     1      53.873   8.367  11.920  0.00  0.00    +0.000 C 
ENDBRANCH   3   2
ENDBRANCH   4   3
ENDBRANCH   5   4
BRANCH   8   9
ATOM      9  C   UNL     1      46.382   8.301  12.893  0.00  0.00    +0.000 C 
BRANCH   9  10
ATOM     10  N   UNL     1      45.908   6.968  12.636  0.00  0.00    +0.000 N 
ATOM     11  C   UNL     1      44.853   6.722  11.801  0.00  0.00    +0.000 C 
ATOM     12  O   UNL     1      44.244   7.609  11.208  0.00  0.00    +0.000 OA
ATOM     31  H   UNL     1      46.128   6.277  13.346  0.00  0.00    +0.000 HD
BRANCH  11  13
ATOM     13  C   UNL     1      44.546   5.306  11.594  0.00  0.00    +0.000 A 
ATOM     14  C   UNL     1      43.866   4.587  12.570  0.00  0.00    +0.000 A 
ATOM     15  S   UNL     1      43.522   2.980  12.109  0.00  0.00    +0.000 S 
ATOM     16  C   UNL     1      44.310   3.177  10.615  0.00  0.00    +0.000 A 
ATOM     17  N   UNL     1      44.400   2.149   9.716  0.00  0.00    +0.000 NA
ATOM     18  C   UNL     1      45.011   2.449   8.630  0.00  0.00    +0.000 A 
ATOM     19  N   UNL     1      45.557   3.662   8.335  0.00  0.00    +0.000 N 
ATOM     20  C   UNL     1      45.509   4.728   9.208  0.00  0.00    +0.000 A 
ATOM     21  O   UNL     1      46.011   5.813   8.920  0.00  0.00    +0.000 OA
ATOM     22  C   UNL     1      44.812   4.455  10.468  0.00  0.00    +0.000 A 
ATOM     32  H   UNL     1      46.034   3.832   7.468  0.00  0.00    +0.000 HD
ENDBRANCH  11  13
ENDBRANCH   9  10
ENDBRANCH   8   9
TORSDOF 7
ENDMDL
MODEL 9
REMARK VINA RESULT:    -6.303      2.927      8.467
REMARK INTER + INTRA:         -10.163
REMARK INTER:                  -8.782
REMARK INTRA:                  -1.381
REMARK UNBOUND:                -1.281
REMARK  Name = 
REMARK  8 active torsions:
REMARK  status: ('A' for Active; 'I' for Inactive)
REMARK    1  A    between atoms: C_1  and  C_2
REMARK    2  A    between atoms: C_2  and  N_3
REMARK    3  A    between atoms: N_3  and  C_4
REMARK    4  A    between atoms: N_3  and  C_25
REMARK    5  A    between atoms: C_4  and  C_5
REMARK    6  A    between atoms: C_8  and  C_9
REMARK    7  A    between atoms: C_9  and  N_10
REMARK    8  A    between atoms: C_11  and  C_13
REMARK                            x       y       z     vdW  Elec       q    Type
REMARK                         _______ _______ _______ _____ _____    ______ ____
ROOT
ATOM      5  C   UNL     1      49.562   8.394  15.753  0.00  0.00    +0.000 A 
ATOM      6  C   UNL     1      48.313   8.964  15.452  0.00  0.00    +0.000 A 
ATOM      7  C   UNL     1      47.719   8.786  14.183  0.00  0.00    +0.000 A 
ATOM      8  C   UNL     1      48.405   8.105  13.169  0.00  0.00    +0.000 A 
ATOM     23  C   UNL     1      49.674   7.593  13.456  0.00  0.00    +0.000 A 
ATOM     24  C   UNL     1      50.203   7.664  14.745  0.00  0.00    +0.000 A 
ENDROOT
BRANCH   5   4
ATOM      4  C   UNL     1      50.277   8.654  17.074  0.00  0.00    +0.000 C 
BRANCH   4   3
ATOM      3  N   UNL     1      50.093   7.676  18.179  0.00  0.00    +0.000 NA
BRANCH   3  25
ATOM     25  C   UNL     1      49.361   6.425  17.693  0.00  0.00    +0.000 C 
ATOM     26  C   UNL     1      48.020   6.152  18.433  0.00  0.00    +0.000 C 
ATOM     27  C   UNL     1      47.367   4.800  18.123  0.00  0.00    +0.000 C 
ATOM     28  C   UNL     1      48.336   3.650  18.337  0.00  0.00    +0.000 C 
ATOM     29  C   UNL     1      49.546   3.843  17.446  0.00  0.00    +0.000 C 
ATOM     30  C   UNL     1      50.262   5.152  17.767  0.00  0.00    +0.000 C 
ENDBRANCH   3  25
BRANCH   3   2
ATOM      1  C   UNL     1      51.571   7.397  20.337  0.00  0.00    +0.000 C 
ATOM      2  C   UNL     1      51.361   7.266  18.831  0.00  0.00    +0.000 C 
ENDBRANCH   3   2
ENDBRANCH   4   3
ENDBRANCH   5   4
BRANCH   8   9
ATOM      9  C   UNL     1      47.838   7.868  11.788  0.00  0.00    +0.000 C 
BRANCH   9  10
ATOM     10  N   UNL     1      47.063   6.658  11.728  0.00  0.00    +0.000 N 
ATOM     11  C   UNL     1      45.695   6.671  11.740  0.00  0.00    +0.000 C 
ATOM     12  O   UNL     1      45.033   7.705  11.792  0.00  0.00    +0.000 OA
ATOM     31  H   UNL     1      47.536   5.815  12.039  0.00  0.00    +0.000 HD
BRANCH  11  13
ATOM     13  C   UNL     1      45.064   5.358  11.602  0.00  0.00    +0.000 A 
ATOM     14  C   UNL     1      44.369   4.799  12.668  0.00  0.00    +0.000 A 
ATOM     15  S   UNL     1      43.629   3.309  12.287  0.00  0.00    +0.000 S 
ATOM     16  C   UNL     1      44.250   3.339  10.703  0.00  0.00    +0.000 A 
ATOM     17  N   UNL     1      44.001   2.323   9.821  0.00  0.00    +0.000 NA
ATOM     18  C   UNL     1      44.523   2.488   8.663  0.00  0.00    +0.000 A 
ATOM     19  N   UNL     1      45.280   3.554   8.278  0.00  0.00    +0.000 N 
ATOM     20  C   UNL     1      45.574   4.599   9.129  0.00  0.00    +0.000 A 
ATOM     21  O   UNL     1      46.262   5.550   8.759  0.00  0.00    +0.000 OA
ATOM     22  C   UNL     1      44.996   4.477  10.469  0.00  0.00    +0.000 A 
ATOM     32  H   UNL     1      45.672   3.621   7.356  0.00  0.00    +0.000 HD
ENDBRANCH  11  13
ENDBRANCH   9  10
ENDBRANCH   8   9
TORSDOF 7
ENDMDL
