MODEL 1
REMARK VINA RESULT:    -7.378      0.000      0.000
REMARK INTER + INTRA:         -17.062
REMARK INTER:                 -14.280
REMARK INTRA:                  -2.782
REMARK UNBOUND:                -2.782
REMARK  Name = 
REMARK  17 active torsions:
REMARK  status: ('A' for Active; 'I' for Inactive)
REMARK    1  A    between atoms: C_1  and  C_2
REMARK    2  A    between atoms: C_2  and  C_3
REMARK    3  A    between atoms: C_3  and  C_4
REMARK    4  A    between atoms: C_4  and  C_5
REMARK    5  A    between atoms: C_5  and  C_6
REMARK    6  A    between atoms: C_6  and  C_7
REMARK    7  A    between atoms: C_7  and  C_8
REMARK    8  A    between atoms: C_8  and  N_9
REMARK    9  A    between atoms: N_9  and  C_10
REMARK   10  A    between atoms: C_10  and  C_11
REMARK   11  A    between atoms: C_14  and  C_15
REMARK   12  A    between atoms: C_15  and  N_16
REMARK   13  A    between atoms: C_17  and  C_19
REMARK   14  A    between atoms: C_26  and  O_27
REMARK   15  A    between atoms: O_27  and  C_28
REMARK   16  A    between atoms: C_28  and  C_29
REMARK   17  A    between atoms: C_32  and  N_33
REMARK                            x       y       z     vdW  Elec       q    Type
REMARK                         _______ _______ _______ _____ _____    ______ ____
ROOT
ATOM     16  N   UNL     1      48.444   7.963  16.217  0.00  0.00    +0.000 N 
ATOM     17  C   UNL     1      49.237   8.961  16.713  0.00  0.00    +0.000 C 
ATOM     18  O   UNL     1      50.416   9.092  16.406  0.00  0.00    +0.000 OA
ATOM     42  H   UNL     1      47.561   7.790  16.674  0.00  0.00    +0.000 HD
ENDROOT
BRANCH  17  19
ATOM     19  C   UNL     1      48.546   9.916  17.586  0.00  0.00    +0.000 A 
ATOM     20  C   UNL     1      48.422  11.243  17.201  0.00  0.00    +0.000 A 
ATOM     21  S   UNL     1      47.509  12.178  18.296  0.00  0.00    +0.000 S 
ATOM     22  C   UNL     1      47.301  10.849  19.337  0.00  0.00    +0.000 A 
ATOM     23  N   UNL     1      46.596  10.987  20.474  0.00  0.00    +0.000 NA
ATOM     24  C   UNL     1      46.529   9.856  21.178  0.00  0.00    +0.000 A 
ATOM     25  N   UNL     1      47.083   8.673  20.877  0.00  0.00    +0.000 NA
ATOM     26  C   UNL     1      47.790   8.593  19.737  0.00  0.00    +0.000 A 
ATOM     38  C   UNL     1      47.911   9.693  18.876  0.00  0.00    +0.000 A 
BRANCH  26  27
ATOM     27  O   UNL     1      48.303   7.368  19.366  0.00  0.00    +0.000 OA
BRANCH  27  28
ATOM     28  C   UNL     1      47.339   6.336  19.171  0.00  0.00    +0.000 C 
BRANCH  28  29
ATOM     29  C   UNL     1      47.939   5.169  18.421  0.00  0.00    +0.000 A 
ATOM     30  C   UNL     1      47.110   4.325  17.673  0.00  0.00    +0.000 A 
ATOM     31  C   UNL     1      47.646   3.260  16.946  0.00  0.00    +0.000 A 
ATOM     32  C   UNL     1      49.026   3.013  16.940  0.00  0.00    +0.000 A 
ATOM     36  C   UNL     1      49.844   3.833  17.727  0.00  0.00    +0.000 A 
ATOM     37  C   UNL     1      49.311   4.898  18.465  0.00  0.00    +0.000 A 
BRANCH  32  33
ATOM     33  N   UNL     1      49.629   1.958  16.232  0.00  0.00    +0.000 NA
ATOM     34  N   UNL     1      50.607   1.434  16.802  0.00  0.00    +0.000 NA
ATOM     35  N   UNL     1      51.507   0.955  17.310  0.00  0.00    +0.000 NA
ENDBRANCH  32  33
ENDBRANCH  28  29
ENDBRANCH  27  28
ENDBRANCH  26  27
ENDBRANCH  17  19
BRANCH  16  15
ATOM     15  C   UNL     1      48.910   6.920  15.348  0.00  0.00    +0.000 C 
BRANCH  15  14
ATOM     11  C   UNL     1      46.452   6.184  11.850  0.00  0.00    +0.000 A 
ATOM     12  C   UNL     1      47.093   7.421  11.997  0.00  0.00    +0.000 A 
ATOM     13  C   UNL     1      47.881   7.683  13.118  0.00  0.00    +0.000 A 
ATOM     14  C   UNL     1      48.028   6.726  14.135  0.00  0.00    +0.000 A 
ATOM     39  C   UNL     1      47.347   5.508  14.003  0.00  0.00    +0.000 A 
ATOM     40  C   UNL     1      46.576   5.237  12.871  0.00  0.00    +0.000 A 
BRANCH  11  10
ATOM     10  C   UNL     1      45.672   5.871  10.600  0.00  0.00    +0.000 C 
BRANCH  10   9
ATOM      9  N   UNL     1      44.266   5.642  10.920  0.00  0.00    +0.000 NA
ATOM     41  H   UNL     1      44.165   5.482  11.920  0.00  0.00    +0.000 HD
BRANCH   9   8
ATOM      8  C   UNL     1      43.738   4.500  10.189  0.00  0.00    +0.000 C 
BRANCH   8   7
ATOM      7  C   UNL     1      44.698   3.328  10.360  0.00  0.00    +0.000 C 
BRANCH   7   6
ATOM      6  C   UNL     1      44.801   2.541   9.061  0.00  0.00    +0.000 C 
BRANCH   6   5
ATOM      5  C   UNL     1      44.869   3.480   7.864  0.00  0.00    +0.000 C 
BRANCH   5   4
ATOM      4  C   UNL     1      46.314   3.865   7.574  0.00  0.00    +0.000 C 
BRANCH   4   3
ATOM      3  C   UNL     1      46.811   3.176   6.308  0.00  0.00    +0.000 C 
BRANCH   3   2
ATOM      1  C   UNL     1      47.385   0.861   5.536  0.00  0.00    +0.000 C 
ATOM      2  C   UNL     1      47.548   1.883   6.646  0.00  0.00    +0.000 C 
ENDBRANCH   3   2
ENDBRANCH   4   3
ENDBRANCH   5   4
ENDBRANCH   6   5
ENDBRANCH   7   6
ENDBRANCH   8   7
ENDBRANCH   9   8
ENDBRANCH  10   9
ENDBRANCH  11  10
ENDBRANCH  15  14
ENDBRANCH  16  15
TORSDOF 16
ENDMDL
MODEL 2
REMARK VINA RESULT:    -7.027      1.371      1.522
REMARK INTER + INTRA:         -16.382
REMARK INTER:                 -13.379
REMARK INTRA:                  -3.004
REMARK UNBOUND:                -2.782
REMARK  Name = 
REMARK  17 active torsions:
REMARK  status: ('A' for Active; 'I' for Inactive)
REMARK    1  A    between atoms: C_1  and  C_2
REMARK    2  A    between atoms: C_2  and  C_3
REMARK    3  A    between atoms: C_3  and  C_4
REMARK    4  A    between atoms: C_4  and  C_5
REMARK    5  A    between atoms: C_5  and  C_6
REMARK    6  A    between atoms: C_6  and  C_7
REMARK    7  A    between atoms: C_7  and  C_8
REMARK    8  A    between atoms: C_8  and  N_9
REMARK    9  A    between atoms: N_9  and  C_10
REMARK   10  A    between atoms: C_10  and  C_11
REMARK   11  A    between atoms: C_14  and  C_15
REMARK   12  A    between atoms: C_15  and  N_16
REMARK   13  A    between atoms: C_17  and  C_19
REMARK   14  A    between atoms: C_26  and  O_27
REMARK   15  A    between atoms: O_27  and  C_28
REMARK   16  A    between atoms: C_28  and  C_29
REMARK   17  A    between atoms: C_32  and  N_33
REMARK                            x       y       z     vdW  Elec       q    Type
REMARK                         _______ _______ _______ _____ _____    ______ ____
ROOT
ATOM     16  N   UNL     1      49.358   8.034  15.335  0.00  0.00    +0.000 N 
ATOM     17  C   UNL     1      50.391   8.172  16.221  0.00  0.00    +0.000 C 
ATOM     18  O   UNL     1      51.410   7.494  16.169  0.00  0.00    +0.000 OA
ATOM     42  H   UNL     1      48.476   8.466  15.567  0.00  0.00    +0.000 HD
ENDROOT
BRANCH  17  19
ATOM     19  C   UNL     1      50.220   9.252  17.199  0.00  0.00    +0.000 A 
ATOM     20  C   UNL     1      51.151  10.279  17.267  0.00  0.00    +0.000 A 
ATOM     21  S   UNL     1      50.735  11.488  18.395  0.00  0.00    +0.000 S 
ATOM     22  C   UNL     1      49.331  10.647  18.858  0.00  0.00    +0.000 A 
ATOM     23  N   UNL     1      48.518  11.157  19.800  0.00  0.00    +0.000 NA
ATOM     24  C   UNL     1      47.466  10.376  20.050  0.00  0.00    +0.000 A 
ATOM     25  N   UNL     1      47.177   9.192  19.492  0.00  0.00    +0.000 NA
ATOM     26  C   UNL     1      48.031   8.719  18.568  0.00  0.00    +0.000 A 
ATOM     38  C   UNL     1      49.159   9.453  18.174  0.00  0.00    +0.000 A 
BRANCH  26  27
ATOM     27  O   UNL     1      47.715   7.543  17.922  0.00  0.00    +0.000 OA
BRANCH  27  28
ATOM     28  C   UNL     1      47.521   6.413  18.769  0.00  0.00    +0.000 C 
BRANCH  28  29
ATOM     29  C   UNL     1      48.113   5.166  18.156  0.00  0.00    +0.000 A 
ATOM     30  C   UNL     1      47.273   4.115  17.770  0.00  0.00    +0.000 A 
ATOM     31  C   UNL     1      47.796   2.967  17.171  0.00  0.00    +0.000 A 
ATOM     32  C   UNL     1      49.171   2.840  16.934  0.00  0.00    +0.000 A 
ATOM     36  C   UNL     1      50.011   3.875  17.363  0.00  0.00    +0.000 A 
ATOM     37  C   UNL     1      49.494   5.025  17.972  0.00  0.00    +0.000 A 
BRANCH  32  33
ATOM     33  N   UNL     1      49.761   1.710  16.338  0.00  0.00    +0.000 NA
ATOM     34  N   UNL     1      50.781   1.284  16.916  0.00  0.00    +0.000 NA
ATOM     35  N   UNL     1      51.719   0.893  17.430  0.00  0.00    +0.000 NA
ENDBRANCH  32  33
ENDBRANCH  28  29
ENDBRANCH  27  28
ENDBRANCH  26  27
ENDBRANCH  17  19
BRANCH  16  15
ATOM     15  C   UNL     1      49.314   7.044  14.298  0.00  0.00    +0.000 C 
BRANCH  15  14
ATOM     11  C   UNL     1      45.340   5.679  13.218  0.00  0.00    +0.000 A 
ATOM     12  C   UNL     1      45.743   6.976  12.874  0.00  0.00    +0.000 A 
ATOM     13  C   UNL     1      47.013   7.439  13.219  0.00  0.00    +0.000 A 
ATOM     14  C   UNL     1      47.903   6.628  13.940  0.00  0.00    +0.000 A 
ATOM     39  C   UNL     1      47.476   5.349  14.320  0.00  0.00    +0.000 A 
ATOM     40  C   UNL     1      46.214   4.876  13.957  0.00  0.00    +0.000 A 
BRANCH  11  10
ATOM     10  C   UNL     1      44.002   5.150  12.771  0.00  0.00    +0.000 C 
BRANCH  10   9
ATOM      9  N   UNL     1      43.877   3.733  13.100  0.00  0.00    +0.000 NA
ATOM     41  H   UNL     1      44.758   3.392  13.479  0.00  0.00    +0.000 HD
BRANCH   9   8
ATOM      8  C   UNL     1      43.516   2.950  11.928  0.00  0.00    +0.000 C 
BRANCH   8   7
ATOM      7  C   UNL     1      43.686   3.822  10.690  0.00  0.00    +0.000 C 
BRANCH   7   6
ATOM      6  C   UNL     1      44.621   3.145   9.697  0.00  0.00    +0.000 C 
BRANCH   6   5
ATOM      5  C   UNL     1      45.153   4.150   8.684  0.00  0.00    +0.000 C 
BRANCH   5   4
ATOM      4  C   UNL     1      45.632   3.433   7.427  0.00  0.00    +0.000 C 
BRANCH   4   3
ATOM      3  C   UNL     1      46.415   2.177   7.790  0.00  0.00    +0.000 C 
BRANCH   3   2
ATOM      1  C   UNL     1      47.317   2.485   5.471  0.00  0.00    +0.000 C 
ATOM      2  C   UNL     1      47.627   2.010   6.878  0.00  0.00    +0.000 C 
ENDBRANCH   3   2
ENDBRANCH   4   3
ENDBRANCH   5   4
ENDBRANCH   6   5
ENDBRANCH   7   6
ENDBRANCH   8   7
ENDBRANCH   9   8
ENDBRANCH  10   9
ENDBRANCH  11  10
ENDBRANCH  15  14
ENDBRANCH  16  15
TORSDOF 16
ENDMDL
MODEL 3
REMARK VINA RESULT:    -6.815      3.031      9.307
REMARK INTER + INTRA:         -15.972
REMARK INTER:                 -13.238
REMARK INTRA:                  -2.733
REMARK UNBOUND:                -2.782
REMARK  Name = 
REMARK  17 active torsions:
REMARK  status: ('A' for Active; 'I' for Inactive)
REMARK    1  A    between atoms: C_1  and  C_2
REMARK    2  A    between atoms: C_2  and  C_3
REMARK    3  A    between atoms: C_3  and  C_4
REMARK    4  A    between atoms: C_4  and  C_5
REMARK    5  A    between atoms: C_5  and  C_6
REMARK    6  A    between atoms: C_6  and  C_7
REMARK    7  A    between atoms: C_7  and  C_8
REMARK    8  A    between atoms: C_8  and  N_9
REMARK    9  A    between atoms: N_9  and  C_10
REMARK   10  A    between atoms: C_10  and  C_11
REMARK   11  A    between atoms: C_14  and  C_15
REMARK   12  A    between atoms: C_15  and  N_16
REMARK   13  A    between atoms: C_17  and  C_19
REMARK   14  A    between atoms: C_26  and  O_27
REMARK   15  A    between atoms: O_27  and  C_28
REMARK   16  A    between atoms: C_28  and  C_29
REMARK   17  A    between atoms: C_32  and  N_33
REMARK                            x       y       z     vdW  Elec       q    Type
REMARK                         _______ _______ _______ _____ _____    ______ ____
ROOT
ATOM     16  N   UNL     1      46.863   5.564  14.187  0.00  0.00    +0.000 N 
ATOM     17  C   UNL     1      47.718   6.249  13.369  0.00  0.00    +0.000 C 
ATOM     18  O   UNL     1      48.763   5.771  12.944  0.00  0.00    +0.000 OA
ATOM     42  H   UNL     1      46.145   6.087  14.664  0.00  0.00    +0.000 HD
ENDROOT
BRANCH  17  19
ATOM     19  C   UNL     1      47.250   7.582  12.971  0.00  0.00    +0.000 A 
ATOM     20  C   UNL     1      48.022   8.700  13.253  0.00  0.00    +0.000 A 
ATOM     21  S   UNL     1      47.363  10.144  12.632  0.00  0.00    +0.000 S 
ATOM     22  C   UNL     1      46.006   9.323  12.018  0.00  0.00    +0.000 A 
ATOM     23  N   UNL     1      45.047   9.999  11.361  0.00  0.00    +0.000 NA
ATOM     24  C   UNL     1      44.052   9.212  10.948  0.00  0.00    +0.000 A 
ATOM     25  N   UNL     1      43.926   7.891  11.135  0.00  0.00    +0.000 NA
ATOM     26  C   UNL     1      44.904   7.265  11.812  0.00  0.00    +0.000 A 
ATOM     38  C   UNL     1      46.032   7.960  12.271  0.00  0.00    +0.000 A 
BRANCH  26  27
ATOM     27  O   UNL     1      44.836   5.895  11.949  0.00  0.00    +0.000 OA
BRANCH  27  28
ATOM     28  C   UNL     1      43.855   5.247  11.142  0.00  0.00    +0.000 C 
BRANCH  28  29
ATOM     29  C   UNL     1      44.504   4.326  10.135  0.00  0.00    +0.000 A 
ATOM     30  C   UNL     1      44.316   2.943  10.237  0.00  0.00    +0.000 A 
ATOM     31  C   UNL     1      44.879   2.075   9.299  0.00  0.00    +0.000 A 
ATOM     32  C   UNL     1      45.640   2.565   8.229  0.00  0.00    +0.000 A 
ATOM     36  C   UNL     1      45.864   3.946   8.159  0.00  0.00    +0.000 A 
ATOM     37  C   UNL     1      45.308   4.821   9.102  0.00  0.00    +0.000 A 
BRANCH  32  33
ATOM     33  N   UNL     1      46.236   1.746   7.254  0.00  0.00    +0.000 NA
ATOM     34  N   UNL     1      47.429   2.011   7.003  0.00  0.00    +0.000 NA
ATOM     35  N   UNL     1      48.516   2.251   6.759  0.00  0.00    +0.000 NA
ENDBRANCH  32  33
ENDBRANCH  28  29
ENDBRANCH  27  28
ENDBRANCH  26  27
ENDBRANCH  17  19
BRANCH  16  15
ATOM     15  C   UNL     1      47.119   4.247  14.698  0.00  0.00    +0.000 C 
BRANCH  15  14
ATOM     11  C   UNL     1      48.577   4.377  18.782  0.00  0.00    +0.000 A 
ATOM     12  C   UNL     1      48.088   3.173  18.260  0.00  0.00    +0.000 A 
ATOM     13  C   UNL     1      47.606   3.110  16.952  0.00  0.00    +0.000 A 
ATOM     14  C   UNL     1      47.574   4.254  16.141  0.00  0.00    +0.000 A 
ATOM     39  C   UNL     1      48.022   5.466  16.685  0.00  0.00    +0.000 A 
ATOM     40  C   UNL     1      48.526   5.525  17.986  0.00  0.00    +0.000 A 
BRANCH  11  10
ATOM     10  C   UNL     1      49.177   4.425  20.163  0.00  0.00    +0.000 C 
BRANCH  10   9
ATOM      9  N   UNL     1      48.133   4.300  21.177  0.00  0.00    +0.000 NA
ATOM     41  H   UNL     1      47.230   4.182  20.723  0.00  0.00    +0.000 HD
BRANCH   9   8
ATOM      8  C   UNL     1      48.095   5.470  22.041  0.00  0.00    +0.000 C 
BRANCH   8   7
ATOM      7  C   UNL     1      47.298   6.566  21.342  0.00  0.00    +0.000 C 
BRANCH   7   6
ATOM      6  C   UNL     1      47.924   7.926  21.617  0.00  0.00    +0.000 C 
BRANCH   6   5
ATOM      5  C   UNL     1      47.234   9.013  20.805  0.00  0.00    +0.000 C 
BRANCH   5   4
ATOM      4  C   UNL     1      47.258   8.663  19.322  0.00  0.00    +0.000 C 
BRANCH   4   3
ATOM      3  C   UNL     1      47.739   9.850  18.496  0.00  0.00    +0.000 C 
BRANCH   3   2
ATOM      1  C   UNL     1      49.432   9.146  16.786  0.00  0.00    +0.000 C 
ATOM      2  C   UNL     1      47.967   9.445  17.043  0.00  0.00    +0.000 C 
ENDBRANCH   3   2
ENDBRANCH   4   3
ENDBRANCH   5   4
ENDBRANCH   6   5
ENDBRANCH   7   6
ENDBRANCH   8   7
ENDBRANCH   9   8
ENDBRANCH  10   9
ENDBRANCH  11  10
ENDBRANCH  15  14
ENDBRANCH  16  15
TORSDOF 16
ENDMDL
MODEL 4
REMARK VINA RESULT:    -6.745      1.374      1.913
REMARK INTER + INTRA:         -15.836
REMARK INTER:                 -13.250
REMARK INTRA:                  -2.586
REMARK UNBOUND:                -2.782
REMARK  Name = 
REMARK  17 active torsions:
REMARK  status: ('A' for Active; 'I' for Inactive)
REMARK    1  A    between atoms: C_1  and  C_2
REMARK    2  A    between atoms: C_2  and  C_3
REMARK    3  A    between atoms: C_3  and  C_4
REMARK    4  A    between atoms: C_4  and  C_5
REMARK    5  A    between atoms: C_5  and  C_6
REMARK    6  A    between atoms: C_6  and  C_7
REMARK    7  A    between atoms: C_7  and  C_8
REMARK    8  A    between atoms: C_8  and  N_9
REMARK    9  A    between atoms: N_9  and  C_10
REMARK   10  A    between atoms: C_10  and  C_11
REMARK   11  A    between atoms: C_14  and  C_15
REMARK   12  A    between atoms: C_15  and  N_16
REMARK   13  A    between atoms: C_17  and  C_19
REMARK   14  A    between atoms: C_26  and  O_27
REMARK   15  A    between atoms: O_27  and  C_28
REMARK   16  A    between atoms: C_28  and  C_29
REMARK   17  A    between atoms: C_32  and  N_33
REMARK                            x       y       z     vdW  Elec       q    Type
REMARK                         _______ _______ _______ _____ _____    ______ ____
ROOT
ATOM     16  N   UNL     1      48.144   7.255  15.060  0.00  0.00    +0.000 N 
ATOM     17  C   UNL     1      49.340   7.866  15.319  0.00  0.00    +0.000 C 
ATOM     18  O   UNL     1      50.422   7.334  15.103  0.00  0.00    +0.000 OA
ATOM     42  H   UNL     1      47.311   7.660  15.461  0.00  0.00    +0.000 HD
ENDROOT
BRANCH  17  19
ATOM     19  C   UNL     1      49.232   9.245  15.808  0.00  0.00    +0.000 A 
ATOM     20  C   UNL     1      49.823  10.280  15.098  0.00  0.00    +0.000 A 
ATOM     21  S   UNL     1      49.510  11.817  15.767  0.00  0.00    +0.000 S 
ATOM     22  C   UNL     1      48.623  11.136  17.049  0.00  0.00    +0.000 A 
ATOM     23  N   UNL     1      48.073  11.929  17.986  0.00  0.00    +0.000 NA
ATOM     24  C   UNL     1      47.415  11.242  18.921  0.00  0.00    +0.000 A 
ATOM     25  N   UNL     1      47.278   9.912  19.011  0.00  0.00    +0.000 NA
ATOM     26  C   UNL     1      47.861   9.164  18.058  0.00  0.00    +0.000 A 
ATOM     38  C   UNL     1      48.551   9.753  16.990  0.00  0.00    +0.000 A 
BRANCH  26  27
ATOM     27  O   UNL     1      47.668   7.799  18.085  0.00  0.00    +0.000 OA
BRANCH  27  28
ATOM     28  C   UNL     1      48.568   7.071  18.916  0.00  0.00    +0.000 C 
BRANCH  28  29
ATOM     29  C   UNL     1      48.871   5.712  18.329  0.00  0.00    +0.000 A 
ATOM     30  C   UNL     1      47.830   4.800  18.116  0.00  0.00    +0.000 A 
ATOM     31  C   UNL     1      48.081   3.551  17.544  0.00  0.00    +0.000 A 
ATOM     32  C   UNL     1      49.378   3.181  17.162  0.00  0.00    +0.000 A 
ATOM     36  C   UNL     1      50.422   4.079  17.420  0.00  0.00    +0.000 A 
ATOM     37  C   UNL     1      50.176   5.330  18.001  0.00  0.00    +0.000 A 
BRANCH  32  33
ATOM     33  N   UNL     1      49.698   1.940  16.584  0.00  0.00    +0.000 NA
ATOM     34  N   UNL     1      50.701   1.377  17.070  0.00  0.00    +0.000 NA
ATOM     35  N   UNL     1      51.620   0.860  17.500  0.00  0.00    +0.000 NA
ENDBRANCH  32  33
ENDBRANCH  28  29
ENDBRANCH  27  28
ENDBRANCH  26  27
ENDBRANCH  17  19
BRANCH  16  15
ATOM     15  C   UNL     1      48.014   5.909  14.579  0.00  0.00    +0.000 C 
BRANCH  15  14
ATOM     11  C   UNL     1      44.976   5.298  11.544  0.00  0.00    +0.000 A 
ATOM     12  C   UNL     1      45.870   6.369  11.421  0.00  0.00    +0.000 A 
ATOM     13  C   UNL     1      46.849   6.590  12.390  0.00  0.00    +0.000 A 
ATOM     14  C   UNL     1      46.944   5.764  13.520  0.00  0.00    +0.000 A 
ATOM     39  C   UNL     1      46.016   4.722  13.659  0.00  0.00    +0.000 A 
ATOM     40  C   UNL     1      45.050   4.486  12.679  0.00  0.00    +0.000 A 
BRANCH  11  10
ATOM     10  C   UNL     1      43.974   5.009  10.456  0.00  0.00    +0.000 C 
BRANCH  10   9
ATOM      9  N   UNL     1      44.619   4.333   9.334  0.00  0.00    +0.000 NA
ATOM     41  H   UNL     1      44.255   4.701   8.458  0.00  0.00    +0.000 HD
BRANCH   9   8
ATOM      8  C   UNL     1      44.398   2.896   9.388  0.00  0.00    +0.000 C 
BRANCH   8   7
ATOM      7  C   UNL     1      45.554   2.199   8.680  0.00  0.00    +0.000 C 
BRANCH   7   6
ATOM      6  C   UNL     1      45.804   2.845   7.324  0.00  0.00    +0.000 C 
BRANCH   6   5
ATOM      5  C   UNL     1      47.285   3.140   7.130  0.00  0.00    +0.000 C 
BRANCH   5   4
ATOM      4  C   UNL     1      47.714   2.786   5.711  0.00  0.00    +0.000 C 
BRANCH   4   3
ATOM      3  C   UNL     1      46.576   2.109   4.958  0.00  0.00    +0.000 C 
BRANCH   3   2
ATOM      1  C   UNL     1      46.447   0.417   3.113  0.00  0.00    +0.000 C 
ATOM      2  C   UNL     1      46.980   0.710   4.503  0.00  0.00    +0.000 C 
ENDBRANCH   3   2
ENDBRANCH   4   3
ENDBRANCH   5   4
ENDBRANCH   6   5
ENDBRANCH   7   6
ENDBRANCH   8   7
ENDBRANCH   9   8
ENDBRANCH  10   9
ENDBRANCH  11  10
ENDBRANCH  15  14
ENDBRANCH  16  15
TORSDOF 16
ENDMDL
MODEL 5
REMARK VINA RESULT:    -6.400      3.462      5.106
REMARK INTER + INTRA:         -15.168
REMARK INTER:                 -12.721
REMARK INTRA:                  -2.447
REMARK UNBOUND:                -2.782
REMARK  Name = 
REMARK  17 active torsions:
REMARK  status: ('A' for Active; 'I' for Inactive)
REMARK    1  A    between atoms: C_1  and  C_2
REMARK    2  A    between atoms: C_2  and  C_3
REMARK    3  A    between atoms: C_3  and  C_4
REMARK    4  A    between atoms: C_4  and  C_5
REMARK    5  A    between atoms: C_5  and  C_6
REMARK    6  A    between atoms: C_6  and  C_7
REMARK    7  A    between atoms: C_7  and  C_8
REMARK    8  A    between atoms: C_8  and  N_9
REMARK    9  A    between atoms: N_9  and  C_10
REMARK   10  A    between atoms: C_10  and  C_11
REMARK   11  A    between atoms: C_14  and  C_15
REMARK   12  A    between atoms: C_15  and  N_16
REMARK   13  A    between atoms: C_17  and  C_19
REMARK   14  A    between atoms: C_26  and  O_27
REMARK   15  A    between atoms: O_27  and  C_28
REMARK   16  A    between atoms: C_28  and  C_29
REMARK   17  A    between atoms: C_32  and  N_33
REMARK                            x       y       z     vdW  Elec       q    Type
REMARK                         _______ _______ _______ _____ _____    ______ ____
ROOT
ATOM     16  N   UNL     1      49.239   8.846  12.211  0.00  0.00    +0.000 N 
ATOM     17  C   UNL     1      50.069   9.786  11.665  0.00  0.00    +0.000 C 
ATOM     18  O   UNL     1      49.696  10.917  11.372  0.00  0.00    +0.000 OA
ATOM     42  H   UNL     1      49.554   7.888  12.222  0.00  0.00    +0.000 HD
ENDROOT
BRANCH  17  19
ATOM     19  C   UNL     1      51.467   9.364  11.524  0.00  0.00    +0.000 A 
ATOM     20  C   UNL     1      52.091   9.434  10.288  0.00  0.00    +0.000 A 
ATOM     21  S   UNL     1      53.737   8.992  10.341  0.00  0.00    +0.000 S 
ATOM     22  C   UNL     1      53.644   8.645  12.003  0.00  0.00    +0.000 A 
ATOM     23  N   UNL     1      54.733   8.216  12.666  0.00  0.00    +0.000 NA
ATOM     24  C   UNL     1      54.493   7.986  13.958  0.00  0.00    +0.000 A 
ATOM     25  N   UNL     1      53.329   8.121  14.608  0.00  0.00    +0.000 NA
ATOM     26  C   UNL     1      52.267   8.538  13.897  0.00  0.00    +0.000 A 
ATOM     38  C   UNL     1      52.381   8.857  12.536  0.00  0.00    +0.000 A 
BRANCH  26  27
ATOM     27  O   UNL     1      51.078   8.760  14.558  0.00  0.00    +0.000 OA
BRANCH  27  28
ATOM     28  C   UNL     1      51.118   8.562  15.970  0.00  0.00    +0.000 C 
BRANCH  28  29
ATOM     29  C   UNL     1      50.506   7.233  16.348  0.00  0.00    +0.000 A 
ATOM     30  C   UNL     1      49.144   7.005  16.118  0.00  0.00    +0.000 A 
ATOM     31  C   UNL     1      48.565   5.773  16.429  0.00  0.00    +0.000 A 
ATOM     32  C   UNL     1      49.330   4.733  16.972  0.00  0.00    +0.000 A 
ATOM     36  C   UNL     1      50.682   4.983  17.243  0.00  0.00    +0.000 A 
ATOM     37  C   UNL     1      51.267   6.219  16.940  0.00  0.00    +0.000 A 
BRANCH  32  33
ATOM     33  N   UNL     1      48.808   3.471  17.310  0.00  0.00    +0.000 NA
ATOM     34  N   UNL     1      49.291   2.514  16.672  0.00  0.00    +0.000 NA
ATOM     35  N   UNL     1      49.719   1.636  16.087  0.00  0.00    +0.000 NA
ENDBRANCH  32  33
ENDBRANCH  28  29
ENDBRANCH  27  28
ENDBRANCH  26  27
ENDBRANCH  17  19
BRANCH  16  15
ATOM     15  C   UNL     1      47.835   9.044  12.437  0.00  0.00    +0.000 C 
BRANCH  15  14
ATOM     11  C   UNL     1      45.467   5.417  12.666  0.00  0.00    +0.000 A 
ATOM     12  C   UNL     1      46.853   5.350  12.852  0.00  0.00    +0.000 A 
ATOM     13  C   UNL     1      47.636   6.503  12.774  0.00  0.00    +0.000 A 
ATOM     14  C   UNL     1      47.058   7.747  12.481  0.00  0.00    +0.000 A 
ATOM     39  C   UNL     1      45.676   7.799  12.251  0.00  0.00    +0.000 A 
ATOM     40  C   UNL     1      44.889   6.650  12.351  0.00  0.00    +0.000 A 
BRANCH  11  10
ATOM     10  C   UNL     1      44.612   4.188  12.835  0.00  0.00    +0.000 C 
BRANCH  10   9
ATOM      9  N   UNL     1      44.985   3.169  11.859  0.00  0.00    +0.000 NA
ATOM     41  H   UNL     1      45.943   3.324  11.553  0.00  0.00    +0.000 HD
BRANCH   9   8
ATOM      8  C   UNL     1      44.096   3.193  10.707  0.00  0.00    +0.000 C 
BRANCH   8   7
ATOM      7  C   UNL     1      44.703   4.101   9.643  0.00  0.00    +0.000 C 
BRANCH   7   6
ATOM      6  C   UNL     1      44.683   3.407   8.288  0.00  0.00    +0.000 C 
BRANCH   6   5
ATOM      5  C   UNL     1      46.068   3.414   7.655  0.00  0.00    +0.000 C 
BRANCH   5   4
ATOM      4  C   UNL     1      46.650   2.006   7.639  0.00  0.00    +0.000 C 
BRANCH   4   3
ATOM      3  C   UNL     1      47.777   1.901   6.618  0.00  0.00    +0.000 C 
BRANCH   3   2
ATOM      1  C   UNL     1      47.018   1.287   4.309  0.00  0.00    +0.000 C 
ATOM      2  C   UNL     1      47.330   2.429   5.258  0.00  0.00    +0.000 C 
ENDBRANCH   3   2
ENDBRANCH   4   3
ENDBRANCH   5   4
ENDBRANCH   6   5
ENDBRANCH   7   6
ENDBRANCH   8   7
ENDBRANCH   9   8
ENDBRANCH  10   9
ENDBRANCH  11  10
ENDBRANCH  15  14
ENDBRANCH  16  15
TORSDOF 16
ENDMDL
MODEL 6
REMARK VINA RESULT:    -6.277      3.619      8.665
REMARK INTER + INTRA:         -14.932
REMARK INTER:                 -10.334
REMARK INTRA:                  -4.597
REMARK UNBOUND:                -2.782
REMARK  Name = 
REMARK  17 active torsions:
REMARK  status: ('A' for Active; 'I' for Inactive)
REMARK    1  A    between atoms: C_1  and  C_2
REMARK    2  A    between atoms: C_2  and  C_3
REMARK    3  A    between atoms: C_3  and  C_4
REMARK    4  A    between atoms: C_4  and  C_5
REMARK    5  A    between atoms: C_5  and  C_6
REMARK    6  A    between atoms: C_6  and  C_7
REMARK    7  A    between atoms: C_7  and  C_8
REMARK    8  A    between atoms: C_8  and  N_9
REMARK    9  A    between atoms: N_9  and  C_10
REMARK   10  A    between atoms: C_10  and  C_11
REMARK   11  A    between atoms: C_14  and  C_15
REMARK   12  A    between atoms: C_15  and  N_16
REMARK   13  A    between atoms: C_17  and  C_19
REMARK   14  A    between atoms: C_26  and  O_27
REMARK   15  A    between atoms: O_27  and  C_28
REMARK   16  A    between atoms: C_28  and  C_29
REMARK   17  A    between atoms: C_32  and  N_33
REMARK                            x       y       z     vdW  Elec       q    Type
REMARK                         _______ _______ _______ _____ _____    ______ ____
ROOT
ATOM     16  N   UNL     1      46.980   4.361  15.816  0.00  0.00    +0.000 N 
ATOM     17  C   UNL     1      46.922   4.044  14.487  0.00  0.00    +0.000 C 
ATOM     18  O   UNL     1      47.348   2.989  14.033  0.00  0.00    +0.000 OA
ATOM     42  H   UNL     1      46.812   5.320  16.080  0.00  0.00    +0.000 HD
ENDROOT
BRANCH  17  19
ATOM     19  C   UNL     1      46.237   5.035  13.649  0.00  0.00    +0.000 A 
ATOM     20  C   UNL     1      44.982   4.755  13.130  0.00  0.00    +0.000 A 
ATOM     21  S   UNL     1      44.308   6.060  12.263  0.00  0.00    +0.000 S 
ATOM     22  C   UNL     1      45.695   7.011  12.514  0.00  0.00    +0.000 A 
ATOM     23  N   UNL     1      45.755   8.260  12.019  0.00  0.00    +0.000 NA
ATOM     24  C   UNL     1      46.908   8.870  12.299  0.00  0.00    +0.000 A 
ATOM     25  N   UNL     1      47.953   8.370  12.974  0.00  0.00    +0.000 NA
ATOM     26  C   UNL     1      47.848   7.111  13.433  0.00  0.00    +0.000 A 
ATOM     38  C   UNL     1      46.677   6.363  13.248  0.00  0.00    +0.000 A 
BRANCH  26  27
ATOM     27  O   UNL     1      48.876   6.602  14.197  0.00  0.00    +0.000 OA
BRANCH  27  28
ATOM     28  C   UNL     1      49.558   7.550  15.014  0.00  0.00    +0.000 C 
BRANCH  28  29
ATOM     29  C   UNL     1      50.678   6.894  15.787  0.00  0.00    +0.000 A 
ATOM     30  C   UNL     1      51.999   7.309  15.584  0.00  0.00    +0.000 A 
ATOM     31  C   UNL     1      53.047   6.739  16.311  0.00  0.00    +0.000 A 
ATOM     32  C   UNL     1      52.803   5.744  17.267  0.00  0.00    +0.000 A 
ATOM     36  C   UNL     1      51.485   5.300  17.433  0.00  0.00    +0.000 A 
ATOM     37  C   UNL     1      50.431   5.862  16.700  0.00  0.00    +0.000 A 
BRANCH  32  33
ATOM     33  N   UNL     1      53.811   5.128  18.029  0.00  0.00    +0.000 NA
ATOM     34  N   UNL     1      53.929   3.899  17.851  0.00  0.00    +0.000 NA
ATOM     35  N   UNL     1      54.037   2.775  17.702  0.00  0.00    +0.000 NA
ENDBRANCH  32  33
ENDBRANCH  28  29
ENDBRANCH  27  28
ENDBRANCH  26  27
ENDBRANCH  17  19
BRANCH  16  15
ATOM     15  C   UNL     1      47.603   3.539  16.814  0.00  0.00    +0.000 C 
BRANCH  15  14
ATOM     11  C   UNL     1      48.037   5.720  20.538  0.00  0.00    +0.000 A 
ATOM     12  C   UNL     1      48.734   4.519  20.356  0.00  0.00    +0.000 A 
ATOM     13  C   UNL     1      48.602   3.797  19.169  0.00  0.00    +0.000 A 
ATOM     14  C   UNL     1      47.751   4.241  18.146  0.00  0.00    +0.000 A 
ATOM     39  C   UNL     1      47.022   5.420  18.355  0.00  0.00    +0.000 A 
ATOM     40  C   UNL     1      47.169   6.155  19.532  0.00  0.00    +0.000 A 
BRANCH  11  10
ATOM     10  C   UNL     1      48.245   6.543  21.784  0.00  0.00    +0.000 C 
BRANCH  10   9
ATOM      9  N   UNL     1      48.264   7.966  21.458  0.00  0.00    +0.000 NA
ATOM     41  H   UNL     1      49.181   8.352  21.670  0.00  0.00    +0.000 HD
BRANCH   9   8
ATOM      8  C   UNL     1      47.246   8.691  22.203  0.00  0.00    +0.000 C 
BRANCH   8   7
ATOM      7  C   UNL     1      47.018  10.039  21.530  0.00  0.00    +0.000 C 
BRANCH   7   6
ATOM      6  C   UNL     1      46.619   9.838  20.075  0.00  0.00    +0.000 C 
BRANCH   6   5
ATOM      5  C   UNL     1      47.391  10.785  19.166  0.00  0.00    +0.000 C 
BRANCH   5   4
ATOM      4  C   UNL     1      47.792  10.074  17.879  0.00  0.00    +0.000 C 
BRANCH   4   3
ATOM      3  C   UNL     1      48.833   8.997  18.161  0.00  0.00    +0.000 C 
BRANCH   3   2
ATOM      1  C   UNL     1      51.056   8.525  19.219  0.00  0.00    +0.000 C 
ATOM      2  C   UNL     1      50.105   9.607  18.741  0.00  0.00    +0.000 C 
ENDBRANCH   3   2
ENDBRANCH   4   3
ENDBRANCH   5   4
ENDBRANCH   6   5
ENDBRANCH   7   6
ENDBRANCH   8   7
ENDBRANCH   9   8
ENDBRANCH  10   9
ENDBRANCH  11  10
ENDBRANCH  15  14
ENDBRANCH  16  15
TORSDOF 16
ENDMDL
MODEL 7
REMARK VINA RESULT:    -6.212      3.319      8.386
REMARK INTER + INTRA:         -14.805
REMARK INTER:                  -9.832
REMARK INTRA:                  -4.973
REMARK UNBOUND:                -2.782
REMARK  Name = 
REMARK  17 active torsions:
REMARK  status: ('A' for Active; 'I' for Inactive)
REMARK    1  A    between atoms: C_1  and  C_2
REMARK    2  A    between atoms: C_2  and  C_3
REMARK    3  A    between atoms: C_3  and  C_4
REMARK    4  A    between atoms: C_4  and  C_5
REMARK    5  A    between atoms: C_5  and  C_6
REMARK    6  A    between atoms: C_6  and  C_7
REMARK    7  A    between atoms: C_7  and  C_8
REMARK    8  A    between atoms: C_8  and  N_9
REMARK    9  A    between atoms: N_9  and  C_10
REMARK   10  A    between atoms: C_10  and  C_11
REMARK   11  A    between atoms: C_14  and  C_15
REMARK   12  A    between atoms: C_15  and  N_16
REMARK   13  A    between atoms: C_17  and  C_19
REMARK   14  A    between atoms: C_26  and  O_27
REMARK   15  A    between atoms: O_27  and  C_28
REMARK   16  A    between atoms: C_28  and  C_29
REMARK   17  A    between atoms: C_32  and  N_33
REMARK                            x       y       z     vdW  Elec       q    Type
REMARK                         _______ _______ _______ _____ _____    ______ ____
ROOT
ATOM     16  N   UNL     1      47.426   8.764  15.201  0.00  0.00    +0.000 N 
ATOM     17  C   UNL     1      47.945   8.094  14.127  0.00  0.00    +0.000 C 
ATOM     18  O   UNL     1      49.147   8.030  13.898  0.00  0.00    +0.000 OA
ATOM     42  H   UNL     1      46.436   8.956  15.204  0.00  0.00    +0.000 HD
ENDROOT
BRANCH  17  19
ATOM     19  C   UNL     1      46.954   7.389  13.307  0.00  0.00    +0.000 A 
ATOM     20  C   UNL     1      46.213   8.084  12.363  0.00  0.00    +0.000 A 
ATOM     21  S   UNL     1      45.184   7.081  11.445  0.00  0.00    +0.000 S 
ATOM     22  C   UNL     1      45.662   5.703  12.319  0.00  0.00    +0.000 A 
ATOM     23  N   UNL     1      45.142   4.500  12.019  0.00  0.00    +0.000 NA
ATOM     24  C   UNL     1      45.616   3.525  12.797  0.00  0.00    +0.000 A 
ATOM     25  N   UNL     1      46.498   3.638  13.799  0.00  0.00    +0.000 NA
ATOM     26  C   UNL     1      46.975   4.865  14.069  0.00  0.00    +0.000 A 
ATOM     38  C   UNL     1      46.596   5.978  13.306  0.00  0.00    +0.000 A 
BRANCH  26  27
ATOM     27  O   UNL     1      47.942   4.995  15.043  0.00  0.00    +0.000 OA
BRANCH  27  28
ATOM     28  C   UNL     1      47.689   4.286  16.254  0.00  0.00    +0.000 C 
BRANCH  28  29
ATOM     29  C   UNL     1      48.961   3.687  16.808  0.00  0.00    +0.000 A 
ATOM     30  C   UNL     1      49.217   2.322  16.638  0.00  0.00    +0.000 A 
ATOM     31  C   UNL     1      50.401   1.753  17.113  0.00  0.00    +0.000 A 
ATOM     32  C   UNL     1      51.366   2.534  17.764  0.00  0.00    +0.000 A 
ATOM     36  C   UNL     1      51.083   3.890  17.971  0.00  0.00    +0.000 A 
ATOM     37  C   UNL     1      49.893   4.464  17.504  0.00  0.00    +0.000 A 
BRANCH  32  33
ATOM     33  N   UNL     1      52.576   2.024  18.267  0.00  0.00    +0.000 NA
ATOM     34  N   UNL     1      53.602   2.591  17.842  0.00  0.00    +0.000 NA
ATOM     35  N   UNL     1      54.546   3.097  17.452  0.00  0.00    +0.000 NA
ENDBRANCH  32  33
ENDBRANCH  28  29
ENDBRANCH  27  28
ENDBRANCH  26  27
ENDBRANCH  17  19
BRANCH  16  15
ATOM     15  C   UNL     1      48.211   9.523  16.133  0.00  0.00    +0.000 C 
BRANCH  15  14
ATOM     11  C   UNL     1      47.670   7.990  20.155  0.00  0.00    +0.000 A 
ATOM     12  C   UNL     1      47.667   9.373  19.936  0.00  0.00    +0.000 A 
ATOM     13  C   UNL     1      47.848   9.889  18.652  0.00  0.00    +0.000 A 
ATOM     14  C   UNL     1      48.064   9.037  17.558  0.00  0.00    +0.000 A 
ATOM     39  C   UNL     1      48.112   7.656  17.792  0.00  0.00    +0.000 A 
ATOM     40  C   UNL     1      47.910   7.138  19.073  0.00  0.00    +0.000 A 
BRANCH  11  10
ATOM     10  C   UNL     1      47.390   7.431  21.526  0.00  0.00    +0.000 C 
BRANCH  10   9
ATOM      9  N   UNL     1      48.637   7.072  22.196  0.00  0.00    +0.000 NA
ATOM     41  H   UNL     1      49.418   7.531  21.731  0.00  0.00    +0.000 HD
BRANCH   9   8
ATOM      8  C   UNL     1      48.843   5.632  22.188  0.00  0.00    +0.000 C 
BRANCH   8   7
ATOM      7  C   UNL     1      50.060   5.320  21.323  0.00  0.00    +0.000 C 
BRANCH   7   6
ATOM      6  C   UNL     1      51.187   6.296  21.633  0.00  0.00    +0.000 C 
BRANCH   6   5
ATOM      5  C   UNL     1      51.767   6.876  20.351  0.00  0.00    +0.000 C 
BRANCH   5   4
ATOM      4  C   UNL     1      51.296   8.312  20.158  0.00  0.00    +0.000 C 
BRANCH   4   3
ATOM      3  C   UNL     1      51.588   8.789  18.741  0.00  0.00    +0.000 C 
BRANCH   3   2
ATOM      1  C   UNL     1      51.602   7.980  16.368  0.00  0.00    +0.000 C 
ATOM      2  C   UNL     1      51.866   7.609  17.816  0.00  0.00    +0.000 C 
ENDBRANCH   3   2
ENDBRANCH   4   3
ENDBRANCH   5   4
ENDBRANCH   6   5
ENDBRANCH   7   6
ENDBRANCH   8   7
ENDBRANCH   9   8
ENDBRANCH  10   9
ENDBRANCH  11  10
ENDBRANCH  15  14
ENDBRANCH  16  15
TORSDOF 16
ENDMDL
MODEL 8
REMARK VINA RESULT:    -6.184      4.228      9.329
REMARK INTER + INTRA:         -14.751
REMARK INTER:                  -9.081
REMARK INTRA:                  -5.670
REMARK UNBOUND:                -2.782
REMARK  Name = 
REMARK  17 active torsions:
REMARK  status: ('A' for Active; 'I' for Inactive)
REMARK    1  A    between atoms: C_1  and  C_2
REMARK    2  A    between atoms: C_2  and  C_3
REMARK    3  A    between atoms: C_3  and  C_4
REMARK    4  A    between atoms: C_4  and  C_5
REMARK    5  A    between atoms: C_5  and  C_6
REMARK    6  A    between atoms: C_6  and  C_7
REMARK    7  A    between atoms: C_7  and  C_8
REMARK    8  A    between atoms: C_8  and  N_9
REMARK    9  A    between atoms: N_9  and  C_10
REMARK   10  A    between atoms: C_10  and  C_11
REMARK   11  A    between atoms: C_14  and  C_15
REMARK   12  A    between atoms: C_15  and  N_16
REMARK   13  A    between atoms: C_17  and  C_19
REMARK   14  A    between atoms: C_26  and  O_27
REMARK   15  A    between atoms: O_27  and  C_28
REMARK   16  A    between atoms: C_28  and  C_29
REMARK   17  A    between atoms: C_32  and  N_33
REMARK                            x       y       z     vdW  Elec       q    Type
REMARK                         _______ _______ _______ _____ _____    ______ ____
ROOT
ATOM     16  N   UNL     1      46.915   5.439  14.720  0.00  0.00    +0.000 N 
ATOM     17  C   UNL     1      46.859   4.421  13.808  0.00  0.00    +0.000 C 
ATOM     18  O   UNL     1      47.714   3.547  13.730  0.00  0.00    +0.000 OA
ATOM     42  H   UNL     1      46.303   6.230  14.583  0.00  0.00    +0.000 HD
ENDROOT
BRANCH  17  19
ATOM     19  C   UNL     1      45.651   4.409  12.976  0.00  0.00    +0.000 A 
ATOM     20  C   UNL     1      45.007   3.211  12.706  0.00  0.00    +0.000 A 
ATOM     21  S   UNL     1      43.573   3.408  11.804  0.00  0.00    +0.000 S 
ATOM     22  C   UNL     1      43.804   5.089  11.706  0.00  0.00    +0.000 A 
ATOM     23  N   UNL     1      42.910   5.857  11.057  0.00  0.00    +0.000 NA
ATOM     24  C   UNL     1      43.237   7.150  11.068  0.00  0.00    +0.000 A 
ATOM     25  N   UNL     1      44.320   7.713  11.622  0.00  0.00    +0.000 NA
ATOM     26  C   UNL     1      45.190   6.900  12.245  0.00  0.00    +0.000 A 
ATOM     38  C   UNL     1      44.955   5.522  12.347  0.00  0.00    +0.000 A 
BRANCH  26  27
ATOM     27  O   UNL     1      46.271   7.464  12.890  0.00  0.00    +0.000 OA
BRANCH  27  28
ATOM     28  C   UNL     1      46.635   8.768  12.445  0.00  0.00    +0.000 C 
BRANCH  28  29
ATOM     29  C   UNL     1      48.078   8.806  12.000  0.00  0.00    +0.000 A 
ATOM     30  C   UNL     1      48.726  10.037  11.845  0.00  0.00    +0.000 A 
ATOM     31  C   UNL     1      50.069  10.094  11.466  0.00  0.00    +0.000 A 
ATOM     32  C   UNL     1      50.805   8.924  11.239  0.00  0.00    +0.000 A 
ATOM     36  C   UNL     1      50.139   7.696  11.350  0.00  0.00    +0.000 A 
ATOM     37  C   UNL     1      48.790   7.633  11.722  0.00  0.00    +0.000 A 
BRANCH  32  33
ATOM     33  N   UNL     1      52.157   8.912  10.853  0.00  0.00    +0.000 NA
ATOM     34  N   UNL     1      52.429   8.137   9.914  0.00  0.00    +0.000 NA
ATOM     35  N   UNL     1      52.689   7.425   9.063  0.00  0.00    +0.000 NA
ENDBRANCH  32  33
ENDBRANCH  28  29
ENDBRANCH  27  28
ENDBRANCH  26  27
ENDBRANCH  17  19
BRANCH  16  15
ATOM     15  C   UNL     1      48.004   5.645  15.632  0.00  0.00    +0.000 C 
BRANCH  15  14
ATOM     11  C   UNL     1      50.097   9.420  15.206  0.00  0.00    +0.000 A 
ATOM     12  C   UNL     1      48.746   9.416  15.574  0.00  0.00    +0.000 A 
ATOM     13  C   UNL     1      48.050   8.214  15.708  0.00  0.00    +0.000 A 
ATOM     14  C   UNL     1      48.679   6.986  15.452  0.00  0.00    +0.000 A 
ATOM     39  C   UNL     1      50.019   7.000  15.040  0.00  0.00    +0.000 A 
ATOM     40  C   UNL     1      50.722   8.200  14.927  0.00  0.00    +0.000 A 
BRANCH  11  10
ATOM     10  C   UNL     1      50.870  10.712  15.144  0.00  0.00    +0.000 C 
BRANCH  10   9
ATOM      9  N   UNL     1      50.932  11.333  16.464  0.00  0.00    +0.000 NA
ATOM     41  H   UNL     1      50.944  12.346  16.363  0.00  0.00    +0.000 HD
BRANCH   9   8
ATOM      8  C   UNL     1      52.113  10.901  17.195  0.00  0.00    +0.000 C 
BRANCH   8   7
ATOM      7  C   UNL     1      51.747  10.753  18.667  0.00  0.00    +0.000 C 
BRANCH   7   6
ATOM      6  C   UNL     1      50.576   9.791  18.821  0.00  0.00    +0.000 C 
BRANCH   6   5
ATOM      5  C   UNL     1      51.029   8.351  18.622  0.00  0.00    +0.000 C 
BRANCH   5   4
ATOM      4  C   UNL     1      49.885   7.390  18.921  0.00  0.00    +0.000 C 
BRANCH   4   3
ATOM      3  C   UNL     1      48.763   8.103  19.664  0.00  0.00    +0.000 C 
BRANCH   3   2
ATOM      1  C   UNL     1      47.334   6.088  19.232  0.00  0.00    +0.000 C 
ATOM      2  C   UNL     1      47.398   7.604  19.198  0.00  0.00    +0.000 C 
ENDBRANCH   3   2
ENDBRANCH   4   3
ENDBRANCH   5   4
ENDBRANCH   6   5
ENDBRANCH   7   6
ENDBRANCH   8   7
ENDBRANCH   9   8
ENDBRANCH  10   9
ENDBRANCH  11  10
ENDBRANCH  15  14
ENDBRANCH  16  15
TORSDOF 16
ENDMDL
MODEL 9
REMARK VINA RESULT:    -6.003      3.578      8.403
REMARK INTER + INTRA:         -14.400
REMARK INTER:                 -10.573
REMARK INTRA:                  -3.828
REMARK UNBOUND:                -2.782
REMARK  Name = 
REMARK  17 active torsions:
REMARK  status: ('A' for Active; 'I' for Inactive)
REMARK    1  A    between atoms: C_1  and  C_2
REMARK    2  A    between atoms: C_2  and  C_3
REMARK    3  A    between atoms: C_3  and  C_4
REMARK    4  A    between atoms: C_4  and  C_5
REMARK    5  A    between atoms: C_5  and  C_6
REMARK    6  A    between atoms: C_6  and  C_7
REMARK    7  A    between atoms: C_7  and  C_8
REMARK    8  A    between atoms: C_8  and  N_9
REMARK    9  A    between atoms: N_9  and  C_10
REMARK   10  A    between atoms: C_10  and  C_11
REMARK   11  A    between atoms: C_14  and  C_15
REMARK   12  A    between atoms: C_15  and  N_16
REMARK   13  A    between atoms: C_17  and  C_19
REMARK   14  A    between atoms: C_26  and  O_27
REMARK   15  A    between atoms: O_27  and  C_28
REMARK   16  A    between atoms: C_28  and  C_29
REMARK   17  A    between atoms: C_32  and  N_33
REMARK                            x       y       z     vdW  Elec       q    Type
REMARK                         _______ _______ _______ _____ _____    ______ ____
ROOT
ATOM     16  N   UNL     1      48.446   8.084  13.630  0.00  0.00    +0.000 N 
ATOM     17  C   UNL     1      48.795   8.929  12.612  0.00  0.00    +0.000 C 
ATOM     18  O   UNL     1      49.813   8.787  11.946  0.00  0.00    +0.000 OA
ATOM     42  H   UNL     1      47.722   8.383  14.265  0.00  0.00    +0.000 HD
ENDROOT
BRANCH  17  19
ATOM     19  C   UNL     1      47.813   9.981  12.325  0.00  0.00    +0.000 A 
ATOM     20  C   UNL     1      48.195  11.314  12.360  0.00  0.00    +0.000 A 
ATOM     21  S   UNL     1      46.946  12.382  11.907  0.00  0.00    +0.000 S 
ATOM     22  C   UNL     1      45.850  11.098  11.704  0.00  0.00    +0.000 A 
ATOM     23  N   UNL     1      44.586  11.343  11.316  0.00  0.00    +0.000 NA
ATOM     24  C   UNL     1      43.855  10.232  11.207  0.00  0.00    +0.000 A 
ATOM     25  N   UNL     1      44.243   8.974  11.453  0.00  0.00    +0.000 NA
ATOM     26  C   UNL     1      45.512   8.784  11.853  0.00  0.00    +0.000 A 
ATOM     38  C   UNL     1      46.407   9.856  11.973  0.00  0.00    +0.000 A 
BRANCH  26  27
ATOM     27  O   UNL     1      45.958   7.492  12.036  0.00  0.00    +0.000 OA
BRANCH  27  28
ATOM     28  C   UNL     1      44.983   6.572  12.523  0.00  0.00    +0.000 C 
BRANCH  28  29
ATOM     29  C   UNL     1      44.888   5.359  11.628  0.00  0.00    +0.000 A 
ATOM     30  C   UNL     1      45.162   5.481  10.261  0.00  0.00    +0.000 A 
ATOM     31  C   UNL     1      45.112   4.367   9.420  0.00  0.00    +0.000 A 
ATOM     32  C   UNL     1      44.794   3.098   9.923  0.00  0.00    +0.000 A 
ATOM     36  C   UNL     1      44.476   2.990  11.283  0.00  0.00    +0.000 A 
ATOM     37  C   UNL     1      44.517   4.106  12.130  0.00  0.00    +0.000 A 
BRANCH  32  33
ATOM     33  N   UNL     1      44.725   1.938   9.132  0.00  0.00    +0.000 NA
ATOM     34  N   UNL     1      45.760   1.680   8.485  0.00  0.00    +0.000 NA
ATOM     35  N   UNL     1      46.698   1.441   7.884  0.00  0.00    +0.000 NA
ENDBRANCH  32  33
ENDBRANCH  28  29
ENDBRANCH  27  28
ENDBRANCH  26  27
ENDBRANCH  17  19
BRANCH  16  15
ATOM     15  C   UNL     1      49.257   6.988  14.081  0.00  0.00    +0.000 C 
BRANCH  15  14
ATOM     11  C   UNL     1      50.611   7.677  18.144  0.00  0.00    +0.000 A 
ATOM     12  C   UNL     1      51.553   7.488  17.124  0.00  0.00    +0.000 A 
ATOM     13  C   UNL     1      51.139   7.256  15.811  0.00  0.00    +0.000 A 
ATOM     14  C   UNL     1      49.776   7.180  15.488  0.00  0.00    +0.000 A 
ATOM     39  C   UNL     1      48.840   7.324  16.522  0.00  0.00    +0.000 A 
ATOM     40  C   UNL     1      49.252   7.579  17.832  0.00  0.00    +0.000 A 
BRANCH  11  10
ATOM     10  C   UNL     1      51.057   8.012  19.543  0.00  0.00    +0.000 C 
BRANCH  10   9
ATOM      9  N   UNL     1      50.591   6.998  20.484  0.00  0.00    +0.000 NA
ATOM     41  H   UNL     1      50.471   7.415  21.404  0.00  0.00    +0.000 HD
BRANCH   9   8
ATOM      8  C   UNL     1      51.531   5.890  20.571  0.00  0.00    +0.000 C 
BRANCH   8   7
ATOM      7  C   UNL     1      50.891   4.659  19.938  0.00  0.00    +0.000 C 
BRANCH   7   6
ATOM      6  C   UNL     1      51.734   4.175  18.766  0.00  0.00    +0.000 C 
BRANCH   6   5
ATOM      5  C   UNL     1      50.850   3.788  17.588  0.00  0.00    +0.000 C 
BRANCH   5   4
ATOM      4  C   UNL     1      49.380   3.877  17.978  0.00  0.00    +0.000 C 
BRANCH   4   3
ATOM      3  C   UNL     1      48.503   3.208  16.926  0.00  0.00    +0.000 C 
BRANCH   3   2
ATOM      1  C   UNL     1      47.062   4.307  15.193  0.00  0.00    +0.000 C 
ATOM      2  C   UNL     1      47.238   4.023  16.673  0.00  0.00    +0.000 C 
ENDBRANCH   3   2
ENDBRANCH   4   3
ENDBRANCH   5   4
ENDBRANCH   6   5
ENDBRANCH   7   6
ENDBRANCH   8   7
ENDBRANCH   9   8
ENDBRANCH  10   9
ENDBRANCH  11  10
ENDBRANCH  15  14
ENDBRANCH  16  15
TORSDOF 16
ENDMDL
