MODEL 1
REMARK VINA RESULT:    -7.525      0.000      0.000
REMARK INTER + INTRA:          -9.950
REMARK INTER:                  -9.284
REMARK INTRA:                  -0.666
REMARK UNBOUND:                -0.666
REMARK  Name = 
REMARK  6 active torsions:
REMARK  status: ('A' for Active; 'I' for Inactive)
REMARK    1  A    between atoms: C_1  and  C_2
REMARK    2  A    between atoms: C_2  and  C_3
REMARK    3  A    between atoms: C_2  and  C_4
REMARK    4  A    between atoms: C_2  and  C_15
REMARK    5  A    between atoms: C_4  and  N_5
REMARK    6  A    between atoms: C_9  and  C_10
REMARK                            x       y       z     vdW  Elec       q    Type
REMARK                         _______ _______ _______ _____ _____    ______ ____
ROOT
ATOM      5  N   UNL     1      44.115   2.915  10.072  0.00  0.00    +0.000 N 
ATOM      6  C   UNL     1      45.026   2.704   9.021  0.00  0.00    +0.000 A 
ATOM      7  C   UNL     1      45.480   1.410   8.784  0.00  0.00    +0.000 A 
ATOM      8  C   UNL     1      46.377   1.171   7.738  0.00  0.00    +0.000 A 
ATOM      9  C   UNL     1      46.811   2.234   6.941  0.00  0.00    +0.000 A 
ATOM     13  C   UNL     1      46.330   3.490   7.266  0.00  0.00    +0.000 A 
ATOM     14  N   UNL     1      45.465   3.744   8.279  0.00  0.00    +0.000 NA
ATOM     21  H   UNL     1      43.313   2.301   9.941  0.00  0.00    +0.000 HD
ENDROOT
BRANCH   9  10
ATOM     10  C   UNL     1      47.731   1.972   5.813  0.00  0.00    +0.000 C 
ATOM     11  N   UNL     1      48.158   3.022   5.047  0.00  0.00    +0.000 N 
ATOM     12  O   UNL     1      48.104   0.833   5.550  0.00  0.00    +0.000 OA
ATOM     22  H   UNL     1      47.908   3.990   5.160  0.00  0.00    +0.000 HD
ATOM     23  H   UNL     1      48.776   2.790   4.274  0.00  0.00    +0.000 HD
ENDBRANCH   9  10
BRANCH   5   4
ATOM      4  C   UNL     1      43.703   4.315  10.220  0.00  0.00    +0.000 C 
BRANCH   4   2
ATOM      1  C   UNL     1      42.632   5.837  11.928  0.00  0.00    +0.000 C 
ATOM      2  C   UNL     1      43.760   4.802  11.700  0.00  0.00    +0.000 C 
ATOM      3  C   UNL     1      43.429   3.582  12.598  0.00  0.00    +0.000 C 
BRANCH   2  15
ATOM     15  C   UNL     1      45.154   5.341  12.087  0.00  0.00    +0.000 A 
ATOM     16  C   UNL     1      45.846   6.267  11.281  0.00  0.00    +0.000 A 
ATOM     17  C   UNL     1      47.072   6.809  11.680  0.00  0.00    +0.000 A 
ATOM     18  C   UNL     1      47.642   6.432  12.888  0.00  0.00    +0.000 A 
ATOM     19  C   UNL     1      46.997   5.495  13.689  0.00  0.00    +0.000 A 
ATOM     20  C   UNL     1      45.769   4.953  13.291  0.00  0.00    +0.000 A 
ENDBRANCH   2  15
ENDBRANCH   4   2
ENDBRANCH   5   4
TORSDOF 4
ENDMDL
MODEL 2
REMARK VINA RESULT:    -6.761      4.241      6.469
REMARK INTER + INTRA:          -9.008
REMARK INTER:                  -8.531
REMARK INTRA:                  -0.476
REMARK UNBOUND:                -0.666
REMARK  Name = 
REMARK  6 active torsions:
REMARK  status: ('A' for Active; 'I' for Inactive)
REMARK    1  A    between atoms: C_1  and  C_2
REMARK    2  A    between atoms: C_2  and  C_3
REMARK    3  A    between atoms: C_2  and  C_4
REMARK    4  A    between atoms: C_2  and  C_15
REMARK    5  A    between atoms: C_4  and  N_5
REMARK    6  A    between atoms: C_9  and  C_10
REMARK                            x       y       z     vdW  Elec       q    Type
REMARK                         _______ _______ _______ _____ _____    ______ ____
ROOT
ATOM      5  N   UNL     1      47.227   5.434  14.652  0.00  0.00    +0.000 N 
ATOM      6  C   UNL     1      46.471   4.981  13.556  0.00  0.00    +0.000 A 
ATOM      7  C   UNL     1      46.296   5.835  12.471  0.00  0.00    +0.000 A 
ATOM      8  C   UNL     1      45.558   5.405  11.363  0.00  0.00    +0.000 A 
ATOM      9  C   UNL     1      45.002   4.123  11.357  0.00  0.00    +0.000 A 
ATOM     13  C   UNL     1      45.201   3.354  12.489  0.00  0.00    +0.000 A 
ATOM     14  N   UNL     1      45.908   3.754  13.575  0.00  0.00    +0.000 NA
ATOM     21  H   UNL     1      48.140   5.737  14.319  0.00  0.00    +0.000 HD
ENDROOT
BRANCH   9  10
ATOM     10  C   UNL     1      44.253   3.659  10.169  0.00  0.00    +0.000 C 
ATOM     11  N   UNL     1      43.921   4.565   9.198  0.00  0.00    +0.000 N 
ATOM     12  O   UNL     1      43.918   2.485  10.048  0.00  0.00    +0.000 OA
ATOM     22  H   UNL     1      44.129   5.548   9.198  0.00  0.00    +0.000 HD
ATOM     23  H   UNL     1      43.392   4.201   8.409  0.00  0.00    +0.000 HD
ENDBRANCH   9  10
BRANCH   5   4
ATOM      4  C   UNL     1      47.349   4.446  15.730  0.00  0.00    +0.000 C 
BRANCH   4   2
ATOM      1  C   UNL     1      48.744   6.376  16.573  0.00  0.00    +0.000 C 
ATOM      2  C   UNL     1      48.262   4.940  16.893  0.00  0.00    +0.000 C 
ATOM      3  C   UNL     1      47.376   5.045  18.161  0.00  0.00    +0.000 C 
BRANCH   2  15
ATOM     15  C   UNL     1      49.427   3.968  17.179  0.00  0.00    +0.000 A 
ATOM     16  C   UNL     1      49.323   2.585  16.931  0.00  0.00    +0.000 A 
ATOM     17  C   UNL     1      50.410   1.725  17.118  0.00  0.00    +0.000 A 
ATOM     18  C   UNL     1      51.625   2.224  17.568  0.00  0.00    +0.000 A 
ATOM     19  C   UNL     1      51.747   3.581  17.852  0.00  0.00    +0.000 A 
ATOM     20  C   UNL     1      50.660   4.442  17.663  0.00  0.00    +0.000 A 
ENDBRANCH   2  15
ENDBRANCH   4   2
ENDBRANCH   5   4
TORSDOF 4
ENDMDL
MODEL 3
REMARK VINA RESULT:    -6.635      4.803      7.827
REMARK INTER + INTRA:          -8.852
REMARK INTER:                  -8.380
REMARK INTRA:                  -0.472
REMARK UNBOUND:                -0.666
REMARK  Name = 
REMARK  6 active torsions:
REMARK  status: ('A' for Active; 'I' for Inactive)
REMARK    1  A    between atoms: C_1  and  C_2
REMARK    2  A    between atoms: C_2  and  C_3
REMARK    3  A    between atoms: C_2  and  C_4
REMARK    4  A    between atoms: C_2  and  C_15
REMARK    5  A    between atoms: C_4  and  N_5
REMARK    6  A    between atoms: C_9  and  C_10
REMARK                            x       y       z     vdW  Elec       q    Type
REMARK                         _______ _______ _______ _____ _____    ______ ____
ROOT
ATOM      5  N   UNL     1      46.700   5.532  13.759  0.00  0.00    +0.000 N 
ATOM      6  C   UNL     1      47.307   5.100  14.951  0.00  0.00    +0.000 A 
ATOM      7  C   UNL     1      48.202   5.953  15.589  0.00  0.00    +0.000 A 
ATOM      8  C   UNL     1      48.811   5.553  16.783  0.00  0.00    +0.000 A 
ATOM      9  C   UNL     1      48.516   4.298  17.324  0.00  0.00    +0.000 A 
ATOM     13  C   UNL     1      47.637   3.505  16.609  0.00  0.00    +0.000 A 
ATOM     14  N   UNL     1      47.041   3.872  15.447  0.00  0.00    +0.000 NA
ATOM     21  H   UNL     1      46.242   6.426  13.927  0.00  0.00    +0.000 HD
ENDROOT
BRANCH   9  10
ATOM     10  C   UNL     1      49.133   3.893  18.605  0.00  0.00    +0.000 C 
ATOM     11  N   UNL     1      48.393   3.170  19.499  0.00  0.00    +0.000 N 
ATOM     12  O   UNL     1      50.288   4.204  18.879  0.00  0.00    +0.000 OA
ATOM     22  H   UNL     1      47.439   2.872  19.388  0.00  0.00    +0.000 HD
ATOM     23  H   UNL     1      48.856   2.929  20.373  0.00  0.00    +0.000 HD
ENDBRANCH   9  10
BRANCH   5   4
ATOM      4  C   UNL     1      45.771   4.552  13.184  0.00  0.00    +0.000 C 
BRANCH   4   2
ATOM      1  C   UNL     1      43.399   5.268  12.691  0.00  0.00    +0.000 C 
ATOM      2  C   UNL     1      44.831   5.179  12.109  0.00  0.00    +0.000 C 
ATOM      3  C   UNL     1      45.304   6.637  11.878  0.00  0.00    +0.000 C 
BRANCH   2  15
ATOM     15  C   UNL     1      44.884   4.419  10.766  0.00  0.00    +0.000 A 
ATOM     16  C   UNL     1      45.422   4.999   9.601  0.00  0.00    +0.000 A 
ATOM     17  C   UNL     1      45.539   4.274   8.411  0.00  0.00    +0.000 A 
ATOM     18  C   UNL     1      45.110   2.955   8.352  0.00  0.00    +0.000 A 
ATOM     19  C   UNL     1      44.545   2.366   9.479  0.00  0.00    +0.000 A 
ATOM     20  C   UNL     1      44.430   3.091  10.671  0.00  0.00    +0.000 A 
ENDBRANCH   2  15
ENDBRANCH   4   2
ENDBRANCH   5   4
TORSDOF 4
ENDMDL
MODEL 4
REMARK VINA RESULT:    -6.455      3.794      6.405
REMARK INTER + INTRA:          -8.630
REMARK INTER:                  -7.958
REMARK INTRA:                  -0.672
REMARK UNBOUND:                -0.666
REMARK  Name = 
REMARK  6 active torsions:
REMARK  status: ('A' for Active; 'I' for Inactive)
REMARK    1  A    between atoms: C_1  and  C_2
REMARK    2  A    between atoms: C_2  and  C_3
REMARK    3  A    between atoms: C_2  and  C_4
REMARK    4  A    between atoms: C_2  and  C_15
REMARK    5  A    between atoms: C_4  and  N_5
REMARK    6  A    between atoms: C_9  and  C_10
REMARK                            x       y       z     vdW  Elec       q    Type
REMARK                         _______ _______ _______ _____ _____    ______ ____
ROOT
ATOM      5  N   UNL     1      44.866   6.049  12.818  0.00  0.00    +0.000 N 
ATOM      6  C   UNL     1      45.899   6.960  12.536  0.00  0.00    +0.000 A 
ATOM      7  C   UNL     1      45.706   8.302  12.848  0.00  0.00    +0.000 A 
ATOM      8  C   UNL     1      46.723   9.228  12.588  0.00  0.00    +0.000 A 
ATOM      9  C   UNL     1      47.922   8.796  12.015  0.00  0.00    +0.000 A 
ATOM     13  C   UNL     1      48.015   7.450  11.711  0.00  0.00    +0.000 A 
ATOM     14  N   UNL     1      47.040   6.538  11.950  0.00  0.00    +0.000 NA
ATOM     21  H   UNL     1      44.618   6.127  13.803  0.00  0.00    +0.000 HD
ENDROOT
BRANCH   9  10
ATOM     10  C   UNL     1      49.007   9.771  11.775  0.00  0.00    +0.000 C 
ATOM     11  N   UNL     1      50.183   9.638  12.463  0.00  0.00    +0.000 N 
ATOM     12  O   UNL     1      48.865  10.697  10.983  0.00  0.00    +0.000 OA
ATOM     22  H   UNL     1      50.405   8.931  13.143  0.00  0.00    +0.000 HD
ATOM     23  H   UNL     1      50.893  10.342  12.276  0.00  0.00    +0.000 HD
ENDBRANCH   9  10
BRANCH   5   4
ATOM      4  C   UNL     1      45.187   4.664  12.453  0.00  0.00    +0.000 C 
BRANCH   4   2
ATOM      1  C   UNL     1      43.463   2.853  12.098  0.00  0.00    +0.000 C 
ATOM      2  C   UNL     1      44.167   4.062  11.438  0.00  0.00    +0.000 C 
ATOM      3  C   UNL     1      43.072   5.133  11.197  0.00  0.00    +0.000 C 
BRANCH   2  15
ATOM     15  C   UNL     1      44.824   3.708  10.086  0.00  0.00    +0.000 A 
ATOM     16  C   UNL     1      45.341   4.695   9.226  0.00  0.00    +0.000 A 
ATOM     17  C   UNL     1      46.004   4.358   8.041  0.00  0.00    +0.000 A 
ATOM     18  C   UNL     1      46.158   3.026   7.683  0.00  0.00    +0.000 A 
ATOM     19  C   UNL     1      45.629   2.030   8.498  0.00  0.00    +0.000 A 
ATOM     20  C   UNL     1      44.966   2.367   9.684  0.00  0.00    +0.000 A 
ENDBRANCH   2  15
ENDBRANCH   4   2
ENDBRANCH   5   4
TORSDOF 4
ENDMDL
MODEL 5
REMARK VINA RESULT:    -6.156      2.985      7.746
REMARK INTER + INTRA:          -8.261
REMARK INTER:                  -7.679
REMARK INTRA:                  -0.583
REMARK UNBOUND:                -0.666
REMARK  Name = 
REMARK  6 active torsions:
REMARK  status: ('A' for Active; 'I' for Inactive)
REMARK    1  A    between atoms: C_1  and  C_2
REMARK    2  A    between atoms: C_2  and  C_3
REMARK    3  A    between atoms: C_2  and  C_4
REMARK    4  A    between atoms: C_2  and  C_15
REMARK    5  A    between atoms: C_4  and  N_5
REMARK    6  A    between atoms: C_9  and  C_10
REMARK                            x       y       z     vdW  Elec       q    Type
REMARK                         _______ _______ _______ _____ _____    ______ ____
ROOT
ATOM      5  N   UNL     1      46.184   4.041   7.475  0.00  0.00    +0.000 N 
ATOM      6  C   UNL     1      45.526   4.136   8.714  0.00  0.00    +0.000 A 
ATOM      7  C   UNL     1      45.827   5.211   9.545  0.00  0.00    +0.000 A 
ATOM      8  C   UNL     1      45.179   5.337  10.779  0.00  0.00    +0.000 A 
ATOM      9  C   UNL     1      44.237   4.380  11.166  0.00  0.00    +0.000 A 
ATOM     13  C   UNL     1      44.021   3.331  10.291  0.00  0.00    +0.000 A 
ATOM     14  N   UNL     1      44.643   3.188   9.094  0.00  0.00    +0.000 NA
ATOM     21  H   UNL     1      46.042   4.907   6.959  0.00  0.00    +0.000 HD
ENDROOT
BRANCH   9  10
ATOM     10  C   UNL     1      43.527   4.536  12.454  0.00  0.00    +0.000 C 
ATOM     11  N   UNL     1      42.827   5.687  12.691  0.00  0.00    +0.000 N 
ATOM     12  O   UNL     1      43.566   3.658  13.310  0.00  0.00    +0.000 OA
ATOM     22  H   UNL     1      42.738   6.475  12.073  0.00  0.00    +0.000 HD
ATOM     23  H   UNL     1      42.370   5.754  13.598  0.00  0.00    +0.000 HD
ENDBRANCH   9  10
BRANCH   5   4
ATOM      4  C   UNL     1      45.780   2.872   6.684  0.00  0.00    +0.000 C 
BRANCH   4   2
ATOM      1  C   UNL     1      48.291   2.674   6.499  0.00  0.00    +0.000 C 
ATOM      2  C   UNL     1      46.961   1.887   6.429  0.00  0.00    +0.000 C 
ATOM      3  C   UNL     1      46.981   0.879   7.607  0.00  0.00    +0.000 C 
BRANCH   2  15
ATOM     15  C   UNL     1      46.797   1.104   5.108  0.00  0.00    +0.000 A 
ATOM     16  C   UNL     1      47.173  -0.248   4.989  0.00  0.00    +0.000 A 
ATOM     17  C   UNL     1      46.948  -0.969   3.812  0.00  0.00    +0.000 A 
ATOM     18  C   UNL     1      46.351  -0.353   2.721  0.00  0.00    +0.000 A 
ATOM     19  C   UNL     1      45.998   0.991   2.798  0.00  0.00    +0.000 A 
ATOM     20  C   UNL     1      46.222   1.712   3.977  0.00  0.00    +0.000 A 
ENDBRANCH   2  15
ENDBRANCH   4   2
ENDBRANCH   5   4
TORSDOF 4
ENDMDL
MODEL 6
REMARK VINA RESULT:    -5.712      5.306      8.316
REMARK INTER + INTRA:          -7.713
REMARK INTER:                  -7.366
REMARK INTRA:                  -0.347
REMARK UNBOUND:                -0.666
REMARK  Name = 
REMARK  6 active torsions:
REMARK  status: ('A' for Active; 'I' for Inactive)
REMARK    1  A    between atoms: C_1  and  C_2
REMARK    2  A    between atoms: C_2  and  C_3
REMARK    3  A    between atoms: C_2  and  C_4
REMARK    4  A    between atoms: C_2  and  C_15
REMARK    5  A    between atoms: C_4  and  N_5
REMARK    6  A    between atoms: C_9  and  C_10
REMARK                            x       y       z     vdW  Elec       q    Type
REMARK                         _______ _______ _______ _____ _____    ______ ____
ROOT
ATOM      5  N   UNL     1      46.875   5.019  14.334  0.00  0.00    +0.000 N 
ATOM      6  C   UNL     1      47.496   4.888  15.589  0.00  0.00    +0.000 A 
ATOM      7  C   UNL     1      47.033   3.907  16.460  0.00  0.00    +0.000 A 
ATOM      8  C   UNL     1      47.641   3.748  17.711  0.00  0.00    +0.000 A 
ATOM      9  C   UNL     1      48.706   4.576  18.073  0.00  0.00    +0.000 A 
ATOM     13  C   UNL     1      49.082   5.541  17.156  0.00  0.00    +0.000 A 
ATOM     14  N   UNL     1      48.502   5.716  15.942  0.00  0.00    +0.000 NA
ATOM     21  H   UNL     1      46.896   4.118  13.860  0.00  0.00    +0.000 HD
ENDROOT
BRANCH   9  10
ATOM     10  C   UNL     1      49.370   4.380  19.380  0.00  0.00    +0.000 C 
ATOM     11  N   UNL     1      48.646   3.865  20.421  0.00  0.00    +0.000 N 
ATOM     12  O   UNL     1      50.548   4.681  19.546  0.00  0.00    +0.000 OA
ATOM     22  H   UNL     1      47.677   3.597  20.405  0.00  0.00    +0.000 HD
ATOM     23  H   UNL     1      49.141   3.765  21.304  0.00  0.00    +0.000 HD
ENDBRANCH   9  10
BRANCH   5   4
ATOM      4  C   UNL     1      47.454   6.079  13.500  0.00  0.00    +0.000 C 
BRANCH   4   2
ATOM      1  C   UNL     1      45.942   8.043  13.013  0.00  0.00    +0.000 C 
ATOM      2  C   UNL     1      46.426   6.670  12.487  0.00  0.00    +0.000 C 
ATOM      3  C   UNL     1      47.189   6.947  11.166  0.00  0.00    +0.000 C 
BRANCH   2  15
ATOM     15  C   UNL     1      45.263   5.697  12.195  0.00  0.00    +0.000 A 
ATOM     16  C   UNL     1      44.064   5.724  12.934  0.00  0.00    +0.000 A 
ATOM     17  C   UNL     1      42.987   4.892  12.610  0.00  0.00    +0.000 A 
ATOM     18  C   UNL     1      43.086   4.005  11.548  0.00  0.00    +0.000 A 
ATOM     19  C   UNL     1      44.271   3.933  10.821  0.00  0.00    +0.000 A 
ATOM     20  C   UNL     1      45.348   4.767  11.143  0.00  0.00    +0.000 A 
ENDBRANCH   2  15
ENDBRANCH   4   2
ENDBRANCH   5   4
TORSDOF 4
ENDMDL
MODEL 7
REMARK VINA RESULT:    -5.550      4.096      6.518
REMARK INTER + INTRA:          -7.514
REMARK INTER:                  -6.788
REMARK INTRA:                  -0.726
REMARK UNBOUND:                -0.666
REMARK  Name = 
REMARK  6 active torsions:
REMARK  status: ('A' for Active; 'I' for Inactive)
REMARK    1  A    between atoms: C_1  and  C_2
REMARK    2  A    between atoms: C_2  and  C_3
REMARK    3  A    between atoms: C_2  and  C_4
REMARK    4  A    between atoms: C_2  and  C_15
REMARK    5  A    between atoms: C_4  and  N_5
REMARK    6  A    between atoms: C_9  and  C_10
REMARK                            x       y       z     vdW  Elec       q    Type
REMARK                         _______ _______ _______ _____ _____    ______ ____
ROOT
ATOM      5  N   UNL     1      48.329   6.655  12.869  0.00  0.00    +0.000 N 
ATOM      6  C   UNL     1      47.071   6.126  12.530  0.00  0.00    +0.000 A 
ATOM      7  C   UNL     1      46.470   5.228  13.407  0.00  0.00    +0.000 A 
ATOM      8  C   UNL     1      45.213   4.696  13.100  0.00  0.00    +0.000 A 
ATOM      9  C   UNL     1      44.573   5.070  11.915  0.00  0.00    +0.000 A 
ATOM     13  C   UNL     1      45.256   5.946  11.091  0.00  0.00    +0.000 A 
ATOM     14  N   UNL     1      46.477   6.468  11.367  0.00  0.00    +0.000 NA
ATOM     21  H   UNL     1      48.270   7.082  13.791  0.00  0.00    +0.000 HD
ENDROOT
BRANCH   9  10
ATOM     10  C   UNL     1      43.229   4.534  11.612  0.00  0.00    +0.000 C 
ATOM     11  N   UNL     1      42.134   5.325  11.831  0.00  0.00    +0.000 N 
ATOM     12  O   UNL     1      43.082   3.394  11.181  0.00  0.00    +0.000 OA
ATOM     22  H   UNL     1      42.132   6.263  12.192  0.00  0.00    +0.000 HD
ATOM     23  H   UNL     1      41.231   4.906  11.623  0.00  0.00    +0.000 HD
ENDBRANCH   9  10
BRANCH   5   4
ATOM      4  C   UNL     1      48.858   7.596  11.874  0.00  0.00    +0.000 C 
BRANCH   4   2
ATOM      1  C   UNL     1      48.909   8.975  13.989  0.00  0.00    +0.000 C 
ATOM      2  C   UNL     1      49.039   9.034  12.448  0.00  0.00    +0.000 C 
ATOM      3  C   UNL     1      50.496   9.471  12.145  0.00  0.00    +0.000 C 
BRANCH   2  15
ATOM     15  C   UNL     1      48.070  10.049  11.805  0.00  0.00    +0.000 A 
ATOM     16  C   UNL     1      48.515  11.040  10.907  0.00  0.00    +0.000 A 
ATOM     17  C   UNL     1      47.618  11.903  10.269  0.00  0.00    +0.000 A 
ATOM     18  C   UNL     1      46.256  11.805  10.520  0.00  0.00    +0.000 A 
ATOM     19  C   UNL     1      45.792  10.858  11.427  0.00  0.00    +0.000 A 
ATOM     20  C   UNL     1      46.689   9.992  12.065  0.00  0.00    +0.000 A 
ENDBRANCH   2  15
ENDBRANCH   4   2
ENDBRANCH   5   4
TORSDOF 4
ENDMDL
MODEL 8
REMARK VINA RESULT:    -5.519      5.539      8.744
REMARK INTER + INTRA:          -7.475
REMARK INTER:                  -6.992
REMARK INTRA:                  -0.483
REMARK UNBOUND:                -0.666
REMARK  Name = 
REMARK  6 active torsions:
REMARK  status: ('A' for Active; 'I' for Inactive)
REMARK    1  A    between atoms: C_1  and  C_2
REMARK    2  A    between atoms: C_2  and  C_3
REMARK    3  A    between atoms: C_2  and  C_4
REMARK    4  A    between atoms: C_2  and  C_15
REMARK    5  A    between atoms: C_4  and  N_5
REMARK    6  A    between atoms: C_9  and  C_10
REMARK                            x       y       z     vdW  Elec       q    Type
REMARK                         _______ _______ _______ _____ _____    ______ ____
ROOT
ATOM      5  N   UNL     1      48.136   6.870  14.599  0.00  0.00    +0.000 N 
ATOM      6  C   UNL     1      48.465   6.276  15.831  0.00  0.00    +0.000 A 
ATOM      7  C   UNL     1      49.060   7.065  16.810  0.00  0.00    +0.000 A 
ATOM      8  C   UNL     1      49.387   6.502  18.049  0.00  0.00    +0.000 A 
ATOM      9  C   UNL     1      49.114   5.153  18.290  0.00  0.00    +0.000 A 
ATOM     13  C   UNL     1      48.547   4.439  17.250  0.00  0.00    +0.000 A 
ATOM     14  N   UNL     1      48.228   4.964  16.041  0.00  0.00    +0.000 NA
ATOM     21  H   UNL     1      47.549   7.683  14.771  0.00  0.00    +0.000 HD
ENDROOT
BRANCH   9  10
ATOM     10  C   UNL     1      49.427   4.571  19.613  0.00  0.00    +0.000 C 
ATOM     11  N   UNL     1      48.560   3.667  20.163  0.00  0.00    +0.000 N 
ATOM     12  O   UNL     1      50.440   4.894  20.225  0.00  0.00    +0.000 OA
ATOM     22  H   UNL     1      47.697   3.340  19.761  0.00  0.00    +0.000 HD
ATOM     23  H   UNL     1      48.810   3.307  21.081  0.00  0.00    +0.000 HD
ENDBRANCH   9  10
BRANCH   5   4
ATOM      4  C   UNL     1      47.508   5.944  13.650  0.00  0.00    +0.000 C 
BRANCH   4   2
ATOM      1  C   UNL     1      46.179   8.041  13.183  0.00  0.00    +0.000 C 
ATOM      2  C   UNL     1      46.620   6.677  12.598  0.00  0.00    +0.000 C 
ATOM      3  C   UNL     1      47.520   6.992  11.376  0.00  0.00    +0.000 C 
BRANCH   2  15
ATOM     15  C   UNL     1      45.429   5.813  12.131  0.00  0.00    +0.000 A 
ATOM     16  C   UNL     1      44.368   5.475  12.994  0.00  0.00    +0.000 A 
ATOM     17  C   UNL     1      43.256   4.759  12.539  0.00  0.00    +0.000 A 
ATOM     18  C   UNL     1      43.181   4.354  11.214  0.00  0.00    +0.000 A 
ATOM     19  C   UNL     1      44.230   4.646  10.347  0.00  0.00    +0.000 A 
ATOM     20  C   UNL     1      45.342   5.364  10.801  0.00  0.00    +0.000 A 
ENDBRANCH   2  15
ENDBRANCH   4   2
ENDBRANCH   5   4
TORSDOF 4
ENDMDL
MODEL 9
REMARK VINA RESULT:    -5.477      4.487      6.898
REMARK INTER + INTRA:          -7.423
REMARK INTER:                  -6.920
REMARK INTRA:                  -0.504
REMARK UNBOUND:                -0.666
REMARK  Name = 
REMARK  6 active torsions:
REMARK  status: ('A' for Active; 'I' for Inactive)
REMARK    1  A    between atoms: C_1  and  C_2
REMARK    2  A    between atoms: C_2  and  C_3
REMARK    3  A    between atoms: C_2  and  C_4
REMARK    4  A    between atoms: C_2  and  C_15
REMARK    5  A    between atoms: C_4  and  N_5
REMARK    6  A    between atoms: C_9  and  C_10
REMARK                            x       y       z     vdW  Elec       q    Type
REMARK                         _______ _______ _______ _____ _____    ______ ____
ROOT
ATOM      5  N   UNL     1      47.529   5.775  15.070  0.00  0.00    +0.000 N 
ATOM      6  C   UNL     1      46.812   5.239  13.986  0.00  0.00    +0.000 A 
ATOM      7  C   UNL     1      46.515   6.069  12.909  0.00  0.00    +0.000 A 
ATOM      8  C   UNL     1      45.813   5.558  11.812  0.00  0.00    +0.000 A 
ATOM      9  C   UNL     1      45.414   4.218  11.809  0.00  0.00    +0.000 A 
ATOM     13  C   UNL     1      45.727   3.475  12.932  0.00  0.00    +0.000 A 
ATOM     14  N   UNL     1      46.401   3.952  14.007  0.00  0.00    +0.000 NA
ATOM     21  H   UNL     1      48.393   6.187  14.722  0.00  0.00    +0.000 HD
ENDROOT
BRANCH   9  10
ATOM     10  C   UNL     1      44.704   3.672  10.632  0.00  0.00    +0.000 C 
ATOM     11  N   UNL     1      44.178   2.411  10.700  0.00  0.00    +0.000 N 
ATOM     12  O   UNL     1      44.591   4.326   9.599  0.00  0.00    +0.000 OA
ATOM     22  H   UNL     1      44.222   1.783  11.485  0.00  0.00    +0.000 HD
ATOM     23  H   UNL     1      43.714   2.074   9.861  0.00  0.00    +0.000 HD
ENDBRANCH   9  10
BRANCH   5   4
ATOM      4  C   UNL     1      47.789   4.804  16.139  0.00  0.00    +0.000 C 
BRANCH   4   2
ATOM      1  C   UNL     1      49.804   4.004  17.435  0.00  0.00    +0.000 C 
ATOM      2  C   UNL     1      48.954   5.247  17.077  0.00  0.00    +0.000 C 
ATOM      3  C   UNL     1      49.872   6.189  16.257  0.00  0.00    +0.000 C 
BRANCH   2  15
ATOM     15  C   UNL     1      48.448   6.005  18.324  0.00  0.00    +0.000 A 
ATOM     16  C   UNL     1      48.239   7.398  18.317  0.00  0.00    +0.000 A 
ATOM     17  C   UNL     1      47.705   8.063  19.426  0.00  0.00    +0.000 A 
ATOM     18  C   UNL     1      47.377   7.353  20.573  0.00  0.00    +0.000 A 
ATOM     19  C   UNL     1      47.603   5.981  20.620  0.00  0.00    +0.000 A 
ATOM     20  C   UNL     1      48.135   5.315  19.510  0.00  0.00    +0.000 A 
ENDBRANCH   2  15
ENDBRANCH   4   2
ENDBRANCH   5   4
TORSDOF 4
ENDMDL
