MODEL 1
REMARK VINA RESULT:    -6.840      0.000      0.000
REMARK INTER + INTRA:          -7.595
REMARK INTER:                  -7.639
REMARK INTRA:                   0.044
REMARK UNBOUND:                 0.044
REMARK  Name = 
REMARK  2 active torsions:
REMARK  status: ('A' for Active; 'I' for Inactive)
REMARK    1  A    between atoms: C_2  and  C_4
REMARK    2  A    between atoms: N_8  and  C_9
REMARK                            x       y       z     vdW  Elec       q    Type
REMARK                         _______ _______ _______ _____ _____    ______ ____
ROOT
ATOM      4  C   UNL     1      44.159   4.473  11.457  0.00  0.00    +0.000 A 
ATOM      5  C   UNL     1      45.091   5.434  11.087  0.00  0.00    +0.000 A 
ATOM      6  C   UNL     1      45.684   5.344   9.829  0.00  0.00    +0.000 A 
ATOM      7  C   UNL     1      45.369   4.284   8.978  0.00  0.00    +0.000 A 
ATOM      8  N   UNL     1      46.011   4.258   7.745  0.00  0.00    +0.000 N 
ATOM     14  N   UNL     1      44.499   3.322   9.341  0.00  0.00    +0.000 NA
ATOM     15  C   UNL     1      43.909   3.439  10.566  0.00  0.00    +0.000 A 
ATOM     18  H   UNL     1      45.795   5.098   7.219  0.00  0.00    +0.000 HD
ENDROOT
BRANCH   4   2
ATOM      1  N   UNL     1      42.717   5.622  13.046  0.00  0.00    +0.000 N 
ATOM      2  C   UNL     1      43.449   4.503  12.755  0.00  0.00    +0.000 C 
ATOM      3  O   UNL     1      43.483   3.556  13.527  0.00  0.00    +0.000 OA
ATOM     16  H   UNL     1      42.165   5.591  13.892  0.00  0.00    +0.000 HD
ATOM     17  H   UNL     1      42.472   6.316  12.355  0.00  0.00    +0.000 HD
ENDBRANCH   4   2
BRANCH   8   9
ATOM      9  C   UNL     1      46.006   3.046   6.939  0.00  0.00    +0.000 C 
ATOM     10  C   UNL     1      46.788   1.980   7.717  0.00  0.00    +0.000 C 
ATOM     11  C   UNL     1      47.479   1.097   6.691  0.00  0.00    +0.000 C 
ATOM     12  C   UNL     1      47.293   1.772   5.339  0.00  0.00    +0.000 C 
ATOM     13  C   UNL     1      46.770   3.175   5.626  0.00  0.00    +0.000 C 
ENDBRANCH   8   9
TORSDOF 2
ENDMDL
MODEL 2
REMARK VINA RESULT:    -6.666      2.862      6.420
REMARK INTER + INTRA:          -7.401
REMARK INTER:                  -7.280
REMARK INTRA:                  -0.122
REMARK UNBOUND:                 0.044
REMARK  Name = 
REMARK  2 active torsions:
REMARK  status: ('A' for Active; 'I' for Inactive)
REMARK    1  A    between atoms: C_2  and  C_4
REMARK    2  A    between atoms: N_8  and  C_9
REMARK                            x       y       z     vdW  Elec       q    Type
REMARK                         _______ _______ _______ _____ _____    ______ ____
ROOT
ATOM      4  C   UNL     1      46.619   2.568   7.133  0.00  0.00    +0.000 A 
ATOM      5  C   UNL     1      46.182   1.501   7.907  0.00  0.00    +0.000 A 
ATOM      6  C   UNL     1      45.313   1.753   8.967  0.00  0.00    +0.000 A 
ATOM      7  C   UNL     1      44.923   3.061   9.260  0.00  0.00    +0.000 A 
ATOM      8  N   UNL     1      44.063   3.231  10.340  0.00  0.00    +0.000 N 
ATOM     14  N   UNL     1      45.373   4.108   8.545  0.00  0.00    +0.000 NA
ATOM     15  C   UNL     1      46.204   3.841   7.495  0.00  0.00    +0.000 A 
ATOM     18  H   UNL     1      43.199   2.722  10.184  0.00  0.00    +0.000 HD
ENDROOT
BRANCH   4   2
ATOM      1  N   UNL     1      48.861   2.438   6.196  0.00  0.00    +0.000 N 
ATOM      2  C   UNL     1      47.513   2.398   5.966  0.00  0.00    +0.000 C 
ATOM      3  O   UNL     1      47.072   2.198   4.844  0.00  0.00    +0.000 OA
ATOM     16  H   UNL     1      49.458   2.230   5.408  0.00  0.00    +0.000 HD
ATOM     17  H   UNL     1      49.266   2.367   7.118  0.00  0.00    +0.000 HD
ENDBRANCH   4   2
BRANCH   8   9
ATOM      9  C   UNL     1      43.867   4.551  10.922  0.00  0.00    +0.000 C 
ATOM     10  C   UNL     1      45.101   4.854  11.783  0.00  0.00    +0.000 C 
ATOM     11  C   UNL     1      44.629   5.704  12.952  0.00  0.00    +0.000 C 
ATOM     12  C   UNL     1      43.108   5.706  12.904  0.00  0.00    +0.000 C 
ATOM     13  C   UNL     1      42.706   4.624  11.907  0.00  0.00    +0.000 C 
ENDBRANCH   8   9
TORSDOF 2
ENDMDL
MODEL 3
REMARK VINA RESULT:    -5.971      4.384      7.192
REMARK INTER + INTRA:          -6.625
REMARK INTER:                  -6.491
REMARK INTRA:                  -0.135
REMARK UNBOUND:                 0.044
REMARK  Name = 
REMARK  2 active torsions:
REMARK  status: ('A' for Active; 'I' for Inactive)
REMARK    1  A    between atoms: C_2  and  C_4
REMARK    2  A    between atoms: N_8  and  C_9
REMARK                            x       y       z     vdW  Elec       q    Type
REMARK                         _______ _______ _______ _____ _____    ______ ____
ROOT
ATOM      4  C   UNL     1      45.262   4.574  11.558  0.00  0.00    +0.000 A 
ATOM      5  C   UNL     1      45.864   5.793  11.838  0.00  0.00    +0.000 A 
ATOM      6  C   UNL     1      46.564   5.936  13.035  0.00  0.00    +0.000 A 
ATOM      7  C   UNL     1      46.623   4.880  13.945  0.00  0.00    +0.000 A 
ATOM      8  N   UNL     1      47.331   5.105  15.121  0.00  0.00    +0.000 N 
ATOM     14  N   UNL     1      46.007   3.707  13.706  0.00  0.00    +0.000 NA
ATOM     15  C   UNL     1      45.347   3.576  12.519  0.00  0.00    +0.000 A 
ATOM     18  H   UNL     1      48.298   5.332  14.911  0.00  0.00    +0.000 HD
ENDROOT
BRANCH   4   2
ATOM      1  N   UNL     1      44.980   4.933   9.168  0.00  0.00    +0.000 N 
ATOM      2  C   UNL     1      44.528   4.312  10.301  0.00  0.00    +0.000 C 
ATOM      3  O   UNL     1      43.575   3.549  10.260  0.00  0.00    +0.000 OA
ATOM     16  H   UNL     1      44.527   4.675   8.302  0.00  0.00    +0.000 HD
ATOM     17  H   UNL     1      45.884   5.378   9.106  0.00  0.00    +0.000 HD
ENDBRANCH   4   2
BRANCH   8   9
ATOM      9  C   UNL     1      47.175   4.207  16.256  0.00  0.00    +0.000 C 
ATOM     10  C   UNL     1      47.579   4.989  17.512  0.00  0.00    +0.000 C 
ATOM     11  C   UNL     1      48.199   3.992  18.477  0.00  0.00    +0.000 C 
ATOM     12  C   UNL     1      48.368   2.688  17.709  0.00  0.00    +0.000 C 
ATOM     13  C   UNL     1      48.133   3.021  16.239  0.00  0.00    +0.000 C 
ENDBRANCH   8   9
TORSDOF 2
ENDMDL
MODEL 4
REMARK VINA RESULT:    -5.646      3.646      5.896
REMARK INTER + INTRA:          -6.263
REMARK INTER:                  -6.027
REMARK INTRA:                  -0.236
REMARK UNBOUND:                 0.044
REMARK  Name = 
REMARK  2 active torsions:
REMARK  status: ('A' for Active; 'I' for Inactive)
REMARK    1  A    between atoms: C_2  and  C_4
REMARK    2  A    between atoms: N_8  and  C_9
REMARK                            x       y       z     vdW  Elec       q    Type
REMARK                         _______ _______ _______ _____ _____    ______ ____
ROOT
ATOM      4  C   UNL     1      44.949   3.948  11.419  0.00  0.00    +0.000 A 
ATOM      5  C   UNL     1      45.536   3.892  12.677  0.00  0.00    +0.000 A 
ATOM      6  C   UNL     1      46.352   4.947  13.083  0.00  0.00    +0.000 A 
ATOM      7  C   UNL     1      46.599   6.017  12.222  0.00  0.00    +0.000 A 
ATOM      8  N   UNL     1      47.432   7.024  12.697  0.00  0.00    +0.000 N 
ATOM     14  N   UNL     1      46.071   6.063  10.985  0.00  0.00    +0.000 NA
ATOM     15  C   UNL     1      45.255   5.035  10.611  0.00  0.00    +0.000 A 
ATOM     18  H   UNL     1      47.039   7.439  13.535  0.00  0.00    +0.000 HD
ENDROOT
BRANCH   4   2
ATOM      1  N   UNL     1      44.469   2.157   9.844  0.00  0.00    +0.000 N 
ATOM      2  C   UNL     1      44.040   2.897  10.912  0.00  0.00    +0.000 C 
ATOM      3  O   UNL     1      42.962   2.671  11.440  0.00  0.00    +0.000 OA
ATOM     16  H   UNL     1      43.880   1.384   9.566  0.00  0.00    +0.000 HD
ATOM     17  H   UNL     1      45.428   2.148   9.528  0.00  0.00    +0.000 HD
ENDBRANCH   4   2
BRANCH   8   9
ATOM      9  C   UNL     1      48.008   7.996  11.778  0.00  0.00    +0.000 C 
ATOM     10  C   UNL     1      49.520   7.739  11.736  0.00  0.00    +0.000 C 
ATOM     11  C   UNL     1      50.193   9.084  11.518  0.00  0.00    +0.000 C 
ATOM     12  C   UNL     1      49.109  10.144  11.662  0.00  0.00    +0.000 C 
ATOM     13  C   UNL     1      47.894   9.438  12.256  0.00  0.00    +0.000 C 
ENDBRANCH   8   9
TORSDOF 2
ENDMDL
MODEL 5
REMARK VINA RESULT:    -5.279      9.247     11.703
REMARK INTER + INTRA:          -5.852
REMARK INTER:                  -5.617
REMARK INTRA:                  -0.236
REMARK UNBOUND:                 0.044
REMARK  Name = 
REMARK  2 active torsions:
REMARK  status: ('A' for Active; 'I' for Inactive)
REMARK    1  A    between atoms: C_2  and  C_4
REMARK    2  A    between atoms: N_8  and  C_9
REMARK                            x       y       z     vdW  Elec       q    Type
REMARK                         _______ _______ _______ _____ _____    ______ ____
ROOT
ATOM      4  C   UNL     1      49.300   3.292  17.468  0.00  0.00    +0.000 A 
ATOM      5  C   UNL     1      47.924   3.366  17.293  0.00  0.00    +0.000 A 
ATOM      6  C   UNL     1      47.254   4.509  17.724  0.00  0.00    +0.000 A 
ATOM      7  C   UNL     1      47.955   5.539  18.353  0.00  0.00    +0.000 A 
ATOM      8  N   UNL     1      47.213   6.642  18.764  0.00  0.00    +0.000 N 
ATOM     14  N   UNL     1      49.281   5.462  18.567  0.00  0.00    +0.000 NA
ATOM     15  C   UNL     1      49.926   4.347  18.117  0.00  0.00    +0.000 A 
ATOM     18  H   UNL     1      46.756   7.074  17.968  0.00  0.00    +0.000 HD
ENDROOT
BRANCH   4   2
ATOM      1  N   UNL     1      51.117   1.714  17.830  0.00  0.00    +0.000 N 
ATOM      2  C   UNL     1      50.105   2.138  17.012  0.00  0.00    +0.000 C 
ATOM      3  O   UNL     1      49.863   1.560  15.962  0.00  0.00    +0.000 OA
ATOM     16  H   UNL     1      51.598   0.870  17.551  0.00  0.00    +0.000 HD
ATOM     17  H   UNL     1      51.205   2.002  18.793  0.00  0.00    +0.000 HD
ENDBRANCH   4   2
BRANCH   8   9
ATOM      9  C   UNL     1      47.778   7.598  19.705  0.00  0.00    +0.000 C 
ATOM     10  C   UNL     1      47.390   7.131  21.114  0.00  0.00    +0.000 C 
ATOM     11  C   UNL     1      47.216   8.380  21.963  0.00  0.00    +0.000 C 
ATOM     12  C   UNL     1      47.273   9.567  21.012  0.00  0.00    +0.000 C 
ATOM     13  C   UNL     1      47.174   8.994  19.602  0.00  0.00    +0.000 C 
ENDBRANCH   8   9
TORSDOF 2
ENDMDL
MODEL 6
REMARK VINA RESULT:    -5.274      4.520      5.872
REMARK INTER + INTRA:          -5.847
REMARK INTER:                  -5.623
REMARK INTRA:                  -0.224
REMARK UNBOUND:                 0.044
REMARK  Name = 
REMARK  2 active torsions:
REMARK  status: ('A' for Active; 'I' for Inactive)
REMARK    1  A    between atoms: C_2  and  C_4
REMARK    2  A    between atoms: N_8  and  C_9
REMARK                            x       y       z     vdW  Elec       q    Type
REMARK                         _______ _______ _______ _____ _____    ______ ____
ROOT
ATOM      4  C   UNL     1      44.398   5.469  11.930  0.00  0.00    +0.000 A 
ATOM      5  C   UNL     1      45.277   4.842  12.803  0.00  0.00    +0.000 A 
ATOM      6  C   UNL     1      46.543   5.395  12.992  0.00  0.00    +0.000 A 
ATOM      7  C   UNL     1      46.924   6.536  12.285  0.00  0.00    +0.000 A 
ATOM      8  N   UNL     1      48.207   7.019  12.520  0.00  0.00    +0.000 N 
ATOM     14  N   UNL     1      46.097   7.128  11.403  0.00  0.00    +0.000 NA
ATOM     15  C   UNL     1      44.853   6.589  11.248  0.00  0.00    +0.000 A 
ATOM     18  H   UNL     1      48.317   7.261  13.499  0.00  0.00    +0.000 HD
ENDROOT
BRANCH   4   2
ATOM      1  N   UNL     1      42.003   5.885  11.817  0.00  0.00    +0.000 N 
ATOM      2  C   UNL     1      43.022   4.981  11.690  0.00  0.00    +0.000 C 
ATOM      3  O   UNL     1      42.800   3.825  11.360  0.00  0.00    +0.000 OA
ATOM     16  H   UNL     1      41.080   5.562  11.562  0.00  0.00    +0.000 HD
ATOM     17  H   UNL     1      42.152   6.883  11.856  0.00  0.00    +0.000 HD
ENDBRANCH   4   2
BRANCH   8   9
ATOM      9  C   UNL     1      48.807   7.983  11.609  0.00  0.00    +0.000 C 
ATOM     10  C   UNL     1      50.289   7.610  11.467  0.00  0.00    +0.000 C 
ATOM     11  C   UNL     1      51.056   8.907  11.264  0.00  0.00    +0.000 C 
ATOM     12  C   UNL     1      50.071  10.041  11.515  0.00  0.00    +0.000 C 
ATOM     13  C   UNL     1      48.838   9.407  12.151  0.00  0.00    +0.000 C 
ENDBRANCH   8   9
TORSDOF 2
ENDMDL
MODEL 7
REMARK VINA RESULT:    -5.200      5.989      7.639
REMARK INTER + INTRA:          -5.764
REMARK INTER:                  -5.651
REMARK INTRA:                  -0.113
REMARK UNBOUND:                 0.044
REMARK  Name = 
REMARK  2 active torsions:
REMARK  status: ('A' for Active; 'I' for Inactive)
REMARK    1  A    between atoms: C_2  and  C_4
REMARK    2  A    between atoms: N_8  and  C_9
REMARK                            x       y       z     vdW  Elec       q    Type
REMARK                         _______ _______ _______ _____ _____    ______ ____
ROOT
ATOM      4  C   UNL     1      48.642   4.037  18.009  0.00  0.00    +0.000 A 
ATOM      5  C   UNL     1      48.671   2.790  17.400  0.00  0.00    +0.000 A 
ATOM      6  C   UNL     1      48.144   2.658  16.115  0.00  0.00    +0.000 A 
ATOM      7  C   UNL     1      47.568   3.757  15.476  0.00  0.00    +0.000 A 
ATOM      8  N   UNL     1      47.055   3.542  14.201  0.00  0.00    +0.000 N 
ATOM     14  N   UNL     1      47.495   4.961  16.073  0.00  0.00    +0.000 NA
ATOM     15  C   UNL     1      48.036   5.079  17.320  0.00  0.00    +0.000 A 
ATOM     18  H   UNL     1      47.789   3.222  13.577  0.00  0.00    +0.000 HD
ENDROOT
BRANCH   4   2
ATOM      1  N   UNL     1      48.486   3.844  20.429  0.00  0.00    +0.000 N 
ATOM      2  C   UNL     1      49.207   4.286  19.353  0.00  0.00    +0.000 C 
ATOM      3  O   UNL     1      50.288   4.835  19.504  0.00  0.00    +0.000 OA
ATOM     16  H   UNL     1      48.926   3.938  21.335  0.00  0.00    +0.000 HD
ATOM     17  H   UNL     1      47.719   3.192  20.350  0.00  0.00    +0.000 HD
ENDBRANCH   4   2
BRANCH   8   9
ATOM      9  C   UNL     1      46.156   4.514  13.597  0.00  0.00    +0.000 C 
ATOM     10  C   UNL     1      45.364   3.783  12.506  0.00  0.00    +0.000 C 
ATOM     11  C   UNL     1      45.090   4.793  11.403  0.00  0.00    +0.000 C 
ATOM     12  C   UNL     1      45.906   6.034  11.734  0.00  0.00    +0.000 C 
ATOM     13  C   UNL     1      46.871   5.630  12.845  0.00  0.00    +0.000 C 
ENDBRANCH   8   9
TORSDOF 2
ENDMDL
MODEL 8
REMARK VINA RESULT:    -5.163      3.912      6.509
REMARK INTER + INTRA:          -5.722
REMARK INTER:                  -5.490
REMARK INTRA:                  -0.232
REMARK UNBOUND:                 0.044
REMARK  Name = 
REMARK  2 active torsions:
REMARK  status: ('A' for Active; 'I' for Inactive)
REMARK    1  A    between atoms: C_2  and  C_4
REMARK    2  A    between atoms: N_8  and  C_9
REMARK                            x       y       z     vdW  Elec       q    Type
REMARK                         _______ _______ _______ _____ _____    ______ ____
ROOT
ATOM      4  C   UNL     1      44.903   3.989  11.156  0.00  0.00    +0.000 A 
ATOM      5  C   UNL     1      45.108   5.069  10.306  0.00  0.00    +0.000 A 
ATOM      6  C   UNL     1      45.948   6.100  10.723  0.00  0.00    +0.000 A 
ATOM      7  C   UNL     1      46.538   6.058  11.987  0.00  0.00    +0.000 A 
ATOM      8  N   UNL     1      47.354   7.131  12.332  0.00  0.00    +0.000 N 
ATOM     14  N   UNL     1      46.314   5.039  12.836  0.00  0.00    +0.000 NA
ATOM     15  C   UNL     1      45.509   4.026  12.404  0.00  0.00    +0.000 A 
ATOM     18  H   UNL     1      48.125   7.211  11.678  0.00  0.00    +0.000 HD
ENDROOT
BRANCH   4   2
ATOM      1  N   UNL     1      43.304   2.266  11.782  0.00  0.00    +0.000 N 
ATOM      2  C   UNL     1      44.059   2.830  10.791  0.00  0.00    +0.000 C 
ATOM      3  O   UNL     1      44.009   2.409   9.645  0.00  0.00    +0.000 OA
ATOM     16  H   UNL     1      42.665   1.535  11.500  0.00  0.00    +0.000 HD
ATOM     17  H   UNL     1      43.135   2.714  12.671  0.00  0.00    +0.000 HD
ENDBRANCH   4   2
BRANCH   8   9
ATOM      9  C   UNL     1      47.741   7.342  13.720  0.00  0.00    +0.000 C 
ATOM     10  C   UNL     1      47.433   8.807  14.058  0.00  0.00    +0.000 C 
ATOM     11  C   UNL     1      48.479   9.260  15.063  0.00  0.00    +0.000 C 
ATOM     12  C   UNL     1      49.522   8.154  15.138  0.00  0.00    +0.000 C 
ATOM     13  C   UNL     1      49.239   7.216  13.968  0.00  0.00    +0.000 C 
ENDBRANCH   8   9
TORSDOF 2
ENDMDL
MODEL 9
REMARK VINA RESULT:    -5.103      5.049      6.910
REMARK INTER + INTRA:          -5.656
REMARK INTER:                  -5.438
REMARK INTRA:                  -0.218
REMARK UNBOUND:                 0.044
REMARK  Name = 
REMARK  2 active torsions:
REMARK  status: ('A' for Active; 'I' for Inactive)
REMARK    1  A    between atoms: C_2  and  C_4
REMARK    2  A    between atoms: N_8  and  C_9
REMARK                            x       y       z     vdW  Elec       q    Type
REMARK                         _______ _______ _______ _____ _____    ______ ____
ROOT
ATOM      4  C   UNL     1      45.953   5.944  12.892  0.00  0.00    +0.000 A 
ATOM      5  C   UNL     1      44.824   5.351  12.341  0.00  0.00    +0.000 A 
ATOM      6  C   UNL     1      43.930   6.147  11.626  0.00  0.00    +0.000 A 
ATOM      7  C   UNL     1      44.153   7.519  11.503  0.00  0.00    +0.000 A 
ATOM      8  N   UNL     1      43.209   8.245  10.784  0.00  0.00    +0.000 N 
ATOM     14  N   UNL     1      45.220   8.113  12.069  0.00  0.00    +0.000 NA
ATOM     15  C   UNL     1      46.099   7.317  12.744  0.00  0.00    +0.000 A 
ATOM     18  H   UNL     1      43.148   7.896   9.833  0.00  0.00    +0.000 HD
ENDROOT
BRANCH   4   2
ATOM      1  N   UNL     1      46.628   3.937  14.090  0.00  0.00    +0.000 N 
ATOM      2  C   UNL     1      46.977   5.180  13.637  0.00  0.00    +0.000 C 
ATOM      3  O   UNL     1      48.103   5.621  13.816  0.00  0.00    +0.000 OA
ATOM     16  H   UNL     1      47.364   3.390  14.516  0.00  0.00    +0.000 HD
ATOM     17  H   UNL     1      45.807   3.444  13.772  0.00  0.00    +0.000 HD
ENDBRANCH   4   2
BRANCH   8   9
ATOM      9  C   UNL     1      43.173   9.697  10.878  0.00  0.00    +0.000 C 
ATOM     10  C   UNL     1      41.700  10.120  10.797  0.00  0.00    +0.000 C 
ATOM     11  C   UNL     1      41.663  11.468  10.097  0.00  0.00    +0.000 C 
ATOM     12  C   UNL     1      43.067  11.726   9.569  0.00  0.00    +0.000 C 
ATOM     13  C   UNL     1      43.824  10.407   9.697  0.00  0.00    +0.000 C 
ENDBRANCH   8   9
TORSDOF 2
ENDMDL
