MODEL 1
REMARK VINA RESULT:    -7.734      0.000      0.000
REMARK INTER + INTRA:         -12.189
REMARK INTER:                 -11.350
REMARK INTRA:                  -0.839
REMARK UNBOUND:                -0.839
REMARK  Name = 
REMARK  9 active torsions:
REMARK  status: ('A' for Active; 'I' for Inactive)
REMARK    1  A    between atoms: C_1  and  C_2
REMARK    2  A    between atoms: C_2  and  C_3
REMARK    3  A    between atoms: C_3  and  C_4
REMARK    4  A    between atoms: C_4  and  N_5
REMARK    5  A    between atoms: N_5  and  C_6
REMARK    6  A    between atoms: C_6  and  C_7
REMARK    7  A    between atoms: C_10  and  C_11
REMARK    8  A    between atoms: C_11  and  N_12
REMARK    9  A    between atoms: C_13  and  C_15
REMARK                            x       y       z     vdW  Elec       q    Type
REMARK                         _______ _______ _______ _____ _____    ______ ____
ROOT
ATOM     12  N   UNL     1      44.641   5.434  10.383  0.00  0.00    +0.000 N 
ATOM     13  C   UNL     1      43.911   6.315  11.149  0.00  0.00    +0.000 C 
ATOM     14  O   UNL     1      42.724   6.186  11.357  0.00  0.00    +0.000 OA
ATOM     28  H   UNL     1      45.522   5.772  10.000  0.00  0.00    +0.000 HD
ENDROOT
BRANCH  13  15
ATOM     15  C   UNL     1      44.689   7.420  11.740  0.00  0.00    +0.000 A 
ATOM     16  C   UNL     1      44.424   8.738  11.391  0.00  0.00    +0.000 A 
ATOM     17  S   UNL     1      45.494   9.858  12.114  0.00  0.00    +0.000 S 
ATOM     18  C   UNL     1      46.337   8.620  12.923  0.00  0.00    +0.000 A 
ATOM     19  N   UNL     1      47.419   8.888  13.703  0.00  0.00    +0.000 NA
ATOM     20  C   UNL     1      47.946   7.847  14.260  0.00  0.00    +0.000 A 
ATOM     21  N   UNL     1      47.486   6.565  14.112  0.00  0.00    +0.000 N 
ATOM     22  C   UNL     1      46.405   6.248  13.337  0.00  0.00    +0.000 A 
ATOM     23  O   UNL     1      45.997   5.093  13.253  0.00  0.00    +0.000 OA
ATOM     24  C   UNL     1      45.786   7.378  12.672  0.00  0.00    +0.000 A 
ATOM     29  H   UNL     1      47.913   5.795  14.605  0.00  0.00    +0.000 HD
ENDBRANCH  13  15
BRANCH  12  11
ATOM     11  C   UNL     1      44.049   4.289   9.735  0.00  0.00    +0.000 C 
BRANCH  11  10
ATOM      7  C   UNL     1      46.744   1.901   7.315  0.00  0.00    +0.000 A 
ATOM      8  C   UNL     1      45.952   1.297   8.293  0.00  0.00    +0.000 A 
ATOM      9  C   UNL     1      45.107   2.061   9.095  0.00  0.00    +0.000 A 
ATOM     10  C   UNL     1      45.031   3.454   8.937  0.00  0.00    +0.000 A 
ATOM     25  C   UNL     1      45.863   4.060   7.984  0.00  0.00    +0.000 A 
ATOM     26  C   UNL     1      46.675   3.287   7.148  0.00  0.00    +0.000 A 
BRANCH   7   6
ATOM      6  C   UNL     1      47.708   1.061   6.525  0.00  0.00    +0.000 C 
BRANCH   6   5
ATOM      5  N   UNL     1      48.071   1.737   5.285  0.00  0.00    +0.000 NA
ATOM     27  H   UNL     1      48.129   2.740   5.450  0.00  0.00    +0.000 HD
BRANCH   5   4
ATOM      4  C   UNL     1      47.090   1.456   4.251  0.00  0.00    +0.000 C 
BRANCH   4   3
ATOM      3  C   UNL     1      46.932  -0.050   4.086  0.00  0.00    +0.000 C 
BRANCH   3   2
ATOM      1  C   UNL     1      45.285   0.750   2.375  0.00  0.00    +0.000 C 
ATOM      2  C   UNL     1      46.245  -0.360   2.760  0.00  0.00    +0.000 C 
ENDBRANCH   3   2
ENDBRANCH   4   3
ENDBRANCH   5   4
ENDBRANCH   6   5
ENDBRANCH   7   6
ENDBRANCH  11  10
ENDBRANCH  12  11
TORSDOF 8
ENDMDL
MODEL 2
REMARK VINA RESULT:    -7.666      2.847      4.081
REMARK INTER + INTRA:         -12.090
REMARK INTER:                 -11.265
REMARK INTRA:                  -0.825
REMARK UNBOUND:                -0.839
REMARK  Name = 
REMARK  9 active torsions:
REMARK  status: ('A' for Active; 'I' for Inactive)
REMARK    1  A    between atoms: C_1  and  C_2
REMARK    2  A    between atoms: C_2  and  C_3
REMARK    3  A    between atoms: C_3  and  C_4
REMARK    4  A    between atoms: C_4  and  N_5
REMARK    5  A    between atoms: N_5  and  C_6
REMARK    6  A    between atoms: C_6  and  C_7
REMARK    7  A    between atoms: C_10  and  C_11
REMARK    8  A    between atoms: C_11  and  N_12
REMARK    9  A    between atoms: C_13  and  C_15
REMARK                            x       y       z     vdW  Elec       q    Type
REMARK                         _______ _______ _______ _____ _____    ______ ____
ROOT
ATOM     12  N   UNL     1      45.348   5.304  13.589  0.00  0.00    +0.000 N 
ATOM     13  C   UNL     1      46.426   4.570  14.030  0.00  0.00    +0.000 C 
ATOM     14  O   UNL     1      46.564   3.389  13.793  0.00  0.00    +0.000 OA
ATOM     28  H   UNL     1      45.145   6.172  14.083  0.00  0.00    +0.000 HD
ENDROOT
BRANCH  13  15
ATOM     15  C   UNL     1      47.434   5.334  14.788  0.00  0.00    +0.000 A 
ATOM     16  C   UNL     1      48.092   6.411  14.206  0.00  0.00    +0.000 A 
ATOM     17  S   UNL     1      49.284   7.103  15.217  0.00  0.00    +0.000 S 
ATOM     18  C   UNL     1      48.953   5.994  16.466  0.00  0.00    +0.000 A 
ATOM     19  N   UNL     1      49.656   6.003  17.631  0.00  0.00    +0.000 NA
ATOM     20  C   UNL     1      49.282   5.110  18.487  0.00  0.00    +0.000 A 
ATOM     21  N   UNL     1      48.265   4.214  18.287  0.00  0.00    +0.000 N 
ATOM     22  C   UNL     1      47.533   4.167  17.132  0.00  0.00    +0.000 A 
ATOM     23  O   UNL     1      46.605   3.374  16.999  0.00  0.00    +0.000 OA
ATOM     24  C   UNL     1      47.924   5.136  16.128  0.00  0.00    +0.000 A 
ATOM     29  H   UNL     1      47.989   3.565  19.008  0.00  0.00    +0.000 HD
ENDBRANCH  13  15
BRANCH  12  11
ATOM     11  C   UNL     1      44.270   4.726  12.826  0.00  0.00    +0.000 C 
BRANCH  11  10
ATOM      7  C   UNL     1      45.165   3.937   8.654  0.00  0.00    +0.000 A 
ATOM      8  C   UNL     1      44.460   3.001   9.414  0.00  0.00    +0.000 A 
ATOM      9  C   UNL     1      44.196   3.234  10.762  0.00  0.00    +0.000 A 
ATOM     10  C   UNL     1      44.630   4.413  11.387  0.00  0.00    +0.000 A 
ATOM     25  C   UNL     1      45.377   5.328  10.631  0.00  0.00    +0.000 A 
ATOM     26  C   UNL     1      45.601   5.116   9.267  0.00  0.00    +0.000 A 
BRANCH   7   6
ATOM      6  C   UNL     1      45.509   3.619   7.227  0.00  0.00    +0.000 C 
BRANCH   6   5
ATOM      5  N   UNL     1      46.873   4.039   6.928  0.00  0.00    +0.000 NA
ATOM     27  H   UNL     1      46.888   4.529   6.035  0.00  0.00    +0.000 HD
BRANCH   5   4
ATOM      4  C   UNL     1      47.758   2.888   6.883  0.00  0.00    +0.000 C 
BRANCH   4   3
ATOM      3  C   UNL     1      47.576   2.151   5.563  0.00  0.00    +0.000 C 
BRANCH   3   2
ATOM      1  C   UNL     1      47.061   0.430   7.310  0.00  0.00    +0.000 C 
ATOM      2  C   UNL     1      47.243   0.686   5.826  0.00  0.00    +0.000 C 
ENDBRANCH   3   2
ENDBRANCH   4   3
ENDBRANCH   5   4
ENDBRANCH   6   5
ENDBRANCH   7   6
ENDBRANCH  11  10
ENDBRANCH  12  11
TORSDOF 8
ENDMDL
MODEL 3
REMARK VINA RESULT:    -7.256      3.257      5.697
REMARK INTER + INTRA:         -11.489
REMARK INTER:                 -10.199
REMARK INTRA:                  -1.290
REMARK UNBOUND:                -0.839
REMARK  Name = 
REMARK  9 active torsions:
REMARK  status: ('A' for Active; 'I' for Inactive)
REMARK    1  A    between atoms: C_1  and  C_2
REMARK    2  A    between atoms: C_2  and  C_3
REMARK    3  A    between atoms: C_3  and  C_4
REMARK    4  A    between atoms: C_4  and  N_5
REMARK    5  A    between atoms: N_5  and  C_6
REMARK    6  A    between atoms: C_6  and  C_7
REMARK    7  A    between atoms: C_10  and  C_11
REMARK    8  A    between atoms: C_11  and  N_12
REMARK    9  A    between atoms: C_13  and  C_15
REMARK                            x       y       z     vdW  Elec       q    Type
REMARK                         _______ _______ _______ _____ _____    ______ ____
ROOT
ATOM     12  N   UNL     1      47.318   7.298  14.386  0.00  0.00    +0.000 N 
ATOM     13  C   UNL     1      48.585   6.780  14.544  0.00  0.00    +0.000 C 
ATOM     14  O   UNL     1      49.396   6.731  13.645  0.00  0.00    +0.000 OA
ATOM     28  H   UNL     1      46.615   7.018  15.067  0.00  0.00    +0.000 HD
ENDROOT
BRANCH  13  15
ATOM     15  C   UNL     1      48.905   6.319  15.907  0.00  0.00    +0.000 A 
ATOM     16  C   UNL     1      49.832   7.000  16.686  0.00  0.00    +0.000 A 
ATOM     17  S   UNL     1      50.127   6.254  18.195  0.00  0.00    +0.000 S 
ATOM     18  C   UNL     1      49.019   5.005  17.861  0.00  0.00    +0.000 A 
ATOM     19  N   UNL     1      48.810   3.986  18.738  0.00  0.00    +0.000 NA
ATOM     20  C   UNL     1      47.932   3.120  18.349  0.00  0.00    +0.000 A 
ATOM     21  N   UNL     1      47.241   3.185  17.168  0.00  0.00    +0.000 N 
ATOM     22  C   UNL     1      47.420   4.188  16.256  0.00  0.00    +0.000 A 
ATOM     23  O   UNL     1      46.759   4.235  15.223  0.00  0.00    +0.000 OA
ATOM     24  C   UNL     1      48.409   5.178  16.633  0.00  0.00    +0.000 A 
ATOM     29  H   UNL     1      46.536   2.501  16.936  0.00  0.00    +0.000 HD
ENDBRANCH  13  15
BRANCH  12  11
ATOM     11  C   UNL     1      46.834   7.804  13.125  0.00  0.00    +0.000 C 
BRANCH  11  10
ATOM      7  C   UNL     1      44.682   4.779  10.879  0.00  0.00    +0.000 A 
ATOM      8  C   UNL     1      45.714   5.502  10.278  0.00  0.00    +0.000 A 
ATOM      9  C   UNL     1      46.389   6.496  10.984  0.00  0.00    +0.000 A 
ATOM     10  C   UNL     1      46.049   6.793  12.313  0.00  0.00    +0.000 A 
ATOM     25  C   UNL     1      44.981   6.094  12.895  0.00  0.00    +0.000 A 
ATOM     26  C   UNL     1      44.336   5.066  12.203  0.00  0.00    +0.000 A 
BRANCH   7   6
ATOM      6  C   UNL     1      43.916   3.774  10.066  0.00  0.00    +0.000 C 
BRANCH   6   5
ATOM      5  N   UNL     1      44.565   2.470  10.130  0.00  0.00    +0.000 NA
ATOM     27  H   UNL     1      45.465   2.562  10.598  0.00  0.00    +0.000 HD
BRANCH   5   4
ATOM      4  C   UNL     1      44.750   1.931   8.794  0.00  0.00    +0.000 C 
BRANCH   4   3
ATOM      3  C   UNL     1      46.152   2.254   8.297  0.00  0.00    +0.000 C 
BRANCH   3   2
ATOM      1  C   UNL     1      46.961   2.806   5.990  0.00  0.00    +0.000 C 
ATOM      2  C   UNL     1      46.081   3.249   7.143  0.00  0.00    +0.000 C 
ENDBRANCH   3   2
ENDBRANCH   4   3
ENDBRANCH   5   4
ENDBRANCH   6   5
ENDBRANCH   7   6
ENDBRANCH  11  10
ENDBRANCH  12  11
TORSDOF 8
ENDMDL
MODEL 4
REMARK VINA RESULT:    -7.115      2.558      3.986
REMARK INTER + INTRA:         -11.281
REMARK INTER:                 -10.088
REMARK INTRA:                  -1.193
REMARK UNBOUND:                -0.839
REMARK  Name = 
REMARK  9 active torsions:
REMARK  status: ('A' for Active; 'I' for Inactive)
REMARK    1  A    between atoms: C_1  and  C_2
REMARK    2  A    between atoms: C_2  and  C_3
REMARK    3  A    between atoms: C_3  and  C_4
REMARK    4  A    between atoms: C_4  and  N_5
REMARK    5  A    between atoms: N_5  and  C_6
REMARK    6  A    between atoms: C_6  and  C_7
REMARK    7  A    between atoms: C_10  and  C_11
REMARK    8  A    between atoms: C_11  and  N_12
REMARK    9  A    between atoms: C_13  and  C_15
REMARK                            x       y       z     vdW  Elec       q    Type
REMARK                         _______ _______ _______ _____ _____    ______ ____
ROOT
ATOM     12  N   UNL     1      45.809   6.668  13.110  0.00  0.00    +0.000 N 
ATOM     13  C   UNL     1      47.172   6.860  13.068  0.00  0.00    +0.000 C 
ATOM     14  O   UNL     1      47.767   7.163  12.057  0.00  0.00    +0.000 OA
ATOM     28  H   UNL     1      45.442   6.119  13.885  0.00  0.00    +0.000 HD
ENDROOT
BRANCH  13  15
ATOM     15  C   UNL     1      47.864   6.708  14.362  0.00  0.00    +0.000 A 
ATOM     16  C   UNL     1      48.687   7.715  14.848  0.00  0.00    +0.000 A 
ATOM     17  S   UNL     1      49.464   7.306  16.315  0.00  0.00    +0.000 S 
ATOM     18  C   UNL     1      48.718   5.776  16.351  0.00  0.00    +0.000 A 
ATOM     19  N   UNL     1      48.980   4.880  17.342  0.00  0.00    +0.000 NA
ATOM     20  C   UNL     1      48.330   3.767  17.240  0.00  0.00    +0.000 A 
ATOM     21  N   UNL     1      47.438   3.472  16.242  0.00  0.00    +0.000 N 
ATOM     22  C   UNL     1      47.146   4.340  15.226  0.00  0.00    +0.000 A 
ATOM     23  O   UNL     1      46.316   4.058  14.367  0.00  0.00    +0.000 OA
ATOM     24  C   UNL     1      47.863   5.598  15.280  0.00  0.00    +0.000 A 
ATOM     29  H   UNL     1      46.928   2.602  16.237  0.00  0.00    +0.000 HD
ENDBRANCH  13  15
BRANCH  12  11
ATOM     11  C   UNL     1      44.970   6.784  11.944  0.00  0.00    +0.000 C 
BRANCH  11  10
ATOM      7  C   UNL     1      44.796   3.322   9.334  0.00  0.00    +0.000 A 
ATOM      8  C   UNL     1      44.147   3.307  10.570  0.00  0.00    +0.000 A 
ATOM      9  C   UNL     1      44.224   4.403  11.426  0.00  0.00    +0.000 A 
ATOM     10  C   UNL     1      44.953   5.548  11.067  0.00  0.00    +0.000 A 
ATOM     25  C   UNL     1      45.640   5.539   9.844  0.00  0.00    +0.000 A 
ATOM     26  C   UNL     1      45.524   4.458   8.966  0.00  0.00    +0.000 A 
BRANCH   7   6
ATOM      6  C   UNL     1      44.766   2.093   8.471  0.00  0.00    +0.000 C 
BRANCH   6   5
ATOM      5  N   UNL     1      45.923   1.250   8.748  0.00  0.00    +0.000 NA
ATOM     27  H   UNL     1      46.556   1.741   9.377  0.00  0.00    +0.000 HD
BRANCH   5   4
ATOM      4  C   UNL     1      46.608   0.910   7.513  0.00  0.00    +0.000 C 
BRANCH   4   3
ATOM      3  C   UNL     1      47.579   2.022   7.140  0.00  0.00    +0.000 C 
BRANCH   3   2
ATOM      1  C   UNL     1      46.973   1.708   4.729  0.00  0.00    +0.000 C 
ATOM      2  C   UNL     1      47.118   2.710   5.859  0.00  0.00    +0.000 C 
ENDBRANCH   3   2
ENDBRANCH   4   3
ENDBRANCH   5   4
ENDBRANCH   6   5
ENDBRANCH   7   6
ENDBRANCH  11  10
ENDBRANCH  12  11
TORSDOF 8
ENDMDL
MODEL 5
REMARK VINA RESULT:    -6.854      3.814      6.257
REMARK INTER + INTRA:         -10.899
REMARK INTER:                 -10.063
REMARK INTRA:                  -0.835
REMARK UNBOUND:                -0.839
REMARK  Name = 
REMARK  9 active torsions:
REMARK  status: ('A' for Active; 'I' for Inactive)
REMARK    1  A    between atoms: C_1  and  C_2
REMARK    2  A    between atoms: C_2  and  C_3
REMARK    3  A    between atoms: C_3  and  C_4
REMARK    4  A    between atoms: C_4  and  N_5
REMARK    5  A    between atoms: N_5  and  C_6
REMARK    6  A    between atoms: C_6  and  C_7
REMARK    7  A    between atoms: C_10  and  C_11
REMARK    8  A    between atoms: C_11  and  N_12
REMARK    9  A    between atoms: C_13  and  C_15
REMARK                            x       y       z     vdW  Elec       q    Type
REMARK                         _______ _______ _______ _____ _____    ______ ____
ROOT
ATOM     12  N   UNL     1      48.045   6.817  14.854  0.00  0.00    +0.000 N 
ATOM     13  C   UNL     1      49.101   6.740  15.735  0.00  0.00    +0.000 C 
ATOM     14  O   UNL     1      50.256   6.657  15.377  0.00  0.00    +0.000 OA
ATOM     28  H   UNL     1      47.125   6.565  15.211  0.00  0.00    +0.000 HD
ENDROOT
BRANCH  13  15
ATOM     15  C   UNL     1      48.731   6.807  17.160  0.00  0.00    +0.000 A 
ATOM     16  C   UNL     1      48.311   8.003  17.729  0.00  0.00    +0.000 A 
ATOM     17  S   UNL     1      48.017   7.888  19.409  0.00  0.00    +0.000 S 
ATOM     18  C   UNL     1      48.432   6.237  19.428  0.00  0.00    +0.000 A 
ATOM     19  N   UNL     1      48.431   5.517  20.583  0.00  0.00    +0.000 NA
ATOM     20  C   UNL     1      48.757   4.274  20.437  0.00  0.00    +0.000 A 
ATOM     21  N   UNL     1      49.075   3.686  19.241  0.00  0.00    +0.000 N 
ATOM     22  C   UNL     1      49.091   4.371  18.057  0.00  0.00    +0.000 A 
ATOM     23  O   UNL     1      49.348   3.805  16.998  0.00  0.00    +0.000 OA
ATOM     24  C   UNL     1      48.752   5.775  18.166  0.00  0.00    +0.000 A 
ATOM     29  H   UNL     1      49.282   2.701  19.181  0.00  0.00    +0.000 HD
ENDBRANCH  13  15
BRANCH  12  11
ATOM     11  C   UNL     1      48.219   6.777  13.423  0.00  0.00    +0.000 C 
BRANCH  11  10
ATOM      7  C   UNL     1      45.033   4.813  11.227  0.00  0.00    +0.000 A 
ATOM      8  C   UNL     1      45.619   5.978  10.729  0.00  0.00    +0.000 A 
ATOM      9  C   UNL     1      46.621   6.631  11.443  0.00  0.00    +0.000 A 
ATOM     10  C   UNL     1      47.066   6.134  12.678  0.00  0.00    +0.000 A 
ATOM     25  C   UNL     1      46.442   4.988  13.194  0.00  0.00    +0.000 A 
ATOM     26  C   UNL     1      45.470   4.308  12.455  0.00  0.00    +0.000 A 
BRANCH   7   6
ATOM      6  C   UNL     1      43.897   4.180  10.475  0.00  0.00    +0.000 C 
BRANCH   6   5
ATOM      5  N   UNL     1      44.097   4.324   9.038  0.00  0.00    +0.000 NA
ATOM     27  H   UNL     1      43.193   4.358   8.572  0.00  0.00    +0.000 HD
BRANCH   5   4
ATOM      4  C   UNL     1      44.884   3.216   8.524  0.00  0.00    +0.000 C 
BRANCH   4   3
ATOM      3  C   UNL     1      45.926   3.736   7.542  0.00  0.00    +0.000 C 
BRANCH   3   2
ATOM      1  C   UNL     1      46.513   1.321   7.855  0.00  0.00    +0.000 C 
ATOM      2  C   UNL     1      46.896   2.619   7.171  0.00  0.00    +0.000 C 
ENDBRANCH   3   2
ENDBRANCH   4   3
ENDBRANCH   5   4
ENDBRANCH   6   5
ENDBRANCH   7   6
ENDBRANCH  11  10
ENDBRANCH  12  11
TORSDOF 8
ENDMDL
MODEL 6
REMARK VINA RESULT:    -6.719      5.707      9.678
REMARK INTER + INTRA:         -10.701
REMARK INTER:                  -9.747
REMARK INTRA:                  -0.954
REMARK UNBOUND:                -0.839
REMARK  Name = 
REMARK  9 active torsions:
REMARK  status: ('A' for Active; 'I' for Inactive)
REMARK    1  A    between atoms: C_1  and  C_2
REMARK    2  A    between atoms: C_2  and  C_3
REMARK    3  A    between atoms: C_3  and  C_4
REMARK    4  A    between atoms: C_4  and  N_5
REMARK    5  A    between atoms: N_5  and  C_6
REMARK    6  A    between atoms: C_6  and  C_7
REMARK    7  A    between atoms: C_10  and  C_11
REMARK    8  A    between atoms: C_11  and  N_12
REMARK    9  A    between atoms: C_13  and  C_15
REMARK                            x       y       z     vdW  Elec       q    Type
REMARK                         _______ _______ _______ _____ _____    ______ ____
ROOT
ATOM     12  N   UNL     1      46.967   4.496  15.870  0.00  0.00    +0.000 N 
ATOM     13  C   UNL     1      46.981   4.193  14.527  0.00  0.00    +0.000 C 
ATOM     14  O   UNL     1      47.298   3.105  14.097  0.00  0.00    +0.000 OA
ATOM     28  H   UNL     1      47.006   5.481  16.124  0.00  0.00    +0.000 HD
ENDROOT
BRANCH  13  15
ATOM     15  C   UNL     1      46.542   5.284  13.637  0.00  0.00    +0.000 A 
ATOM     16  C   UNL     1      47.321   6.423  13.475  0.00  0.00    +0.000 A 
ATOM     17  S   UNL     1      46.593   7.604  12.476  0.00  0.00    +0.000 S 
ATOM     18  C   UNL     1      45.222   6.628  12.221  0.00  0.00    +0.000 A 
ATOM     19  N   UNL     1      44.170   7.060  11.472  0.00  0.00    +0.000 NA
ATOM     20  C   UNL     1      43.208   6.204  11.360  0.00  0.00    +0.000 A 
ATOM     21  N   UNL     1      43.205   4.954  11.922  0.00  0.00    +0.000 N 
ATOM     22  C   UNL     1      44.238   4.479  12.683  0.00  0.00    +0.000 A 
ATOM     23  O   UNL     1      44.218   3.342  13.143  0.00  0.00    +0.000 OA
ATOM     24  C   UNL     1      45.337   5.408  12.858  0.00  0.00    +0.000 A 
ATOM     29  H   UNL     1      42.443   4.312  11.766  0.00  0.00    +0.000 HD
ENDBRANCH  13  15
BRANCH  12  11
ATOM     11  C   UNL     1      47.356   3.550  16.886  0.00  0.00    +0.000 C 
BRANCH  11  10
ATOM      7  C   UNL     1      51.584   3.387  17.844  0.00  0.00    +0.000 A 
ATOM      8  C   UNL     1      50.886   4.592  17.938  0.00  0.00    +0.000 A 
ATOM      9  C   UNL     1      49.535   4.658  17.603  0.00  0.00    +0.000 A 
ATOM     10  C   UNL     1      48.845   3.517  17.165  0.00  0.00    +0.000 A 
ATOM     25  C   UNL     1      49.564   2.320  17.029  0.00  0.00    +0.000 A 
ATOM     26  C   UNL     1      50.906   2.244  17.410  0.00  0.00    +0.000 A 
BRANCH   7   6
ATOM      6  C   UNL     1      53.059   3.366  18.130  0.00  0.00    +0.000 C 
BRANCH   6   5
ATOM      5  N   UNL     1      53.356   2.413  19.193  0.00  0.00    +0.000 NA
ATOM     27  H   UNL     1      53.711   2.912  20.006  0.00  0.00    +0.000 HD
BRANCH   5   4
ATOM      4  C   UNL     1      54.331   1.437  18.739  0.00  0.00    +0.000 C 
BRANCH   4   3
ATOM      3  C   UNL     1      55.152   2.022  17.597  0.00  0.00    +0.000 C 
BRANCH   3   2
ATOM      1  C   UNL     1      54.356  -0.186  16.720  0.00  0.00    +0.000 C 
ATOM      2  C   UNL     1      55.223   1.028  16.443  0.00  0.00    +0.000 C 
ENDBRANCH   3   2
ENDBRANCH   4   3
ENDBRANCH   5   4
ENDBRANCH   6   5
ENDBRANCH   7   6
ENDBRANCH  11  10
ENDBRANCH  12  11
TORSDOF 8
ENDMDL
MODEL 7
REMARK VINA RESULT:    -6.545      4.018      6.335
REMARK INTER + INTRA:         -10.445
REMARK INTER:                  -9.650
REMARK INTRA:                  -0.795
REMARK UNBOUND:                -0.839
REMARK  Name = 
REMARK  9 active torsions:
REMARK  status: ('A' for Active; 'I' for Inactive)
REMARK    1  A    between atoms: C_1  and  C_2
REMARK    2  A    between atoms: C_2  and  C_3
REMARK    3  A    between atoms: C_3  and  C_4
REMARK    4  A    between atoms: C_4  and  N_5
REMARK    5  A    between atoms: N_5  and  C_6
REMARK    6  A    between atoms: C_6  and  C_7
REMARK    7  A    between atoms: C_10  and  C_11
REMARK    8  A    between atoms: C_11  and  N_12
REMARK    9  A    between atoms: C_13  and  C_15
REMARK                            x       y       z     vdW  Elec       q    Type
REMARK                         _______ _______ _______ _____ _____    ______ ____
ROOT
ATOM     12  N   UNL     1      47.954   6.136  14.927  0.00  0.00    +0.000 N 
ATOM     13  C   UNL     1      48.920   6.522  15.830  0.00  0.00    +0.000 C 
ATOM     14  O   UNL     1      49.801   7.309  15.561  0.00  0.00    +0.000 OA
ATOM     28  H   UNL     1      47.466   5.262  15.116  0.00  0.00    +0.000 HD
ENDROOT
BRANCH  13  15
ATOM     15  C   UNL     1      48.786   5.934  17.176  0.00  0.00    +0.000 A 
ATOM     16  C   UNL     1      49.067   4.592  17.395  0.00  0.00    +0.000 A 
ATOM     17  S   UNL     1      48.761   4.088  18.999  0.00  0.00    +0.000 S 
ATOM     18  C   UNL     1      48.254   5.648  19.454  0.00  0.00    +0.000 A 
ATOM     19  N   UNL     1      47.811   5.913  20.714  0.00  0.00    +0.000 NA
ATOM     20  C   UNL     1      47.471   7.145  20.911  0.00  0.00    +0.000 A 
ATOM     21  N   UNL     1      47.540   8.135  19.967  0.00  0.00    +0.000 N 
ATOM     22  C   UNL     1      47.976   7.914  18.689  0.00  0.00    +0.000 A 
ATOM     23  O   UNL     1      48.058   8.832  17.878  0.00  0.00    +0.000 OA
ATOM     24  C   UNL     1      48.352   6.544  18.407  0.00  0.00    +0.000 A 
ATOM     29  H   UNL     1      47.300   9.089  20.191  0.00  0.00    +0.000 HD
ENDBRANCH  13  15
BRANCH  12  11
ATOM     11  C   UNL     1      47.922   6.616  13.568  0.00  0.00    +0.000 C 
BRANCH  11  10
ATOM      7  C   UNL     1      44.859   4.800  11.088  0.00  0.00    +0.000 A 
ATOM      8  C   UNL     1      45.406   6.036  10.741  0.00  0.00    +0.000 A 
ATOM      9  C   UNL     1      46.368   6.640  11.548  0.00  0.00    +0.000 A 
ATOM     10  C   UNL     1      46.810   6.020  12.728  0.00  0.00    +0.000 A 
ATOM     25  C   UNL     1      46.223   4.799  13.094  0.00  0.00    +0.000 A 
ATOM     26  C   UNL     1      45.293   4.172  12.260  0.00  0.00    +0.000 A 
BRANCH   7   6
ATOM      6  C   UNL     1      43.763   4.216  10.243  0.00  0.00    +0.000 C 
BRANCH   6   5
ATOM      5  N   UNL     1      44.091   4.343   8.828  0.00  0.00    +0.000 NA
ATOM     27  H   UNL     1      43.233   4.329   8.279  0.00  0.00    +0.000 HD
BRANCH   5   4
ATOM      4  C   UNL     1      44.968   3.262   8.414  0.00  0.00    +0.000 C 
BRANCH   4   3
ATOM      3  C   UNL     1      46.185   3.832   7.697  0.00  0.00    +0.000 C 
BRANCH   3   2
ATOM      1  C   UNL     1      46.873   2.704   5.568  0.00  0.00    +0.000 C 
ATOM      2  C   UNL     1      47.003   2.702   7.079  0.00  0.00    +0.000 C 
ENDBRANCH   3   2
ENDBRANCH   4   3
ENDBRANCH   5   4
ENDBRANCH   6   5
ENDBRANCH   7   6
ENDBRANCH  11  10
ENDBRANCH  12  11
TORSDOF 8
ENDMDL
MODEL 8
REMARK VINA RESULT:    -6.393      5.499     10.652
REMARK INTER + INTRA:         -10.221
REMARK INTER:                  -8.704
REMARK INTRA:                  -1.518
REMARK UNBOUND:                -0.839
REMARK  Name = 
REMARK  9 active torsions:
REMARK  status: ('A' for Active; 'I' for Inactive)
REMARK    1  A    between atoms: C_1  and  C_2
REMARK    2  A    between atoms: C_2  and  C_3
REMARK    3  A    between atoms: C_3  and  C_4
REMARK    4  A    between atoms: C_4  and  N_5
REMARK    5  A    between atoms: N_5  and  C_6
REMARK    6  A    between atoms: C_6  and  C_7
REMARK    7  A    between atoms: C_10  and  C_11
REMARK    8  A    between atoms: C_11  and  N_12
REMARK    9  A    between atoms: C_13  and  C_15
REMARK                            x       y       z     vdW  Elec       q    Type
REMARK                         _______ _______ _______ _____ _____    ______ ____
ROOT
ATOM     12  N   UNL     1      46.814   4.493  15.513  0.00  0.00    +0.000 N 
ATOM     13  C   UNL     1      46.864   4.277  14.154  0.00  0.00    +0.000 C 
ATOM     14  O   UNL     1      47.447   3.340  13.654  0.00  0.00    +0.000 OA
ATOM     28  H   UNL     1      46.594   5.437  15.825  0.00  0.00    +0.000 HD
ENDROOT
BRANCH  13  15
ATOM     15  C   UNL     1      46.117   5.253  13.340  0.00  0.00    +0.000 A 
ATOM     16  C   UNL     1      46.591   6.548  13.173  0.00  0.00    +0.000 A 
ATOM     17  S   UNL     1      45.536   7.546  12.273  0.00  0.00    +0.000 S 
ATOM     18  C   UNL     1      44.417   6.279  12.069  0.00  0.00    +0.000 A 
ATOM     19  N   UNL     1      43.242   6.467  11.409  0.00  0.00    +0.000 NA
ATOM     20  C   UNL     1      42.503   5.410  11.325  0.00  0.00    +0.000 A 
ATOM     21  N   UNL     1      42.835   4.182  11.834  0.00  0.00    +0.000 N 
ATOM     22  C   UNL     1      44.003   3.948  12.507  0.00  0.00    +0.000 A 
ATOM     23  O   UNL     1      44.285   2.827  12.921  0.00  0.00    +0.000 OA
ATOM     24  C   UNL     1      44.862   5.106  12.647  0.00  0.00    +0.000 A 
ATOM     29  H   UNL     1      42.236   3.381  11.702  0.00  0.00    +0.000 HD
ENDBRANCH  13  15
BRANCH  12  11
ATOM     11  C   UNL     1      47.478   3.635  16.463  0.00  0.00    +0.000 C 
BRANCH  11  10
ATOM      7  C   UNL     1      50.150   5.641  19.231  0.00  0.00    +0.000 A 
ATOM      8  C   UNL     1      49.269   4.659  19.688  0.00  0.00    +0.000 A 
ATOM      9  C   UNL     1      48.387   4.033  18.811  0.00  0.00    +0.000 A 
ATOM     10  C   UNL     1      48.363   4.372  17.449  0.00  0.00    +0.000 A 
ATOM     25  C   UNL     1      49.219   5.391  17.005  0.00  0.00    +0.000 A 
ATOM     26  C   UNL     1      50.136   5.986  17.876  0.00  0.00    +0.000 A 
BRANCH   7   6
ATOM      6  C   UNL     1      51.028   6.359  20.216  0.00  0.00    +0.000 C 
BRANCH   6   5
ATOM      5  N   UNL     1      50.230   6.889  21.315  0.00  0.00    +0.000 NA
ATOM     27  H   UNL     1      49.556   6.187  21.614  0.00  0.00    +0.000 HD
BRANCH   5   4
ATOM      4  C   UNL     1      49.541   8.099  20.901  0.00  0.00    +0.000 C 
BRANCH   4   3
ATOM      3  C   UNL     1      48.035   7.899  21.013  0.00  0.00    +0.000 C 
BRANCH   3   2
ATOM      1  C   UNL     1      48.159   8.964  18.748  0.00  0.00    +0.000 C 
ATOM      2  C   UNL     1      47.393   7.999  19.633  0.00  0.00    +0.000 C 
ENDBRANCH   3   2
ENDBRANCH   4   3
ENDBRANCH   5   4
ENDBRANCH   6   5
ENDBRANCH   7   6
ENDBRANCH  11  10
ENDBRANCH  12  11
TORSDOF 8
ENDMDL
MODEL 9
REMARK VINA RESULT:    -6.322      4.331      8.961
REMARK INTER + INTRA:         -10.117
REMARK INTER:                  -8.845
REMARK INTRA:                  -1.272
REMARK UNBOUND:                -0.839
REMARK  Name = 
REMARK  9 active torsions:
REMARK  status: ('A' for Active; 'I' for Inactive)
REMARK    1  A    between atoms: C_1  and  C_2
REMARK    2  A    between atoms: C_2  and  C_3
REMARK    3  A    between atoms: C_3  and  C_4
REMARK    4  A    between atoms: C_4  and  N_5
REMARK    5  A    between atoms: N_5  and  C_6
REMARK    6  A    between atoms: C_6  and  C_7
REMARK    7  A    between atoms: C_10  and  C_11
REMARK    8  A    between atoms: C_11  and  N_12
REMARK    9  A    between atoms: C_13  and  C_15
REMARK                            x       y       z     vdW  Elec       q    Type
REMARK                         _______ _______ _______ _____ _____    ______ ____
ROOT
ATOM     12  N   UNL     1      47.541   6.727  11.793  0.00  0.00    +0.000 N 
ATOM     13  C   UNL     1      46.202   6.808  11.482  0.00  0.00    +0.000 C 
ATOM     14  O   UNL     1      45.524   7.783  11.725  0.00  0.00    +0.000 OA
ATOM     28  H   UNL     1      47.947   5.794  11.853  0.00  0.00    +0.000 HD
ENDROOT
BRANCH  13  15
ATOM     15  C   UNL     1      45.650   5.630  10.788  0.00  0.00    +0.000 A 
ATOM     16  C   UNL     1      45.783   5.491   9.412  0.00  0.00    +0.000 A 
ATOM     17  S   UNL     1      44.996   4.106   8.792  0.00  0.00    +0.000 S 
ATOM     18  C   UNL     1      44.463   3.643  10.341  0.00  0.00    +0.000 A 
ATOM     19  N   UNL     1      43.688   2.540  10.527  0.00  0.00    +0.000 NA
ATOM     20  C   UNL     1      43.372   2.312  11.759  0.00  0.00    +0.000 A 
ATOM     21  N   UNL     1      43.766   3.081  12.822  0.00  0.00    +0.000 N 
ATOM     22  C   UNL     1      44.543   4.199  12.683  0.00  0.00    +0.000 A 
ATOM     23  O   UNL     1      44.907   4.846  13.660  0.00  0.00    +0.000 OA
ATOM     24  C   UNL     1      44.910   4.513  11.317  0.00  0.00    +0.000 A 
ATOM     29  H   UNL     1      43.523   2.830  13.768  0.00  0.00    +0.000 HD
ENDBRANCH  13  15
BRANCH  12  11
ATOM     11  C   UNL     1      48.251   7.787  12.464  0.00  0.00    +0.000 C 
BRANCH  11  10
ATOM      7  C   UNL     1      50.144   6.679  16.208  0.00  0.00    +0.000 A 
ATOM      8  C   UNL     1      50.827   7.465  15.278  0.00  0.00    +0.000 A 
ATOM      9  C   UNL     1      50.237   7.799  14.061  0.00  0.00    +0.000 A 
ATOM     10  C   UNL     1      48.944   7.356  13.741  0.00  0.00    +0.000 A 
ATOM     25  C   UNL     1      48.282   6.529  14.661  0.00  0.00    +0.000 A 
ATOM     26  C   UNL     1      48.855   6.233  15.901  0.00  0.00    +0.000 A 
BRANCH   7   6
ATOM      6  C   UNL     1      50.838   6.265  17.474  0.00  0.00    +0.000 C 
BRANCH   6   5
ATOM      5  N   UNL     1      51.459   4.956  17.307  0.00  0.00    +0.000 NA
ATOM     27  H   UNL     1      51.261   4.604  16.372  0.00  0.00    +0.000 HD
BRANCH   5   4
ATOM      4  C   UNL     1      50.960   4.028  18.306  0.00  0.00    +0.000 C 
BRANCH   4   3
ATOM      3  C   UNL     1      49.901   3.125  17.687  0.00  0.00    +0.000 C 
BRANCH   3   2
ATOM      1  C   UNL     1      47.415   3.060  17.387  0.00  0.00    +0.000 C 
ATOM      2  C   UNL     1      48.548   3.383  18.342  0.00  0.00    +0.000 C 
ENDBRANCH   3   2
ENDBRANCH   4   3
ENDBRANCH   5   4
ENDBRANCH   6   5
ENDBRANCH   7   6
ENDBRANCH  11  10
ENDBRANCH  12  11
TORSDOF 8
ENDMDL
