MODEL 1
REMARK VINA RESULT:    -6.740      0.000      0.000
REMARK INTER + INTRA:          -9.234
REMARK INTER:                  -8.710
REMARK INTRA:                  -0.523
REMARK UNBOUND:                -0.523
REMARK  Name = 
REMARK  6 active torsions:
REMARK  status: ('A' for Active; 'I' for Inactive)
REMARK    1  A    between atoms: C_1  and  N_2
REMARK    2  A    between atoms: N_2  and  C_21
REMARK    3  A    between atoms: C_3  and  C_5
REMARK    4  A    between atoms: C_5  and  N_6
REMARK    5  A    between atoms: C_7  and  C_8
REMARK    6  A    between atoms: C_14  and  C_15
REMARK                            x       y       z     vdW  Elec       q    Type
REMARK                         _______ _______ _______ _____ _____    ______ ____
ROOT
ATOM      6  N   UNL     1      48.679   7.260  15.113  0.00  0.00    +0.000 N 
ATOM      7  C   UNL     1      48.535   8.607  15.451  0.00  0.00    +0.000 A 
ATOM     11  C   UNL     1      48.543   8.684  16.818  0.00  0.00    +0.000 A 
ATOM     12  C   UNL     1      48.662   7.398  17.354  0.00  0.00    +0.000 A 
ATOM     13  C   UNL     1      48.677   6.860  18.643  0.00  0.00    +0.000 A 
ATOM     14  C   UNL     1      48.832   5.480  18.788  0.00  0.00    +0.000 A 
ATOM     18  C   UNL     1      48.997   4.715  17.633  0.00  0.00    +0.000 A 
ATOM     19  N   UNL     1      49.015   5.182  16.353  0.00  0.00    +0.000 NA
ATOM     20  C   UNL     1      48.804   6.515  16.280  0.00  0.00    +0.000 A 
ENDROOT
BRANCH  14  15
ATOM     15  C   UNL     1      48.841   4.813  20.111  0.00  0.00    +0.000 C 
ATOM     16  N   UNL     1      48.472   3.494  20.185  0.00  0.00    +0.000 N 
ATOM     17  O   UNL     1      49.165   5.416  21.126  0.00  0.00    +0.000 OA
ATOM     29  H   UNL     1      48.210   2.911  19.407  0.00  0.00    +0.000 HD
ATOM     30  H   UNL     1      48.488   3.065  21.102  0.00  0.00    +0.000 HD
ENDBRANCH  14  15
BRANCH   7   8
ATOM      8  C   UNL     1      48.404   9.851  14.567  0.00  0.00    +0.000 C 
ATOM      9  C   UNL     1      49.561  10.142  13.639  0.00  0.00    +0.000 C 
ATOM     10  C   UNL     1      49.248  11.113  14.734  0.00  0.00    +0.000 C 
ENDBRANCH   7   8
BRANCH   6   5
ATOM      5  C   UNL     1      48.879   6.711  13.784  0.00  0.00    +0.000 C 
BRANCH   5   3
ATOM      1  C   UNL     1      46.876   7.760  11.969  0.00  0.00    +0.000 C 
ATOM      2  N   UNL     1      46.855   6.360  12.396  0.00  0.00    +0.000 N 
ATOM      3  C   UNL     1      47.801   5.776  13.265  0.00  0.00    +0.000 C 
ATOM      4  O   UNL     1      47.727   4.588  13.583  0.00  0.00    +0.000 OA
BRANCH   2  21
ATOM     21  C   UNL     1      45.678   5.541  12.034  0.00  0.00    +0.000 C 
ATOM     22  C   UNL     1      45.419   5.419  10.515  0.00  0.00    +0.000 C 
ATOM     23  C   UNL     1      44.044   4.813  10.199  0.00  0.00    +0.000 C 
ATOM     24  C   UNL     1      43.817   3.471  10.886  0.00  0.00    +0.000 C 
ATOM     25  C   UNL     1      43.221   3.833  12.248  0.00  0.00    +0.000 C 
ATOM     26  C   UNL     1      43.135   5.360  12.239  0.00  0.00    +0.000 C 
ATOM     27  C   UNL     1      44.410   6.033  12.770  0.00  0.00    +0.000 C 
ATOM     28  N   UNL     1      43.002   5.651  10.807  0.00  0.00    +0.000 NA
ATOM     31  H   UNL     1      43.163   6.639  10.621  0.00  0.00    +0.000 HD
ENDBRANCH   2  21
ENDBRANCH   5   3
ENDBRANCH   6   5
TORSDOF 5
ENDMDL
MODEL 2
REMARK VINA RESULT:    -6.717      2.793      4.348
REMARK INTER + INTRA:          -9.203
REMARK INTER:                  -8.354
REMARK INTRA:                  -0.849
REMARK UNBOUND:                -0.523
REMARK  Name = 
REMARK  6 active torsions:
REMARK  status: ('A' for Active; 'I' for Inactive)
REMARK    1  A    between atoms: C_1  and  N_2
REMARK    2  A    between atoms: N_2  and  C_21
REMARK    3  A    between atoms: C_3  and  C_5
REMARK    4  A    between atoms: C_5  and  N_6
REMARK    5  A    between atoms: C_7  and  C_8
REMARK    6  A    between atoms: C_14  and  C_15
REMARK                            x       y       z     vdW  Elec       q    Type
REMARK                         _______ _______ _______ _____ _____    ______ ____
ROOT
ATOM      6  N   UNL     1      49.042   6.602  15.434  0.00  0.00    +0.000 N 
ATOM      7  C   UNL     1      48.974   5.792  16.569  0.00  0.00    +0.000 A 
ATOM     11  C   UNL     1      50.226   5.768  17.124  0.00  0.00    +0.000 A 
ATOM     12  C   UNL     1      51.097   6.530  16.339  0.00  0.00    +0.000 A 
ATOM     13  C   UNL     1      52.461   6.825  16.375  0.00  0.00    +0.000 A 
ATOM     14  C   UNL     1      52.988   7.664  15.392  0.00  0.00    +0.000 A 
ATOM     18  C   UNL     1      52.113   8.189  14.442  0.00  0.00    +0.000 A 
ATOM     19  N   UNL     1      50.771   7.959  14.367  0.00  0.00    +0.000 NA
ATOM     20  C   UNL     1      50.336   7.097  15.312  0.00  0.00    +0.000 A 
ENDROOT
BRANCH  14  15
ATOM     15  C   UNL     1      54.425   8.019  15.334  0.00  0.00    +0.000 C 
ATOM     16  N   UNL     1      55.026   8.134  14.106  0.00  0.00    +0.000 N 
ATOM     17  O   UNL     1      55.077   8.207  16.354  0.00  0.00    +0.000 OA
ATOM     29  H   UNL     1      54.571   8.019  13.214  0.00  0.00    +0.000 HD
ATOM     30  H   UNL     1      56.008   8.379  14.097  0.00  0.00    +0.000 HD
ENDBRANCH  14  15
BRANCH   7   8
ATOM      8  C   UNL     1      47.794   5.039  17.189  0.00  0.00    +0.000 C 
ATOM      9  C   UNL     1      48.138   3.870  18.085  0.00  0.00    +0.000 C 
ATOM     10  C   UNL     1      47.394   3.614  16.811  0.00  0.00    +0.000 C 
ENDBRANCH   7   8
BRANCH   6   5
ATOM      5  C   UNL     1      47.932   7.046  14.611  0.00  0.00    +0.000 C 
BRANCH   5   3
ATOM      1  C   UNL     1      45.731   7.842  12.899  0.00  0.00    +0.000 C 
ATOM      2  N   UNL     1      46.233   6.467  12.901  0.00  0.00    +0.000 N 
ATOM      3  C   UNL     1      47.306   6.010  13.696  0.00  0.00    +0.000 C 
ATOM      4  O   UNL     1      47.681   4.837  13.647  0.00  0.00    +0.000 OA
BRANCH   2  21
ATOM     21  C   UNL     1      45.467   5.447  12.153  0.00  0.00    +0.000 C 
ATOM     22  C   UNL     1      45.627   5.517  10.617  0.00  0.00    +0.000 C 
ATOM     23  C   UNL     1      44.605   4.642   9.878  0.00  0.00    +0.000 C 
ATOM     24  C   UNL     1      44.619   3.191  10.347  0.00  0.00    +0.000 C 
ATOM     25  C   UNL     1      43.635   3.158  11.518  0.00  0.00    +0.000 C 
ATOM     26  C   UNL     1      43.115   4.592  11.628  0.00  0.00    +0.000 C 
ATOM     27  C   UNL     1      43.973   5.469  12.551  0.00  0.00    +0.000 C 
ATOM     28  N   UNL     1      43.251   5.073  10.248  0.00  0.00    +0.000 NA
ATOM     31  H   UNL     1      43.158   6.086  10.206  0.00  0.00    +0.000 HD
ENDBRANCH   2  21
ENDBRANCH   5   3
ENDBRANCH   6   5
TORSDOF 5
ENDMDL
MODEL 3
REMARK VINA RESULT:    -6.691      2.508      8.009
REMARK INTER + INTRA:          -9.170
REMARK INTER:                  -8.474
REMARK INTRA:                  -0.696
REMARK UNBOUND:                -0.523
REMARK  Name = 
REMARK  6 active torsions:
REMARK  status: ('A' for Active; 'I' for Inactive)
REMARK    1  A    between atoms: C_1  and  N_2
REMARK    2  A    between atoms: N_2  and  C_21
REMARK    3  A    between atoms: C_3  and  C_5
REMARK    4  A    between atoms: C_5  and  N_6
REMARK    5  A    between atoms: C_7  and  C_8
REMARK    6  A    between atoms: C_14  and  C_15
REMARK                            x       y       z     vdW  Elec       q    Type
REMARK                         _______ _______ _______ _____ _____    ______ ____
ROOT
ATOM      6  N   UNL     1      46.191   5.745  12.647  0.00  0.00    +0.000 N 
ATOM      7  C   UNL     1      45.177   5.028  12.009  0.00  0.00    +0.000 A 
ATOM     11  C   UNL     1      44.350   5.941  11.411  0.00  0.00    +0.000 A 
ATOM     12  C   UNL     1      44.811   7.233  11.686  0.00  0.00    +0.000 A 
ATOM     13  C   UNL     1      44.367   8.525  11.394  0.00  0.00    +0.000 A 
ATOM     14  C   UNL     1      45.127   9.607  11.842  0.00  0.00    +0.000 A 
ATOM     18  C   UNL     1      46.309   9.337  12.531  0.00  0.00    +0.000 A 
ATOM     19  N   UNL     1      46.807   8.103  12.825  0.00  0.00    +0.000 NA
ATOM     20  C   UNL     1      45.997   7.102  12.413  0.00  0.00    +0.000 A 
ENDROOT
BRANCH  14  15
ATOM     15  C   UNL     1      44.729  11.014  11.601  0.00  0.00    +0.000 C 
ATOM     16  N   UNL     1      45.500  12.016  12.134  0.00  0.00    +0.000 N 
ATOM     17  O   UNL     1      43.734  11.291  10.944  0.00  0.00    +0.000 OA
ATOM     29  H   UNL     1      46.345  11.889  12.668  0.00  0.00    +0.000 HD
ATOM     30  H   UNL     1      45.205  12.967  11.952  0.00  0.00    +0.000 HD
ENDBRANCH  14  15
BRANCH   7   8
ATOM      8  C   UNL     1      44.933   3.520  11.906  0.00  0.00    +0.000 C 
ATOM      9  C   UNL     1      44.023   3.061  10.788  0.00  0.00    +0.000 C 
ATOM     10  C   UNL     1      43.595   2.846  12.207  0.00  0.00    +0.000 C 
ENDBRANCH   7   8
BRANCH   6   5
ATOM      5  C   UNL     1      47.378   5.201  13.281  0.00  0.00    +0.000 C 
BRANCH   5   3
ATOM      1  C   UNL     1      49.120   6.881  14.877  0.00  0.00    +0.000 C 
ATOM      2  N   UNL     1      48.224   5.907  15.502  0.00  0.00    +0.000 N 
ATOM      3  C   UNL     1      47.341   5.065  14.792  0.00  0.00    +0.000 C 
ATOM      4  O   UNL     1      46.610   4.267  15.381  0.00  0.00    +0.000 OA
BRANCH   2  21
ATOM     21  C   UNL     1      48.367   5.662  16.953  0.00  0.00    +0.000 C 
ATOM     22  C   UNL     1      48.446   6.941  17.818  0.00  0.00    +0.000 C 
ATOM     23  C   UNL     1      48.880   6.649  19.262  0.00  0.00    +0.000 C 
ATOM     24  C   UNL     1      48.005   5.602  19.942  0.00  0.00    +0.000 C 
ATOM     25  C   UNL     1      48.663   4.266  19.592  0.00  0.00    +0.000 C 
ATOM     26  C   UNL     1      49.880   4.644  18.746  0.00  0.00    +0.000 C 
ATOM     27  C   UNL     1      49.562   4.726  17.245  0.00  0.00    +0.000 C 
ATOM     28  N   UNL     1      50.192   5.990  19.243  0.00  0.00    +0.000 NA
ATOM     31  H   UNL     1      50.839   6.467  18.618  0.00  0.00    +0.000 HD
ENDBRANCH   2  21
ENDBRANCH   5   3
ENDBRANCH   6   5
TORSDOF 5
ENDMDL
MODEL 4
REMARK VINA RESULT:    -6.590      3.035      7.620
REMARK INTER + INTRA:          -9.039
REMARK INTER:                  -8.073
REMARK INTRA:                  -0.966
REMARK UNBOUND:                -0.523
REMARK  Name = 
REMARK  6 active torsions:
REMARK  status: ('A' for Active; 'I' for Inactive)
REMARK    1  A    between atoms: C_1  and  N_2
REMARK    2  A    between atoms: N_2  and  C_21
REMARK    3  A    between atoms: C_3  and  C_5
REMARK    4  A    between atoms: C_5  and  N_6
REMARK    5  A    between atoms: C_7  and  C_8
REMARK    6  A    between atoms: C_14  and  C_15
REMARK                            x       y       z     vdW  Elec       q    Type
REMARK                         _______ _______ _______ _____ _____    ______ ____
ROOT
ATOM      6  N   UNL     1      47.136   5.954  14.079  0.00  0.00    +0.000 N 
ATOM      7  C   UNL     1      47.341   4.874  14.939  0.00  0.00    +0.000 A 
ATOM     11  C   UNL     1      46.802   3.769  14.337  0.00  0.00    +0.000 A 
ATOM     12  C   UNL     1      46.229   4.140  13.116  0.00  0.00    +0.000 A 
ATOM     13  C   UNL     1      45.515   3.477  12.115  0.00  0.00    +0.000 A 
ATOM     14  C   UNL     1      45.105   4.203  10.996  0.00  0.00    +0.000 A 
ATOM     18  C   UNL     1      45.461   5.550  10.923  0.00  0.00    +0.000 A 
ATOM     19  N   UNL     1      46.176   6.246  11.851  0.00  0.00    +0.000 NA
ATOM     20  C   UNL     1      46.493   5.500  12.933  0.00  0.00    +0.000 A 
ENDROOT
BRANCH  14  15
ATOM     15  C   UNL     1      44.326   3.595   9.892  0.00  0.00    +0.000 C 
ATOM     16  N   UNL     1      44.036   4.360   8.791  0.00  0.00    +0.000 N 
ATOM     17  O   UNL     1      43.939   2.434   9.950  0.00  0.00    +0.000 OA
ATOM     29  H   UNL     1      44.327   5.314   8.643  0.00  0.00    +0.000 HD
ATOM     30  H   UNL     1      43.504   3.918   8.053  0.00  0.00    +0.000 HD
ENDBRANCH  14  15
BRANCH   7   8
ATOM      8  C   UNL     1      48.033   4.800  16.303  0.00  0.00    +0.000 C 
ATOM      9  C   UNL     1      47.927   3.484  17.041  0.00  0.00    +0.000 C 
ATOM     10  C   UNL     1      47.292   4.703  17.636  0.00  0.00    +0.000 C 
ENDBRANCH   7   8
BRANCH   6   5
ATOM      5  C   UNL     1      47.670   7.297  14.222  0.00  0.00    +0.000 C 
BRANCH   5   3
ATOM      1  C   UNL     1      48.323   9.038  11.998  0.00  0.00    +0.000 C 
ATOM      2  N   UNL     1      49.369   8.343  12.750  0.00  0.00    +0.000 N 
ATOM      3  C   UNL     1      49.128   7.491  13.849  0.00  0.00    +0.000 C 
ATOM      4  O   UNL     1      50.057   6.938  14.442  0.00  0.00    +0.000 OA
BRANCH   2  21
ATOM     21  C   UNL     1      50.751   8.396  12.229  0.00  0.00    +0.000 C 
ATOM     22  C   UNL     1      51.325   9.822  12.066  0.00  0.00    +0.000 C 
ATOM     23  C   UNL     1      52.633   9.842  11.262  0.00  0.00    +0.000 C 
ATOM     24  C   UNL     1      53.693   8.906  11.832  0.00  0.00    +0.000 C 
ATOM     25  C   UNL     1      53.424   7.562  11.151  0.00  0.00    +0.000 C 
ATOM     26  C   UNL     1      52.236   7.828  10.225  0.00  0.00    +0.000 C 
ATOM     27  C   UNL     1      50.881   7.598  10.911  0.00  0.00    +0.000 C 
ATOM     28  N   UNL     1      52.388   9.259   9.936  0.00  0.00    +0.000 NA
ATOM     31  H   UNL     1      51.541   9.636   9.515  0.00  0.00    +0.000 HD
ENDBRANCH   2  21
ENDBRANCH   5   3
ENDBRANCH   6   5
TORSDOF 5
ENDMDL
MODEL 5
REMARK VINA RESULT:    -6.548      1.711      2.015
REMARK INTER + INTRA:          -8.985
REMARK INTER:                  -8.436
REMARK INTRA:                  -0.549
REMARK UNBOUND:                -0.523
REMARK  Name = 
REMARK  6 active torsions:
REMARK  status: ('A' for Active; 'I' for Inactive)
REMARK    1  A    between atoms: C_1  and  N_2
REMARK    2  A    between atoms: N_2  and  C_21
REMARK    3  A    between atoms: C_3  and  C_5
REMARK    4  A    between atoms: C_5  and  N_6
REMARK    5  A    between atoms: C_7  and  C_8
REMARK    6  A    between atoms: C_14  and  C_15
REMARK                            x       y       z     vdW  Elec       q    Type
REMARK                         _______ _______ _______ _____ _____    ______ ____
ROOT
ATOM      6  N   UNL     1      49.028   7.557  14.640  0.00  0.00    +0.000 N 
ATOM      7  C   UNL     1      50.224   8.029  14.098  0.00  0.00    +0.000 A 
ATOM     11  C   UNL     1      51.241   7.548  14.879  0.00  0.00    +0.000 A 
ATOM     12  C   UNL     1      50.702   6.798  15.930  0.00  0.00    +0.000 A 
ATOM     13  C   UNL     1      51.227   6.124  17.035  0.00  0.00    +0.000 A 
ATOM     14  C   UNL     1      50.347   5.454  17.886  0.00  0.00    +0.000 A 
ATOM     18  C   UNL     1      48.989   5.467  17.567  0.00  0.00    +0.000 A 
ATOM     19  N   UNL     1      48.420   6.084  16.493  0.00  0.00    +0.000 NA
ATOM     20  C   UNL     1      49.318   6.760  15.742  0.00  0.00    +0.000 A 
ENDROOT
BRANCH  14  15
ATOM     15  C   UNL     1      50.804   4.728  19.095  0.00  0.00    +0.000 C 
ATOM     16  N   UNL     1      51.745   3.740  18.952  0.00  0.00    +0.000 N 
ATOM     17  O   UNL     1      50.356   4.991  20.204  0.00  0.00    +0.000 OA
ATOM     29  H   UNL     1      52.186   3.466  18.089  0.00  0.00    +0.000 HD
ATOM     30  H   UNL     1      52.039   3.262  19.795  0.00  0.00    +0.000 HD
ENDBRANCH  14  15
BRANCH   7   8
ATOM      8  C   UNL     1      50.487   8.901  12.867  0.00  0.00    +0.000 C 
ATOM      9  C   UNL     1      49.901   8.417  11.560  0.00  0.00    +0.000 C 
ATOM     10  C   UNL     1      51.389   8.492  11.703  0.00  0.00    +0.000 C 
ENDBRANCH   7   8
BRANCH   6   5
ATOM      5  C   UNL     1      47.700   7.679  14.065  0.00  0.00    +0.000 C 
BRANCH   5   3
ATOM      1  C   UNL     1      45.388   8.069  12.360  0.00  0.00    +0.000 C 
ATOM      2  N   UNL     1      46.086   6.783  12.411  0.00  0.00    +0.000 N 
ATOM      3  C   UNL     1      47.223   6.523  13.205  0.00  0.00    +0.000 C 
ATOM      4  O   UNL     1      47.766   5.416  13.199  0.00  0.00    +0.000 OA
BRANCH   2  21
ATOM     21  C   UNL     1      45.470   5.630  11.720  0.00  0.00    +0.000 C 
ATOM     22  C   UNL     1      45.798   5.530  10.213  0.00  0.00    +0.000 C 
ATOM     23  C   UNL     1      44.918   4.503   9.485  0.00  0.00    +0.000 C 
ATOM     24  C   UNL     1      44.963   3.122  10.130  0.00  0.00    +0.000 C 
ATOM     25  C   UNL     1      43.857   3.157  11.187  0.00  0.00    +0.000 C 
ATOM     26  C   UNL     1      43.246   4.553  11.061  0.00  0.00    +0.000 C 
ATOM     27  C   UNL     1      43.942   5.592  11.952  0.00  0.00    +0.000 C 
ATOM     28  N   UNL     1      43.508   4.877   9.654  0.00  0.00    +0.000 NA
ATOM     31  H   UNL     1      43.363   5.869   9.477  0.00  0.00    +0.000 HD
ENDBRANCH   2  21
ENDBRANCH   5   3
ENDBRANCH   6   5
TORSDOF 5
ENDMDL
MODEL 6
REMARK VINA RESULT:    -6.524      2.588      3.138
REMARK INTER + INTRA:          -8.955
REMARK INTER:                  -7.873
REMARK INTRA:                  -1.082
REMARK UNBOUND:                -0.523
REMARK  Name = 
REMARK  6 active torsions:
REMARK  status: ('A' for Active; 'I' for Inactive)
REMARK    1  A    between atoms: C_1  and  N_2
REMARK    2  A    between atoms: N_2  and  C_21
REMARK    3  A    between atoms: C_3  and  C_5
REMARK    4  A    between atoms: C_5  and  N_6
REMARK    5  A    between atoms: C_7  and  C_8
REMARK    6  A    between atoms: C_14  and  C_15
REMARK                            x       y       z     vdW  Elec       q    Type
REMARK                         _______ _______ _______ _____ _____    ______ ____
ROOT
ATOM      6  N   UNL     1      49.001   7.732  14.045  0.00  0.00    +0.000 N 
ATOM      7  C   UNL     1      49.536   8.480  12.996  0.00  0.00    +0.000 A 
ATOM     11  C   UNL     1      50.891   8.537  13.187  0.00  0.00    +0.000 A 
ATOM     12  C   UNL     1      51.221   7.856  14.364  0.00  0.00    +0.000 A 
ATOM     13  C   UNL     1      52.400   7.624  15.076  0.00  0.00    +0.000 A 
ATOM     14  C   UNL     1      52.335   6.861  16.242  0.00  0.00    +0.000 A 
ATOM     18  C   UNL     1      51.095   6.342  16.617  0.00  0.00    +0.000 A 
ATOM     19  N   UNL     1      49.916   6.512  15.954  0.00  0.00    +0.000 NA
ATOM     20  C   UNL     1      50.039   7.305  14.867  0.00  0.00    +0.000 A 
ENDROOT
BRANCH  14  15
ATOM     15  C   UNL     1      53.526   6.576  17.077  0.00  0.00    +0.000 C 
ATOM     16  N   UNL     1      53.592   7.118  18.336  0.00  0.00    +0.000 N 
ATOM     17  O   UNL     1      54.441   5.876  16.663  0.00  0.00    +0.000 OA
ATOM     29  H   UNL     1      52.883   7.687  18.770  0.00  0.00    +0.000 HD
ATOM     30  H   UNL     1      54.417   6.906  18.883  0.00  0.00    +0.000 HD
ENDBRANCH  14  15
BRANCH   7   8
ATOM      8  C   UNL     1      48.857   9.146  11.795  0.00  0.00    +0.000 C 
ATOM      9  C   UNL     1      49.407  10.488  11.369  0.00  0.00    +0.000 C 
ATOM     10  C   UNL     1      48.005  10.411  11.886  0.00  0.00    +0.000 C 
ENDBRANCH   7   8
BRANCH   6   5
ATOM      5  C   UNL     1      47.629   7.276  14.182  0.00  0.00    +0.000 C 
BRANCH   5   3
ATOM      1  C   UNL     1      45.413   7.789  12.384  0.00  0.00    +0.000 C 
ATOM      2  N   UNL     1      46.092   6.492  12.403  0.00  0.00    +0.000 N 
ATOM      3  C   UNL     1      47.183   6.174  13.240  0.00  0.00    +0.000 C 
ATOM      4  O   UNL     1      47.711   5.060  13.203  0.00  0.00    +0.000 OA
BRANCH   2  21
ATOM     21  C   UNL     1      45.497   5.386  11.622  0.00  0.00    +0.000 C 
ATOM     22  C   UNL     1      45.787   5.438  10.105  0.00  0.00    +0.000 C 
ATOM     23  C   UNL     1      44.924   4.451   9.306  0.00  0.00    +0.000 C 
ATOM     24  C   UNL     1      45.035   3.019   9.817  0.00  0.00    +0.000 C 
ATOM     25  C   UNL     1      43.958   2.914  10.899  0.00  0.00    +0.000 C 
ATOM     26  C   UNL     1      43.295   4.292  10.919  0.00  0.00    +0.000 C 
ATOM     27  C   UNL     1      43.978   5.269  11.887  0.00  0.00    +0.000 C 
ATOM     28  N   UNL     1      43.507   4.754   9.543  0.00  0.00    +0.000 NA
ATOM     31  H   UNL     1      43.322   5.753   9.463  0.00  0.00    +0.000 HD
ENDBRANCH   2  21
ENDBRANCH   5   3
ENDBRANCH   6   5
TORSDOF 5
ENDMDL
MODEL 7
REMARK VINA RESULT:    -6.413      2.239      7.931
REMARK INTER + INTRA:          -8.810
REMARK INTER:                  -7.902
REMARK INTRA:                  -0.908
REMARK UNBOUND:                -0.523
REMARK  Name = 
REMARK  6 active torsions:
REMARK  status: ('A' for Active; 'I' for Inactive)
REMARK    1  A    between atoms: C_1  and  N_2
REMARK    2  A    between atoms: N_2  and  C_21
REMARK    3  A    between atoms: C_3  and  C_5
REMARK    4  A    between atoms: C_5  and  N_6
REMARK    5  A    between atoms: C_7  and  C_8
REMARK    6  A    between atoms: C_14  and  C_15
REMARK                            x       y       z     vdW  Elec       q    Type
REMARK                         _______ _______ _______ _____ _____    ______ ____
ROOT
ATOM      6  N   UNL     1      47.699   5.195  14.637  0.00  0.00    +0.000 N 
ATOM      7  C   UNL     1      47.991   6.535  14.379  0.00  0.00    +0.000 A 
ATOM     11  C   UNL     1      47.245   6.911  13.295  0.00  0.00    +0.000 A 
ATOM     12  C   UNL     1      46.502   5.816  12.842  0.00  0.00    +0.000 A 
ATOM     13  C   UNL     1      45.625   5.586  11.779  0.00  0.00    +0.000 A 
ATOM     14  C   UNL     1      45.046   4.322  11.654  0.00  0.00    +0.000 A 
ATOM     18  C   UNL     1      45.351   3.364  12.620  0.00  0.00    +0.000 A 
ATOM     19  N   UNL     1      46.177   3.533  13.691  0.00  0.00    +0.000 NA
ATOM     20  C   UNL     1      46.747   4.759  13.722  0.00  0.00    +0.000 A 
ENDROOT
BRANCH  14  15
ATOM     15  C   UNL     1      44.120   3.975  10.551  0.00  0.00    +0.000 C 
ATOM     16  N   UNL     1      44.227   4.653   9.363  0.00  0.00    +0.000 N 
ATOM     17  O   UNL     1      43.269   3.104  10.683  0.00  0.00    +0.000 OA
ATOM     29  H   UNL     1      44.905   5.368   9.152  0.00  0.00    +0.000 HD
ATOM     30  H   UNL     1      43.582   4.394   8.627  0.00  0.00    +0.000 HD
ENDBRANCH  14  15
BRANCH   7   8
ATOM      8  C   UNL     1      48.926   7.510  15.100  0.00  0.00    +0.000 C 
ATOM      9  C   UNL     1      49.391   8.710  14.304  0.00  0.00    +0.000 C 
ATOM     10  C   UNL     1      50.402   7.699  14.750  0.00  0.00    +0.000 C 
ENDBRANCH   7   8
BRANCH   6   5
ATOM      5  C   UNL     1      48.132   4.411  15.780  0.00  0.00    +0.000 C 
BRANCH   5   3
ATOM      1  C   UNL     1      50.204   5.370  17.567  0.00  0.00    +0.000 C 
ATOM      2  N   UNL     1      48.796   5.369  17.968  0.00  0.00    +0.000 N 
ATOM      3  C   UNL     1      47.734   4.930  17.150  0.00  0.00    +0.000 C 
ATOM      4  O   UNL     1      46.568   4.958  17.549  0.00  0.00    +0.000 OA
BRANCH   2  21
ATOM     21  C   UNL     1      48.475   5.686  19.376  0.00  0.00    +0.000 C 
ATOM     22  C   UNL     1      49.004   7.052  19.867  0.00  0.00    +0.000 C 
ATOM     23  C   UNL     1      48.902   7.211  21.391  0.00  0.00    +0.000 C 
ATOM     24  C   UNL     1      47.492   6.969  21.918  0.00  0.00    +0.000 C 
ATOM     25  C   UNL     1      47.435   5.462  22.182  0.00  0.00    +0.000 C 
ATOM     26  C   UNL     1      48.825   4.950  21.801  0.00  0.00    +0.000 C 
ATOM     27  C   UNL     1      48.929   4.549  20.321  0.00  0.00    +0.000 C 
ATOM     28  N   UNL     1      49.662   6.132  22.036  0.00  0.00    +0.000 NA
ATOM     31  H   UNL     1      50.580   6.018  21.609  0.00  0.00    +0.000 HD
ENDBRANCH   2  21
ENDBRANCH   5   3
ENDBRANCH   6   5
TORSDOF 5
ENDMDL
MODEL 8
REMARK VINA RESULT:    -6.399      2.175      7.266
REMARK INTER + INTRA:          -8.793
REMARK INTER:                  -7.829
REMARK INTRA:                  -0.964
REMARK UNBOUND:                -0.523
REMARK  Name = 
REMARK  6 active torsions:
REMARK  status: ('A' for Active; 'I' for Inactive)
REMARK    1  A    between atoms: C_1  and  N_2
REMARK    2  A    between atoms: N_2  and  C_21
REMARK    3  A    between atoms: C_3  and  C_5
REMARK    4  A    between atoms: C_5  and  N_6
REMARK    5  A    between atoms: C_7  and  C_8
REMARK    6  A    between atoms: C_14  and  C_15
REMARK                            x       y       z     vdW  Elec       q    Type
REMARK                         _______ _______ _______ _____ _____    ______ ____
ROOT
ATOM      6  N   UNL     1      48.503   7.269  13.666  0.00  0.00    +0.000 N 
ATOM      7  C   UNL     1      48.121   8.344  12.863  0.00  0.00    +0.000 A 
ATOM     11  C   UNL     1      47.011   7.953  12.162  0.00  0.00    +0.000 A 
ATOM     12  C   UNL     1      46.700   6.629  12.490  0.00  0.00    +0.000 A 
ATOM     13  C   UNL     1      45.738   5.706  12.073  0.00  0.00    +0.000 A 
ATOM     14  C   UNL     1      45.733   4.439  12.658  0.00  0.00    +0.000 A 
ATOM     18  C   UNL     1      46.671   4.174  13.656  0.00  0.00    +0.000 A 
ATOM     19  N   UNL     1      47.617   5.038  14.122  0.00  0.00    +0.000 NA
ATOM     20  C   UNL     1      47.604   6.224  13.476  0.00  0.00    +0.000 A 
ENDROOT
BRANCH  14  15
ATOM     15  C   UNL     1      44.766   3.385  12.270  0.00  0.00    +0.000 C 
ATOM     16  N   UNL     1      44.946   2.735  11.075  0.00  0.00    +0.000 N 
ATOM     17  O   UNL     1      43.819   3.092  12.989  0.00  0.00    +0.000 OA
ATOM     29  H   UNL     1      45.703   2.890  10.428  0.00  0.00    +0.000 HD
ATOM     30  H   UNL     1      44.271   2.019  10.837  0.00  0.00    +0.000 HD
ENDBRANCH  14  15
BRANCH   7   8
ATOM      8  C   UNL     1      48.724   9.744  12.714  0.00  0.00    +0.000 C 
ATOM      9  C   UNL     1      48.517  10.428  11.381  0.00  0.00    +0.000 C 
ATOM     10  C   UNL     1      49.908  10.075  11.807  0.00  0.00    +0.000 C 
ENDBRANCH   7   8
BRANCH   6   5
ATOM      5  C   UNL     1      49.529   7.268  14.693  0.00  0.00    +0.000 C 
BRANCH   5   3
ATOM      1  C   UNL     1      50.719   5.797  16.890  0.00  0.00    +0.000 C 
ATOM      2  N   UNL     1      49.689   6.811  17.125  0.00  0.00    +0.000 N 
ATOM      3  C   UNL     1      49.074   7.574  16.109  0.00  0.00    +0.000 C 
ATOM      4  O   UNL     1      48.213   8.414  16.376  0.00  0.00    +0.000 OA
BRANCH   2  21
ATOM     21  C   UNL     1      49.130   6.931  18.489  0.00  0.00    +0.000 C 
ATOM     22  C   UNL     1      49.942   7.839  19.441  0.00  0.00    +0.000 C 
ATOM     23  C   UNL     1      49.495   7.706  20.904  0.00  0.00    +0.000 C 
ATOM     24  C   UNL     1      48.001   7.943  21.091  0.00  0.00    +0.000 C 
ATOM     25  C   UNL     1      47.366   6.566  20.887  0.00  0.00    +0.000 C 
ATOM     26  C   UNL     1      48.546   5.633  20.613  0.00  0.00    +0.000 C 
ATOM     27  C   UNL     1      48.899   5.539  19.121  0.00  0.00    +0.000 C 
ATOM     28  N   UNL     1      49.640   6.306  21.322  0.00  0.00    +0.000 NA
ATOM     31  H   UNL     1      50.542   5.925  21.043  0.00  0.00    +0.000 HD
ENDBRANCH   2  21
ENDBRANCH   5   3
ENDBRANCH   6   5
TORSDOF 5
ENDMDL
MODEL 9
REMARK VINA RESULT:    -6.312      2.210      7.234
REMARK INTER + INTRA:          -8.680
REMARK INTER:                  -8.132
REMARK INTRA:                  -0.549
REMARK UNBOUND:                -0.523
REMARK  Name = 
REMARK  6 active torsions:
REMARK  status: ('A' for Active; 'I' for Inactive)
REMARK    1  A    between atoms: C_1  and  N_2
REMARK    2  A    between atoms: N_2  and  C_21
REMARK    3  A    between atoms: C_3  and  C_5
REMARK    4  A    between atoms: C_5  and  N_6
REMARK    5  A    between atoms: C_7  and  C_8
REMARK    6  A    between atoms: C_14  and  C_15
REMARK                            x       y       z     vdW  Elec       q    Type
REMARK                         _______ _______ _______ _____ _____    ______ ____
ROOT
ATOM      6  N   UNL     1      47.779   7.132  13.236  0.00  0.00    +0.000 N 
ATOM      7  C   UNL     1      47.289   8.325  12.701  0.00  0.00    +0.000 A 
ATOM     11  C   UNL     1      46.069   8.049  12.145  0.00  0.00    +0.000 A 
ATOM     12  C   UNL     1      45.789   6.687  12.295  0.00  0.00    +0.000 A 
ATOM     13  C   UNL     1      44.750   5.841  11.901  0.00  0.00    +0.000 A 
ATOM     14  C   UNL     1      44.815   4.493  12.259  0.00  0.00    +0.000 A 
ATOM     18  C   UNL     1      45.903   4.071  13.022  0.00  0.00    +0.000 A 
ATOM     19  N   UNL     1      46.934   4.850  13.458  0.00  0.00    +0.000 NA
ATOM     20  C   UNL     1      46.838   6.129  13.030  0.00  0.00    +0.000 A 
ENDROOT
BRANCH  14  15
ATOM     15  C   UNL     1      43.774   3.514  11.871  0.00  0.00    +0.000 C 
ATOM     16  N   UNL     1      43.760   2.288  12.488  0.00  0.00    +0.000 N 
ATOM     17  O   UNL     1      42.937   3.778  11.016  0.00  0.00    +0.000 OA
ATOM     29  H   UNL     1      44.390   1.987  13.214  0.00  0.00    +0.000 HD
ATOM     30  H   UNL     1      43.037   1.640  12.203  0.00  0.00    +0.000 HD
ENDBRANCH  14  15
BRANCH   7   8
ATOM      8  C   UNL     1      47.889   9.734  12.687  0.00  0.00    +0.000 C 
ATOM      9  C   UNL     1      47.313  10.701  11.677  0.00  0.00    +0.000 C 
ATOM     10  C   UNL     1      48.747  10.289  11.550  0.00  0.00    +0.000 C 
ENDBRANCH   7   8
BRANCH   6   5
ATOM      5  C   UNL     1      48.964   6.966  14.057  0.00  0.00    +0.000 C 
BRANCH   5   3
ATOM      1  C   UNL     1      48.803   9.116  15.995  0.00  0.00    +0.000 C 
ATOM      2  N   UNL     1      48.680   7.716  16.403  0.00  0.00    +0.000 N 
ATOM      3  C   UNL     1      48.736   6.618  15.517  0.00  0.00    +0.000 C 
ATOM      4  O   UNL     1      48.622   5.462  15.927  0.00  0.00    +0.000 OA
BRANCH   2  21
ATOM     21  C   UNL     1      48.666   7.413  17.850  0.00  0.00    +0.000 C 
ATOM     22  C   UNL     1      47.678   8.266  18.679  0.00  0.00    +0.000 C 
ATOM     23  C   UNL     1      47.902   8.124  20.191  0.00  0.00    +0.000 C 
ATOM     24  C   UNL     1      47.871   6.673  20.660  0.00  0.00    +0.000 C 
ATOM     25  C   UNL     1      49.317   6.192  20.512  0.00  0.00    +0.000 C 
ATOM     26  C   UNL     1      50.077   7.408  19.983  0.00  0.00    +0.000 C 
ATOM     27  C   UNL     1      50.089   7.484  18.449  0.00  0.00    +0.000 C 
ATOM     28  N   UNL     1      49.279   8.522  20.510  0.00  0.00    +0.000 NA
ATOM     31  H   UNL     1      49.529   9.396  20.052  0.00  0.00    +0.000 HD
ENDBRANCH   2  21
ENDBRANCH   5   3
ENDBRANCH   6   5
TORSDOF 5
ENDMDL
