MODEL 1
REMARK VINA RESULT:    -7.036      0.000      0.000
REMARK INTER + INTRA:         -13.701
REMARK INTER:                 -12.383
REMARK INTRA:                  -1.318
REMARK UNBOUND:                -1.318
REMARK  Name = 
REMARK  15 active torsions:
REMARK  status: ('A' for Active; 'I' for Inactive)
REMARK    1  A    between atoms: C_1  and  C_2
REMARK    2  A    between atoms: C_2  and  C_3
REMARK    3  A    between atoms: C_3  and  C_4
REMARK    4  A    between atoms: C_4  and  C_5
REMARK    5  A    between atoms: C_5  and  C_6
REMARK    6  A    between atoms: C_6  and  C_7
REMARK    7  A    between atoms: C_7  and  C_8
REMARK    8  A    between atoms: C_8  and  N_9
REMARK    9  A    between atoms: N_9  and  C_10
REMARK   10  A    between atoms: N_9  and  C_12
REMARK   11  A    between atoms: C_10  and  C_11
REMARK   12  A    between atoms: C_12  and  C_13
REMARK   13  A    between atoms: C_16  and  C_17
REMARK   14  A    between atoms: C_17  and  N_18
REMARK   15  A    between atoms: C_19  and  C_21
REMARK                            x       y       z     vdW  Elec       q    Type
REMARK                         _______ _______ _______ _____ _____    ______ ____
ROOT
ATOM     13  C   UNL     1      46.239   4.316  13.245  0.00  0.00    +0.000 A 
ATOM     14  C   UNL     1      46.643   3.909  14.524  0.00  0.00    +0.000 A 
ATOM     15  C   UNL     1      47.464   4.729  15.307  0.00  0.00    +0.000 A 
ATOM     16  C   UNL     1      47.884   5.979  14.835  0.00  0.00    +0.000 A 
ATOM     31  C   UNL     1      47.464   6.392  13.562  0.00  0.00    +0.000 A 
ATOM     32  C   UNL     1      46.644   5.574  12.780  0.00  0.00    +0.000 A 
ENDROOT
BRANCH  13  12
ATOM     12  C   UNL     1      45.398   3.408  12.365  0.00  0.00    +0.000 C 
BRANCH  12   9
ATOM      9  N   UNL     1      44.469   4.127  11.477  0.00  0.00    +0.000 NA
BRANCH   9  10
ATOM     10  C   UNL     1      43.178   4.389  12.142  0.00  0.00    +0.000 C 
ATOM     11  C   UNL     1      42.435   5.658  11.727  0.00  0.00    +0.000 C 
ENDBRANCH   9  10
BRANCH   9   8
ATOM      8  C   UNL     1      44.348   3.439  10.179  0.00  0.00    +0.000 C 
BRANCH   8   7
ATOM      7  C   UNL     1      44.817   4.301   9.010  0.00  0.00    +0.000 C 
BRANCH   7   6
ATOM      6  C   UNL     1      45.330   3.460   7.847  0.00  0.00    +0.000 C 
BRANCH   6   5
ATOM      5  C   UNL     1      45.780   2.109   8.393  0.00  0.00    +0.000 C 
BRANCH   5   4
ATOM      4  C   UNL     1      46.875   1.494   7.538  0.00  0.00    +0.000 C 
BRANCH   4   3
ATOM      3  C   UNL     1      47.627   2.583   6.779  0.00  0.00    +0.000 C 
BRANCH   3   2
ATOM      1  C   UNL     1      47.214   0.873   4.987  0.00  0.00    +0.000 C 
ATOM      2  C   UNL     1      47.588   2.314   5.280  0.00  0.00    +0.000 C 
ENDBRANCH   3   2
ENDBRANCH   4   3
ENDBRANCH   5   4
ENDBRANCH   6   5
ENDBRANCH   7   6
ENDBRANCH   8   7
ENDBRANCH   9   8
ENDBRANCH  12   9
ENDBRANCH  13  12
BRANCH  16  17
ATOM     17  C   UNL     1      48.808   6.853  15.644  0.00  0.00    +0.000 C 
BRANCH  17  18
ATOM     18  N   UNL     1      49.896   6.085  16.193  0.00  0.00    +0.000 N 
ATOM     19  C   UNL     1      49.888   5.646  17.496  0.00  0.00    +0.000 C 
ATOM     20  O   UNL     1      48.948   5.869  18.257  0.00  0.00    +0.000 OA
ATOM     33  H   UNL     1      50.770   6.097  15.683  0.00  0.00    +0.000 HD
BRANCH  19  21
ATOM     21  C   UNL     1      51.038   4.833  17.912  0.00  0.00    +0.000 A 
ATOM     22  C   UNL     1      52.108   5.432  18.558  0.00  0.00    +0.000 A 
ATOM     23  S   UNL     1      53.324   4.329  19.030  0.00  0.00    +0.000 S 
ATOM     24  C   UNL     1      52.485   3.026  18.329  0.00  0.00    +0.000 A 
ATOM     25  N   UNL     1      53.007   1.767  18.356  0.00  0.00    +0.000 NA
ATOM     26  C   UNL     1      52.278   0.878  17.767  0.00  0.00    +0.000 A 
ATOM     27  N   UNL     1      51.077   1.128  17.158  0.00  0.00    +0.000 N 
ATOM     28  C   UNL     1      50.498   2.377  17.140  0.00  0.00    +0.000 A 
ATOM     29  O   UNL     1      49.394   2.558  16.635  0.00  0.00    +0.000 OA
ATOM     30  C   UNL     1      51.288   3.418  17.770  0.00  0.00    +0.000 A 
ATOM     34  H   UNL     1      50.548   0.388  16.728  0.00  0.00    +0.000 HD
ENDBRANCH  19  21
ENDBRANCH  17  18
ENDBRANCH  16  17
TORSDOF 13
ENDMDL
MODEL 2
REMARK VINA RESULT:    -6.670      2.380      2.959
REMARK INTER + INTRA:         -13.057
REMARK INTER:                 -11.795
REMARK INTRA:                  -1.262
REMARK UNBOUND:                -1.318
REMARK  Name = 
REMARK  15 active torsions:
REMARK  status: ('A' for Active; 'I' for Inactive)
REMARK    1  A    between atoms: C_1  and  C_2
REMARK    2  A    between atoms: C_2  and  C_3
REMARK    3  A    between atoms: C_3  and  C_4
REMARK    4  A    between atoms: C_4  and  C_5
REMARK    5  A    between atoms: C_5  and  C_6
REMARK    6  A    between atoms: C_6  and  C_7
REMARK    7  A    between atoms: C_7  and  C_8
REMARK    8  A    between atoms: C_8  and  N_9
REMARK    9  A    between atoms: N_9  and  C_10
REMARK   10  A    between atoms: N_9  and  C_12
REMARK   11  A    between atoms: C_10  and  C_11
REMARK   12  A    between atoms: C_12  and  C_13
REMARK   13  A    between atoms: C_16  and  C_17
REMARK   14  A    between atoms: C_17  and  N_18
REMARK   15  A    between atoms: C_19  and  C_21
REMARK                            x       y       z     vdW  Elec       q    Type
REMARK                         _______ _______ _______ _____ _____    ______ ____
ROOT
ATOM     13  C   UNL     1      44.959   6.729  11.414  0.00  0.00    +0.000 A 
ATOM     14  C   UNL     1      44.988   7.612  12.502  0.00  0.00    +0.000 A 
ATOM     15  C   UNL     1      46.205   8.009  13.068  0.00  0.00    +0.000 A 
ATOM     16  C   UNL     1      47.419   7.544  12.546  0.00  0.00    +0.000 A 
ATOM     31  C   UNL     1      47.390   6.675  11.446  0.00  0.00    +0.000 A 
ATOM     32  C   UNL     1      46.174   6.279  10.881  0.00  0.00    +0.000 A 
ENDROOT
BRANCH  13  12
ATOM     12  C   UNL     1      43.642   6.248  10.833  0.00  0.00    +0.000 C 
BRANCH  12   9
ATOM      9  N   UNL     1      43.491   4.783  10.822  0.00  0.00    +0.000 NA
BRANCH   9  10
ATOM     10  C   UNL     1      43.899   4.188  12.109  0.00  0.00    +0.000 C 
ATOM     11  C   UNL     1      43.079   4.577  13.338  0.00  0.00    +0.000 C 
ENDBRANCH   9  10
BRANCH   9   8
ATOM      8  C   UNL     1      44.160   4.196   9.648  0.00  0.00    +0.000 C 
BRANCH   8   7
ATOM      7  C   UNL     1      44.452   2.708   9.819  0.00  0.00    +0.000 C 
BRANCH   7   6
ATOM      6  C   UNL     1      45.455   2.198   8.791  0.00  0.00    +0.000 C 
BRANCH   6   5
ATOM      5  C   UNL     1      45.560   3.228   7.671  0.00  0.00    +0.000 C 
BRANCH   5   4
ATOM      4  C   UNL     1      46.947   3.245   7.050  0.00  0.00    +0.000 C 
BRANCH   4   3
ATOM      3  C   UNL     1      46.867   2.887   5.570  0.00  0.00    +0.000 C 
BRANCH   3   2
ATOM      1  C   UNL     1      46.855   0.910   4.021  0.00  0.00    +0.000 C 
ATOM      2  C   UNL     1      47.370   1.468   5.334  0.00  0.00    +0.000 C 
ENDBRANCH   3   2
ENDBRANCH   4   3
ENDBRANCH   5   4
ENDBRANCH   6   5
ENDBRANCH   7   6
ENDBRANCH   8   7
ENDBRANCH   9   8
ENDBRANCH  12   9
ENDBRANCH  13  12
BRANCH  16  17
ATOM     17  C   UNL     1      48.738   7.921  13.174  0.00  0.00    +0.000 C 
BRANCH  17  18
ATOM     18  N   UNL     1      49.013   7.102  14.327  0.00  0.00    +0.000 N 
ATOM     19  C   UNL     1      48.789   7.555  15.607  0.00  0.00    +0.000 C 
ATOM     20  O   UNL     1      48.327   8.671  15.835  0.00  0.00    +0.000 OA
ATOM     33  H   UNL     1      49.609   6.298  14.187  0.00  0.00    +0.000 HD
BRANCH  19  21
ATOM     21  C   UNL     1      49.068   6.602  16.687  0.00  0.00    +0.000 A 
ATOM     22  C   UNL     1      49.967   6.938  17.688  0.00  0.00    +0.000 A 
ATOM     23  S   UNL     1      50.119   5.742  18.898  0.00  0.00    +0.000 S 
ATOM     24  C   UNL     1      49.034   4.712  18.089  0.00  0.00    +0.000 A 
ATOM     25  N   UNL     1      48.738   3.480  18.591  0.00  0.00    +0.000 NA
ATOM     26  C   UNL     1      47.920   2.794  17.863  0.00  0.00    +0.000 A 
ATOM     27  N   UNL     1      47.367   3.225  16.687  0.00  0.00    +0.000 N 
ATOM     28  C   UNL     1      47.612   4.475  16.165  0.00  0.00    +0.000 A 
ATOM     29  O   UNL     1      47.058   4.853  15.136  0.00  0.00    +0.000 OA
ATOM     30  C   UNL     1      48.544   5.279  16.932  0.00  0.00    +0.000 A 
ATOM     34  H   UNL     1      46.723   2.648  16.173  0.00  0.00    +0.000 HD
ENDBRANCH  19  21
ENDBRANCH  17  18
ENDBRANCH  16  17
TORSDOF 13
ENDMDL
MODEL 3
REMARK VINA RESULT:    -6.649      4.203     10.396
REMARK INTER + INTRA:         -13.020
REMARK INTER:                 -10.201
REMARK INTRA:                  -2.819
REMARK UNBOUND:                -1.318
REMARK  Name = 
REMARK  15 active torsions:
REMARK  status: ('A' for Active; 'I' for Inactive)
REMARK    1  A    between atoms: C_1  and  C_2
REMARK    2  A    between atoms: C_2  and  C_3
REMARK    3  A    between atoms: C_3  and  C_4
REMARK    4  A    between atoms: C_4  and  C_5
REMARK    5  A    between atoms: C_5  and  C_6
REMARK    6  A    between atoms: C_6  and  C_7
REMARK    7  A    between atoms: C_7  and  C_8
REMARK    8  A    between atoms: C_8  and  N_9
REMARK    9  A    between atoms: N_9  and  C_10
REMARK   10  A    between atoms: N_9  and  C_12
REMARK   11  A    between atoms: C_10  and  C_11
REMARK   12  A    between atoms: C_12  and  C_13
REMARK   13  A    between atoms: C_16  and  C_17
REMARK   14  A    between atoms: C_17  and  N_18
REMARK   15  A    between atoms: C_19  and  C_21
REMARK                            x       y       z     vdW  Elec       q    Type
REMARK                         _______ _______ _______ _____ _____    ______ ____
ROOT
ATOM     13  C   UNL     1      51.472   4.285  17.629  0.00  0.00    +0.000 A 
ATOM     14  C   UNL     1      50.625   5.366  17.350  0.00  0.00    +0.000 A 
ATOM     15  C   UNL     1      49.269   5.158  17.070  0.00  0.00    +0.000 A 
ATOM     16  C   UNL     1      48.730   3.865  17.079  0.00  0.00    +0.000 A 
ATOM     31  C   UNL     1      49.574   2.786  17.375  0.00  0.00    +0.000 A 
ATOM     32  C   UNL     1      50.928   2.994  17.656  0.00  0.00    +0.000 A 
ENDROOT
BRANCH  13  12
ATOM     12  C   UNL     1      52.955   4.497  17.875  0.00  0.00    +0.000 C 
BRANCH  12   9
ATOM      9  N   UNL     1      53.253   5.376  19.019  0.00  0.00    +0.000 NA
BRANCH   9  10
ATOM     10  C   UNL     1      54.186   6.454  18.643  0.00  0.00    +0.000 C 
ATOM     11  C   UNL     1      54.798   6.378  17.245  0.00  0.00    +0.000 C 
ENDBRANCH   9  10
BRANCH   9   8
ATOM      8  C   UNL     1      53.683   4.587  20.187  0.00  0.00    +0.000 C 
BRANCH   8   7
ATOM      7  C   UNL     1      52.585   4.443  21.237  0.00  0.00    +0.000 C 
BRANCH   7   6
ATOM      6  C   UNL     1      51.509   5.513  21.091  0.00  0.00    +0.000 C 
BRANCH   6   5
ATOM      5  C   UNL     1      50.235   5.006  21.760  0.00  0.00    +0.000 C 
BRANCH   5   4
ATOM      4  C   UNL     1      49.136   4.738  20.745  0.00  0.00    +0.000 C 
BRANCH   4   3
ATOM      3  C   UNL     1      47.870   5.500  21.125  0.00  0.00    +0.000 C 
BRANCH   3   2
ATOM      1  C   UNL     1      48.145   7.559  19.715  0.00  0.00    +0.000 C 
ATOM      2  C   UNL     1      47.343   6.289  19.933  0.00  0.00    +0.000 C 
ENDBRANCH   3   2
ENDBRANCH   4   3
ENDBRANCH   5   4
ENDBRANCH   6   5
ENDBRANCH   7   6
ENDBRANCH   8   7
ENDBRANCH   9   8
ENDBRANCH  12   9
ENDBRANCH  13  12
BRANCH  16  17
ATOM     17  C   UNL     1      47.283   3.617  16.730  0.00  0.00    +0.000 C 
BRANCH  17  18
ATOM     18  N   UNL     1      46.818   4.568  15.753  0.00  0.00    +0.000 N 
ATOM     19  C   UNL     1      46.821   4.284  14.407  0.00  0.00    +0.000 C 
ATOM     20  O   UNL     1      47.203   3.202  13.967  0.00  0.00    +0.000 OA
ATOM     33  H   UNL     1      46.733   5.530  16.053  0.00  0.00    +0.000 HD
BRANCH  19  21
ATOM     21  C   UNL     1      46.276   5.324  13.527  0.00  0.00    +0.000 A 
ATOM     22  C   UNL     1      47.030   6.453  13.243  0.00  0.00    +0.000 A 
ATOM     23  S   UNL     1      46.271   7.524  12.150  0.00  0.00    +0.000 S 
ATOM     24  C   UNL     1      44.885   6.541  12.071  0.00  0.00    +0.000 A 
ATOM     25  N   UNL     1      43.814   6.908  11.311  0.00  0.00    +0.000 NA
ATOM     26  C   UNL     1      42.821   6.083  11.361  0.00  0.00    +0.000 A 
ATOM     27  N   UNL     1      42.800   4.926  12.093  0.00  0.00    +0.000 N 
ATOM     28  C   UNL     1      43.873   4.502  12.844  0.00  0.00    +0.000 A 
ATOM     29  O   UNL     1      43.843   3.431  13.446  0.00  0.00    +0.000 OA
ATOM     30  C   UNL     1      45.008   5.405  12.841  0.00  0.00    +0.000 A 
ATOM     34  H   UNL     1      42.000   4.316  12.079  0.00  0.00    +0.000 HD
ENDBRANCH  19  21
ENDBRANCH  17  18
ENDBRANCH  16  17
TORSDOF 13
ENDMDL
MODEL 4
REMARK VINA RESULT:    -6.510      3.133      3.745
REMARK INTER + INTRA:         -12.775
REMARK INTER:                 -11.583
REMARK INTRA:                  -1.192
REMARK UNBOUND:                -1.318
REMARK  Name = 
REMARK  15 active torsions:
REMARK  status: ('A' for Active; 'I' for Inactive)
REMARK    1  A    between atoms: C_1  and  C_2
REMARK    2  A    between atoms: C_2  and  C_3
REMARK    3  A    between atoms: C_3  and  C_4
REMARK    4  A    between atoms: C_4  and  C_5
REMARK    5  A    between atoms: C_5  and  C_6
REMARK    6  A    between atoms: C_6  and  C_7
REMARK    7  A    between atoms: C_7  and  C_8
REMARK    8  A    between atoms: C_8  and  N_9
REMARK    9  A    between atoms: N_9  and  C_10
REMARK   10  A    between atoms: N_9  and  C_12
REMARK   11  A    between atoms: C_10  and  C_11
REMARK   12  A    between atoms: C_12  and  C_13
REMARK   13  A    between atoms: C_16  and  C_17
REMARK   14  A    between atoms: C_17  and  N_18
REMARK   15  A    between atoms: C_19  and  C_21
REMARK                            x       y       z     vdW  Elec       q    Type
REMARK                         _______ _______ _______ _____ _____    ______ ____
ROOT
ATOM     13  C   UNL     1      45.962   4.545  12.719  0.00  0.00    +0.000 A 
ATOM     14  C   UNL     1      46.289   5.719  12.027  0.00  0.00    +0.000 A 
ATOM     15  C   UNL     1      47.181   6.647  12.578  0.00  0.00    +0.000 A 
ATOM     16  C   UNL     1      47.777   6.412  13.824  0.00  0.00    +0.000 A 
ATOM     31  C   UNL     1      47.462   5.228  14.507  0.00  0.00    +0.000 A 
ATOM     32  C   UNL     1      46.572   4.301  13.957  0.00  0.00    +0.000 A 
ENDROOT
BRANCH  13  12
ATOM     12  C   UNL     1      44.951   3.562  12.157  0.00  0.00    +0.000 C 
BRANCH  12   9
ATOM      9  N   UNL     1      44.288   4.023  10.925  0.00  0.00    +0.000 NA
BRANCH   9  10
ATOM     10  C   UNL     1      42.999   4.678  11.219  0.00  0.00    +0.000 C 
ATOM     11  C   UNL     1      42.740   5.068  12.673  0.00  0.00    +0.000 C 
ENDBRANCH   9  10
BRANCH   9   8
ATOM      8  C   UNL     1      44.198   2.932   9.939  0.00  0.00    +0.000 C 
BRANCH   8   7
ATOM      7  C   UNL     1      45.430   2.846   9.043  0.00  0.00    +0.000 C 
BRANCH   7   6
ATOM      6  C   UNL     1      45.227   3.568   7.716  0.00  0.00    +0.000 C 
BRANCH   6   5
ATOM      5  C   UNL     1      46.408   3.243   6.807  0.00  0.00    +0.000 C 
BRANCH   5   4
ATOM      4  C   UNL     1      47.158   2.009   7.280  0.00  0.00    +0.000 C 
BRANCH   4   3
ATOM      3  C   UNL     1      47.382   1.050   6.115  0.00  0.00    +0.000 C 
BRANCH   3   2
ATOM      1  C   UNL     1      46.631   0.823   3.730  0.00  0.00    +0.000 C 
ATOM      2  C   UNL     1      47.177   1.765   4.786  0.00  0.00    +0.000 C 
ENDBRANCH   3   2
ENDBRANCH   4   3
ENDBRANCH   5   4
ENDBRANCH   6   5
ENDBRANCH   7   6
ENDBRANCH   8   7
ENDBRANCH   9   8
ENDBRANCH  12   9
ENDBRANCH  13  12
BRANCH  16  17
ATOM     17  C   UNL     1      48.700   7.423  14.455  0.00  0.00    +0.000 C 
BRANCH  17  18
ATOM     18  N   UNL     1      48.300   7.715  15.808  0.00  0.00    +0.000 N 
ATOM     19  C   UNL     1      49.134   7.481  16.876  0.00  0.00    +0.000 C 
ATOM     20  O   UNL     1      50.269   7.030  16.735  0.00  0.00    +0.000 OA
ATOM     33  H   UNL     1      47.312   7.848  15.975  0.00  0.00    +0.000 HD
BRANCH  19  21
ATOM     21  C   UNL     1      48.618   7.867  18.195  0.00  0.00    +0.000 A 
ATOM     22  C   UNL     1      48.481   9.209  18.516  0.00  0.00    +0.000 A 
ATOM     23  S   UNL     1      47.804   9.476  20.061  0.00  0.00    +0.000 S 
ATOM     24  C   UNL     1      47.729   7.805  20.372  0.00  0.00    +0.000 A 
ATOM     25  N   UNL     1      47.261   7.340  21.565  0.00  0.00    +0.000 NA
ATOM     26  C   UNL     1      47.282   6.052  21.677  0.00  0.00    +0.000 A 
ATOM     27  N   UNL     1      47.722   5.189  20.709  0.00  0.00    +0.000 N 
ATOM     28  C   UNL     1      48.169   5.616  19.479  0.00  0.00    +0.000 A 
ATOM     29  O   UNL     1      48.504   4.814  18.612  0.00  0.00    +0.000 OA
ATOM     30  C   UNL     1      48.187   7.057  19.309  0.00  0.00    +0.000 A 
ATOM     34  H   UNL     1      47.700   4.194  20.851  0.00  0.00    +0.000 HD
ENDBRANCH  19  21
ENDBRANCH  17  18
ENDBRANCH  16  17
TORSDOF 13
ENDMDL
MODEL 5
REMARK VINA RESULT:    -6.253      4.474      9.396
REMARK INTER + INTRA:         -12.323
REMARK INTER:                  -9.379
REMARK INTRA:                  -2.943
REMARK UNBOUND:                -1.318
REMARK  Name = 
REMARK  15 active torsions:
REMARK  status: ('A' for Active; 'I' for Inactive)
REMARK    1  A    between atoms: C_1  and  C_2
REMARK    2  A    between atoms: C_2  and  C_3
REMARK    3  A    between atoms: C_3  and  C_4
REMARK    4  A    between atoms: C_4  and  C_5
REMARK    5  A    between atoms: C_5  and  C_6
REMARK    6  A    between atoms: C_6  and  C_7
REMARK    7  A    between atoms: C_7  and  C_8
REMARK    8  A    between atoms: C_8  and  N_9
REMARK    9  A    between atoms: N_9  and  C_10
REMARK   10  A    between atoms: N_9  and  C_12
REMARK   11  A    between atoms: C_10  and  C_11
REMARK   12  A    between atoms: C_12  and  C_13
REMARK   13  A    between atoms: C_16  and  C_17
REMARK   14  A    between atoms: C_17  and  N_18
REMARK   15  A    between atoms: C_19  and  C_21
REMARK                            x       y       z     vdW  Elec       q    Type
REMARK                         _______ _______ _______ _____ _____    ______ ____
ROOT
ATOM     13  C   UNL     1      48.682   9.326  19.028  0.00  0.00    +0.000 A 
ATOM     14  C   UNL     1      49.863   8.593  18.846  0.00  0.00    +0.000 A 
ATOM     15  C   UNL     1      50.121   7.945  17.632  0.00  0.00    +0.000 A 
ATOM     16  C   UNL     1      49.211   8.031  16.570  0.00  0.00    +0.000 A 
ATOM     31  C   UNL     1      48.039   8.780  16.748  0.00  0.00    +0.000 A 
ATOM     32  C   UNL     1      47.782   9.428  17.960  0.00  0.00    +0.000 A 
ENDROOT
BRANCH  13  12
ATOM     12  C   UNL     1      48.368   9.983  20.360  0.00  0.00    +0.000 C 
BRANCH  12   9
ATOM      9  N   UNL     1      47.348   9.274  21.152  0.00  0.00    +0.000 NA
BRANCH   9  10
ATOM     10  C   UNL     1      46.243  10.172  21.538  0.00  0.00    +0.000 C 
ATOM     11  C   UNL     1      45.790  11.193  20.496  0.00  0.00    +0.000 C 
ENDBRANCH   9  10
BRANCH   9   8
ATOM      8  C   UNL     1      47.966   8.559  22.282  0.00  0.00    +0.000 C 
BRANCH   8   7
ATOM      7  C   UNL     1      48.429   7.154  21.908  0.00  0.00    +0.000 C 
BRANCH   7   6
ATOM      6  C   UNL     1      47.336   6.359  21.204  0.00  0.00    +0.000 C 
BRANCH   6   5
ATOM      5  C   UNL     1      47.944   5.688  19.977  0.00  0.00    +0.000 C 
BRANCH   5   4
ATOM      4  C   UNL     1      46.998   5.726  18.789  0.00  0.00    +0.000 C 
BRANCH   4   3
ATOM      3  C   UNL     1      47.624   5.015  17.593  0.00  0.00    +0.000 C 
BRANCH   3   2
ATOM      1  C   UNL     1      49.006   2.928  17.381  0.00  0.00    +0.000 C 
ATOM      2  C   UNL     1      47.680   3.511  17.834  0.00  0.00    +0.000 C 
ENDBRANCH   3   2
ENDBRANCH   4   3
ENDBRANCH   5   4
ENDBRANCH   6   5
ENDBRANCH   7   6
ENDBRANCH   8   7
ENDBRANCH   9   8
ENDBRANCH  12   9
ENDBRANCH  13  12
BRANCH  16  17
ATOM     17  C   UNL     1      49.448   7.299  15.273  0.00  0.00    +0.000 C 
BRANCH  17  18
ATOM     18  N   UNL     1      48.205   7.037  14.594  0.00  0.00    +0.000 N 
ATOM     19  C   UNL     1      48.167   6.669  13.269  0.00  0.00    +0.000 C 
ATOM     20  O   UNL     1      49.188   6.525  12.600  0.00  0.00    +0.000 OA
ATOM     33  H   UNL     1      47.361   7.378  15.034  0.00  0.00    +0.000 HD
BRANCH  19  21
ATOM     21  C   UNL     1      46.838   6.388  12.714  0.00  0.00    +0.000 A 
ATOM     22  C   UNL     1      46.101   7.411  12.136  0.00  0.00    +0.000 A 
ATOM     23  S   UNL     1      44.611   6.893  11.483  0.00  0.00    +0.000 S 
ATOM     24  C   UNL     1      44.877   5.297  12.007  0.00  0.00    +0.000 A 
ATOM     25  N   UNL     1      43.944   4.328  11.787  0.00  0.00    +0.000 NA
ATOM     26  C   UNL     1      44.264   3.168  12.258  0.00  0.00    +0.000 A 
ATOM     27  N   UNL     1      45.427   2.886  12.924  0.00  0.00    +0.000 N 
ATOM     28  C   UNL     1      46.409   3.827  13.135  0.00  0.00    +0.000 A 
ATOM     29  O   UNL     1      47.466   3.530  13.687  0.00  0.00    +0.000 OA
ATOM     30  C   UNL     1      46.091   5.155  12.644  0.00  0.00    +0.000 A 
ATOM     34  H   UNL     1      45.625   1.957  13.254  0.00  0.00    +0.000 HD
ENDBRANCH  19  21
ENDBRANCH  17  18
ENDBRANCH  16  17
TORSDOF 13
ENDMDL
MODEL 6
REMARK VINA RESULT:    -6.174      4.052      9.736
REMARK INTER + INTRA:         -12.183
REMARK INTER:                  -9.620
REMARK INTRA:                  -2.564
REMARK UNBOUND:                -1.318
REMARK  Name = 
REMARK  15 active torsions:
REMARK  status: ('A' for Active; 'I' for Inactive)
REMARK    1  A    between atoms: C_1  and  C_2
REMARK    2  A    between atoms: C_2  and  C_3
REMARK    3  A    between atoms: C_3  and  C_4
REMARK    4  A    between atoms: C_4  and  C_5
REMARK    5  A    between atoms: C_5  and  C_6
REMARK    6  A    between atoms: C_6  and  C_7
REMARK    7  A    between atoms: C_7  and  C_8
REMARK    8  A    between atoms: C_8  and  N_9
REMARK    9  A    between atoms: N_9  and  C_10
REMARK   10  A    between atoms: N_9  and  C_12
REMARK   11  A    between atoms: C_10  and  C_11
REMARK   12  A    between atoms: C_12  and  C_13
REMARK   13  A    between atoms: C_16  and  C_17
REMARK   14  A    between atoms: C_17  and  N_18
REMARK   15  A    between atoms: C_19  and  C_21
REMARK                            x       y       z     vdW  Elec       q    Type
REMARK                         _______ _______ _______ _____ _____    ______ ____
ROOT
ATOM     13  C   UNL     1      51.309   3.571  18.222  0.00  0.00    +0.000 A 
ATOM     14  C   UNL     1      50.364   4.499  18.682  0.00  0.00    +0.000 A 
ATOM     15  C   UNL     1      49.021   4.398  18.300  0.00  0.00    +0.000 A 
ATOM     16  C   UNL     1      48.593   3.359  17.464  0.00  0.00    +0.000 A 
ATOM     31  C   UNL     1      49.536   2.422  17.020  0.00  0.00    +0.000 A 
ATOM     32  C   UNL     1      50.877   2.521  17.402  0.00  0.00    +0.000 A 
ENDROOT
BRANCH  13  12
ATOM     12  C   UNL     1      52.777   3.707  18.584  0.00  0.00    +0.000 C 
BRANCH  12   9
ATOM      9  N   UNL     1      53.599   4.329  17.531  0.00  0.00    +0.000 NA
BRANCH   9  10
ATOM     10  C   UNL     1      54.903   3.654  17.395  0.00  0.00    +0.000 C 
ATOM     11  C   UNL     1      54.893   2.126  17.417  0.00  0.00    +0.000 C 
ENDBRANCH   9  10
BRANCH   9   8
ATOM      8  C   UNL     1      53.693   5.785  17.732  0.00  0.00    +0.000 C 
BRANCH   8   7
ATOM      7  C   UNL     1      53.337   6.577  16.477  0.00  0.00    +0.000 C 
BRANCH   7   6
ATOM      6  C   UNL     1      51.831   6.660  16.259  0.00  0.00    +0.000 C 
BRANCH   6   5
ATOM      5  C   UNL     1      51.388   8.098  16.511  0.00  0.00    +0.000 C 
BRANCH   5   4
ATOM      4  C   UNL     1      50.103   8.157  17.318  0.00  0.00    +0.000 C 
BRANCH   4   3
ATOM      3  C   UNL     1      50.415   8.122  18.811  0.00  0.00    +0.000 C 
BRANCH   3   2
ATOM      1  C   UNL     1      47.912   7.941  18.722  0.00  0.00    +0.000 C 
ATOM      2  C   UNL     1      49.131   8.005  19.623  0.00  0.00    +0.000 C 
ENDBRANCH   3   2
ENDBRANCH   4   3
ENDBRANCH   5   4
ENDBRANCH   6   5
ENDBRANCH   7   6
ENDBRANCH   8   7
ENDBRANCH   9   8
ENDBRANCH  12   9
ENDBRANCH  13  12
BRANCH  16  17
ATOM     17  C   UNL     1      47.160   3.264  17.003  0.00  0.00    +0.000 C 
BRANCH  17  18
ATOM     18  N   UNL     1      46.856   4.300  16.049  0.00  0.00    +0.000 N 
ATOM     19  C   UNL     1      46.989   4.100  14.695  0.00  0.00    +0.000 C 
ATOM     20  O   UNL     1      47.356   3.026  14.224  0.00  0.00    +0.000 OA
ATOM     33  H   UNL     1      46.792   5.245  16.403  0.00  0.00    +0.000 HD
BRANCH  19  21
ATOM     21  C   UNL     1      46.600   5.224  13.835  0.00  0.00    +0.000 A 
ATOM     22  C   UNL     1      47.444   6.317  13.704  0.00  0.00    +0.000 A 
ATOM     23  S   UNL     1      46.867   7.498  12.614  0.00  0.00    +0.000 S 
ATOM     24  C   UNL     1      45.442   6.613  12.330  0.00  0.00    +0.000 A 
ATOM     25  N   UNL     1      44.480   7.093  11.492  0.00  0.00    +0.000 NA
ATOM     26  C   UNL     1      43.441   6.332  11.386  0.00  0.00    +0.000 A 
ATOM     27  N   UNL     1      43.277   5.137  12.034  0.00  0.00    +0.000 N 
ATOM     28  C   UNL     1      44.239   4.600  12.859  0.00  0.00    +0.000 A 
ATOM     29  O   UNL     1      44.085   3.499  13.382  0.00  0.00    +0.000 OA
ATOM     30  C   UNL     1      45.418   5.427  13.031  0.00  0.00    +0.000 A 
ATOM     34  H   UNL     1      42.449   4.581  11.898  0.00  0.00    +0.000 HD
ENDBRANCH  19  21
ENDBRANCH  17  18
ENDBRANCH  16  17
TORSDOF 13
ENDMDL
MODEL 7
REMARK VINA RESULT:    -6.052      3.915      9.326
REMARK INTER + INTRA:         -11.970
REMARK INTER:                  -9.677
REMARK INTRA:                  -2.294
REMARK UNBOUND:                -1.318
REMARK  Name = 
REMARK  15 active torsions:
REMARK  status: ('A' for Active; 'I' for Inactive)
REMARK    1  A    between atoms: C_1  and  C_2
REMARK    2  A    between atoms: C_2  and  C_3
REMARK    3  A    between atoms: C_3  and  C_4
REMARK    4  A    between atoms: C_4  and  C_5
REMARK    5  A    between atoms: C_5  and  C_6
REMARK    6  A    between atoms: C_6  and  C_7
REMARK    7  A    between atoms: C_7  and  C_8
REMARK    8  A    between atoms: C_8  and  N_9
REMARK    9  A    between atoms: N_9  and  C_10
REMARK   10  A    between atoms: N_9  and  C_12
REMARK   11  A    between atoms: C_10  and  C_11
REMARK   12  A    between atoms: C_12  and  C_13
REMARK   13  A    between atoms: C_16  and  C_17
REMARK   14  A    between atoms: C_17  and  N_18
REMARK   15  A    between atoms: C_19  and  C_21
REMARK                            x       y       z     vdW  Elec       q    Type
REMARK                         _______ _______ _______ _____ _____    ______ ____
ROOT
ATOM     13  C   UNL     1      50.621   7.587  15.104  0.00  0.00    +0.000 A 
ATOM     14  C   UNL     1      50.946   8.120  13.849  0.00  0.00    +0.000 A 
ATOM     15  C   UNL     1      49.970   8.246  12.853  0.00  0.00    +0.000 A 
ATOM     16  C   UNL     1      48.646   7.857  13.098  0.00  0.00    +0.000 A 
ATOM     31  C   UNL     1      48.319   7.341  14.360  0.00  0.00    +0.000 A 
ATOM     32  C   UNL     1      49.294   7.217  15.355  0.00  0.00    +0.000 A 
ENDROOT
BRANCH  13  12
ATOM     12  C   UNL     1      51.686   7.393  16.169  0.00  0.00    +0.000 C 
BRANCH  12   9
ATOM      9  N   UNL     1      51.195   7.567  17.547  0.00  0.00    +0.000 NA
BRANCH   9  10
ATOM     10  C   UNL     1      51.850   8.709  18.213  0.00  0.00    +0.000 C 
ATOM     11  C   UNL     1      51.999   9.990  17.395  0.00  0.00    +0.000 C 
ENDBRANCH   9  10
BRANCH   9   8
ATOM      8  C   UNL     1      51.280   6.302  18.297  0.00  0.00    +0.000 C 
BRANCH   8   7
ATOM      7  C   UNL     1      51.810   5.149  17.449  0.00  0.00    +0.000 C 
BRANCH   7   6
ATOM      6  C   UNL     1      50.885   3.939  17.484  0.00  0.00    +0.000 C 
BRANCH   6   5
ATOM      5  C   UNL     1      49.593   4.343  18.186  0.00  0.00    +0.000 C 
BRANCH   5   4
ATOM      4  C   UNL     1      48.562   3.227  18.150  0.00  0.00    +0.000 C 
BRANCH   4   3
ATOM      3  C   UNL     1      48.133   2.950  16.712  0.00  0.00    +0.000 C 
BRANCH   3   2
ATOM      1  C   UNL     1      47.097   3.961  14.661  0.00  0.00    +0.000 C 
ATOM      2  C   UNL     1      47.381   4.145  16.139  0.00  0.00    +0.000 C 
ENDBRANCH   3   2
ENDBRANCH   4   3
ENDBRANCH   5   4
ENDBRANCH   6   5
ENDBRANCH   7   6
ENDBRANCH   8   7
ENDBRANCH   9   8
ENDBRANCH  12   9
ENDBRANCH  13  12
BRANCH  16  17
ATOM     17  C   UNL     1      47.593   7.939  12.022  0.00  0.00    +0.000 C 
BRANCH  17  18
ATOM     18  N   UNL     1      46.865   6.700  11.917  0.00  0.00    +0.000 N 
ATOM     19  C   UNL     1      45.524   6.672  11.612  0.00  0.00    +0.000 C 
ATOM     20  O   UNL     1      44.880   7.696  11.394  0.00  0.00    +0.000 OA
ATOM     33  H   UNL     1      47.294   5.880  12.323  0.00  0.00    +0.000 HD
BRANCH  19  21
ATOM     21  C   UNL     1      44.917   5.341  11.491  0.00  0.00    +0.000 A 
ATOM     22  C   UNL     1      44.211   4.806  12.558  0.00  0.00    +0.000 A 
ATOM     23  S   UNL     1      43.516   3.282  12.221  0.00  0.00    +0.000 S 
ATOM     24  C   UNL     1      44.189   3.264  10.659  0.00  0.00    +0.000 A 
ATOM     25  N   UNL     1      43.996   2.199   9.831  0.00  0.00    +0.000 NA
ATOM     26  C   UNL     1      44.583   2.306   8.684  0.00  0.00    +0.000 A 
ATOM     27  N   UNL     1      45.338   3.377   8.288  0.00  0.00    +0.000 N 
ATOM     28  C   UNL     1      45.527   4.488   9.080  0.00  0.00    +0.000 A 
ATOM     29  O   UNL     1      46.164   5.456   8.674  0.00  0.00    +0.000 OA
ATOM     30  C   UNL     1      44.907   4.409  10.389  0.00  0.00    +0.000 A 
ATOM     34  H   UNL     1      45.758   3.408   7.374  0.00  0.00    +0.000 HD
ENDBRANCH  19  21
ENDBRANCH  17  18
ENDBRANCH  16  17
TORSDOF 13
ENDMDL
MODEL 8
REMARK VINA RESULT:    -6.027      3.522      4.626
REMARK INTER + INTRA:         -11.925
REMARK INTER:                 -10.650
REMARK INTRA:                  -1.274
REMARK UNBOUND:                -1.318
REMARK  Name = 
REMARK  15 active torsions:
REMARK  status: ('A' for Active; 'I' for Inactive)
REMARK    1  A    between atoms: C_1  and  C_2
REMARK    2  A    between atoms: C_2  and  C_3
REMARK    3  A    between atoms: C_3  and  C_4
REMARK    4  A    between atoms: C_4  and  C_5
REMARK    5  A    between atoms: C_5  and  C_6
REMARK    6  A    between atoms: C_6  and  C_7
REMARK    7  A    between atoms: C_7  and  C_8
REMARK    8  A    between atoms: C_8  and  N_9
REMARK    9  A    between atoms: N_9  and  C_10
REMARK   10  A    between atoms: N_9  and  C_12
REMARK   11  A    between atoms: C_10  and  C_11
REMARK   12  A    between atoms: C_12  and  C_13
REMARK   13  A    between atoms: C_16  and  C_17
REMARK   14  A    between atoms: C_17  and  N_18
REMARK   15  A    between atoms: C_19  and  C_21
REMARK                            x       y       z     vdW  Elec       q    Type
REMARK                         _______ _______ _______ _____ _____    ______ ____
ROOT
ATOM     13  C   UNL     1      46.319   6.735  11.690  0.00  0.00    +0.000 A 
ATOM     14  C   UNL     1      47.596   6.449  12.192  0.00  0.00    +0.000 A 
ATOM     15  C   UNL     1      48.162   7.242  13.198  0.00  0.00    +0.000 A 
ATOM     16  C   UNL     1      47.455   8.326  13.733  0.00  0.00    +0.000 A 
ATOM     31  C   UNL     1      46.171   8.600  13.242  0.00  0.00    +0.000 A 
ATOM     32  C   UNL     1      45.605   7.808  12.239  0.00  0.00    +0.000 A 
ENDROOT
BRANCH  13  12
ATOM     12  C   UNL     1      45.723   5.917  10.558  0.00  0.00    +0.000 C 
BRANCH  12   9
ATOM      9  N   UNL     1      44.525   5.150  10.939  0.00  0.00    +0.000 NA
BRANCH   9  10
ATOM     10  C   UNL     1      44.645   4.602  12.303  0.00  0.00    +0.000 C 
ATOM     11  C   UNL     1      43.385   4.622  13.167  0.00  0.00    +0.000 C 
ENDBRANCH   9  10
BRANCH   9   8
ATOM      8  C   UNL     1      44.198   4.145   9.913  0.00  0.00    +0.000 C 
BRANCH   8   7
ATOM      7  C   UNL     1      44.974   4.355   8.615  0.00  0.00    +0.000 C 
BRANCH   7   6
ATOM      6  C   UNL     1      44.931   3.125   7.716  0.00  0.00    +0.000 C 
BRANCH   6   5
ATOM      5  C   UNL     1      45.952   2.117   8.233  0.00  0.00    +0.000 C 
BRANCH   5   4
ATOM      4  C   UNL     1      47.179   2.051   7.338  0.00  0.00    +0.000 C 
BRANCH   4   3
ATOM      3  C   UNL     1      46.949   2.860   6.066  0.00  0.00    +0.000 C 
BRANCH   3   2
ATOM      1  C   UNL     1      47.297   0.590   5.050  0.00  0.00    +0.000 C 
ATOM      2  C   UNL     1      47.434   2.087   4.846  0.00  0.00    +0.000 C 
ENDBRANCH   3   2
ENDBRANCH   4   3
ENDBRANCH   5   4
ENDBRANCH   6   5
ENDBRANCH   7   6
ENDBRANCH   8   7
ENDBRANCH   9   8
ENDBRANCH  12   9
ENDBRANCH  13  12
BRANCH  16  17
ATOM     17  C   UNL     1      48.068   9.221  14.781  0.00  0.00    +0.000 C 
BRANCH  17  18
ATOM     18  N   UNL     1      47.845   8.693  16.103  0.00  0.00    +0.000 N 
ATOM     19  C   UNL     1      48.827   8.015  16.788  0.00  0.00    +0.000 C 
ATOM     20  O   UNL     1      49.950   7.839  16.319  0.00  0.00    +0.000 OA
ATOM     33  H   UNL     1      46.885   8.607  16.407  0.00  0.00    +0.000 HD
BRANCH  19  21
ATOM     21  C   UNL     1      48.482   7.573  18.144  0.00  0.00    +0.000 A 
ATOM     22  C   UNL     1      48.696   6.255  18.515  0.00  0.00    +0.000 A 
ATOM     23  S   UNL     1      48.302   5.931  20.145  0.00  0.00    +0.000 S 
ATOM     24  C   UNL     1      47.775   7.530  20.388  0.00  0.00    +0.000 A 
ATOM     25  N   UNL     1      47.274   7.923  21.593  0.00  0.00    +0.000 NA
ATOM     26  C   UNL     1      46.888   9.156  21.631  0.00  0.00    +0.000 A 
ATOM     27  N   UNL     1      46.961  10.032  20.581  0.00  0.00    +0.000 N 
ATOM     28  C   UNL     1      47.493   9.686  19.360  0.00  0.00    +0.000 A 
ATOM     29  O   UNL     1      47.596  10.510  18.455  0.00  0.00    +0.000 OA
ATOM     30  C   UNL     1      47.921   8.304  19.256  0.00  0.00    +0.000 A 
ATOM     34  H   UNL     1      46.658  10.986  20.678  0.00  0.00    +0.000 HD
ENDBRANCH  19  21
ENDBRANCH  17  18
ENDBRANCH  16  17
TORSDOF 13
ENDMDL
MODEL 9
REMARK VINA RESULT:    -5.883      4.447     10.076
REMARK INTER + INTRA:         -11.673
REMARK INTER:                  -8.864
REMARK INTRA:                  -2.809
REMARK UNBOUND:                -1.318
REMARK  Name = 
REMARK  15 active torsions:
REMARK  status: ('A' for Active; 'I' for Inactive)
REMARK    1  A    between atoms: C_1  and  C_2
REMARK    2  A    between atoms: C_2  and  C_3
REMARK    3  A    between atoms: C_3  and  C_4
REMARK    4  A    between atoms: C_4  and  C_5
REMARK    5  A    between atoms: C_5  and  C_6
REMARK    6  A    between atoms: C_6  and  C_7
REMARK    7  A    between atoms: C_7  and  C_8
REMARK    8  A    between atoms: C_8  and  N_9
REMARK    9  A    between atoms: N_9  and  C_10
REMARK   10  A    between atoms: N_9  and  C_12
REMARK   11  A    between atoms: C_10  and  C_11
REMARK   12  A    between atoms: C_12  and  C_13
REMARK   13  A    between atoms: C_16  and  C_17
REMARK   14  A    between atoms: C_17  and  N_18
REMARK   15  A    between atoms: C_19  and  C_21
REMARK                            x       y       z     vdW  Elec       q    Type
REMARK                         _______ _______ _______ _____ _____    ______ ____
ROOT
ATOM     13  C   UNL     1      49.202   5.711  19.997  0.00  0.00    +0.000 A 
ATOM     14  C   UNL     1      47.895   6.037  19.609  0.00  0.00    +0.000 A 
ATOM     15  C   UNL     1      47.274   5.360  18.553  0.00  0.00    +0.000 A 
ATOM     16  C   UNL     1      47.940   4.333  17.873  0.00  0.00    +0.000 A 
ATOM     31  C   UNL     1      49.241   3.996  18.274  0.00  0.00    +0.000 A 
ATOM     32  C   UNL     1      49.862   4.671  19.329  0.00  0.00    +0.000 A 
ENDROOT
BRANCH  13  12
ATOM     12  C   UNL     1      49.905   6.479  21.101  0.00  0.00    +0.000 C 
BRANCH  12   9
ATOM      9  N   UNL     1      51.080   7.243  20.648  0.00  0.00    +0.000 NA
BRANCH   9  10
ATOM     10  C   UNL     1      52.323   6.734  21.256  0.00  0.00    +0.000 C 
ATOM     11  C   UNL     1      53.313   6.040  20.321  0.00  0.00    +0.000 C 
ENDBRANCH   9  10
BRANCH   9   8
ATOM      8  C   UNL     1      50.867   8.689  20.833  0.00  0.00    +0.000 C 
BRANCH   8   7
ATOM      7  C   UNL     1      49.401   9.043  21.069  0.00  0.00    +0.000 C 
BRANCH   7   6
ATOM      6  C   UNL     1      48.975  10.277  20.282  0.00  0.00    +0.000 C 
BRANCH   6   5
ATOM      5  C   UNL     1      47.986   9.841  19.206  0.00  0.00    +0.000 C 
BRANCH   5   4
ATOM      4  C   UNL     1      48.619   9.846  17.825  0.00  0.00    +0.000 C 
BRANCH   4   3
ATOM      3  C   UNL     1      48.178   8.616  17.038  0.00  0.00    +0.000 C 
BRANCH   3   2
ATOM      1  C   UNL     1      50.475   7.608  17.158  0.00  0.00    +0.000 C 
ATOM      2  C   UNL     1      49.345   8.043  16.243  0.00  0.00    +0.000 C 
ENDBRANCH   3   2
ENDBRANCH   4   3
ENDBRANCH   5   4
ENDBRANCH   6   5
ENDBRANCH   7   6
ENDBRANCH   8   7
ENDBRANCH   9   8
ENDBRANCH  12   9
ENDBRANCH  13  12
BRANCH  16  17
ATOM     17  C   UNL     1      47.306   3.627  16.702  0.00  0.00    +0.000 C 
BRANCH  17  18
ATOM     18  N   UNL     1      46.832   4.574  15.724  0.00  0.00    +0.000 N 
ATOM     19  C   UNL     1      46.829   4.286  14.379  0.00  0.00    +0.000 C 
ATOM     20  O   UNL     1      47.210   3.203  13.940  0.00  0.00    +0.000 OA
ATOM     33  H   UNL     1      46.747   5.537  16.022  0.00  0.00    +0.000 HD
BRANCH  19  21
ATOM     21  C   UNL     1      46.276   5.322  13.498  0.00  0.00    +0.000 A 
ATOM     22  C   UNL     1      47.029   6.448  13.201  0.00  0.00    +0.000 A 
ATOM     23  S   UNL     1      46.261   7.514  12.109  0.00  0.00    +0.000 S 
ATOM     24  C   UNL     1      44.872   6.533  12.050  0.00  0.00    +0.000 A 
ATOM     25  N   UNL     1      43.794   6.898  11.299  0.00  0.00    +0.000 NA
ATOM     26  C   UNL     1      42.800   6.074  11.364  0.00  0.00    +0.000 A 
ATOM     27  N   UNL     1      42.785   4.922  12.103  0.00  0.00    +0.000 N 
ATOM     28  C   UNL     1      43.865   4.500  12.845  0.00  0.00    +0.000 A 
ATOM     29  O   UNL     1      43.840   3.433  13.453  0.00  0.00    +0.000 OA
ATOM     30  C   UNL     1      45.001   5.401  12.825  0.00  0.00    +0.000 A 
ATOM     34  H   UNL     1      41.984   4.313  12.100  0.00  0.00    +0.000 HD
ENDBRANCH  19  21
ENDBRANCH  17  18
ENDBRANCH  16  17
TORSDOF 13
ENDMDL
