MODEL 1
REMARK VINA RESULT:    -6.446      0.000      0.000
REMARK INTER + INTRA:          -6.884
REMARK INTER:                  -6.823
REMARK INTRA:                  -0.060
REMARK UNBOUND:                -0.060
REMARK  Name = 
REMARK  1 active torsions:
REMARK  status: ('A' for Active; 'I' for Inactive)
REMARK    1  A    between atoms: C_2  and  C_4
REMARK                            x       y       z     vdW  Elec       q    Type
REMARK                         _______ _______ _______ _____ _____    ______ ____
ROOT
ATOM      4  C   UNL     1      46.313   2.065   7.924  0.00  0.00    +0.000 A 
ATOM      5  C   UNL     1      46.527   3.360   7.440  0.00  0.00    +0.000 A 
ATOM      6  C   UNL     1      45.878   4.461   8.011  0.00  0.00    +0.000 A 
ATOM      7  C   UNL     1      45.005   4.215   9.076  0.00  0.00    +0.000 A 
ATOM      8  N   UNL     1      44.230   5.088   9.806  0.00  0.00    +0.000 N 
ATOM      9  C   UNL     1      43.517   4.406  10.756  0.00  0.00    +0.000 A 
ATOM     10  C   UNL     1      43.833   3.072  10.643  0.00  0.00    +0.000 A 
ATOM     11  C   UNL     1      44.768   2.936   9.579  0.00  0.00    +0.000 A 
ATOM     12  C   UNL     1      45.429   1.842   8.992  0.00  0.00    +0.000 A 
ATOM     15  H   UNL     1      44.190   6.086   9.654  0.00  0.00    +0.000 HD
ENDROOT
BRANCH   4   2
ATOM      1  N   UNL     1      47.800   1.123   6.243  0.00  0.00    +0.000 N 
ATOM      2  C   UNL     1      46.978   0.888   7.311  0.00  0.00    +0.000 C 
ATOM      3  O   UNL     1      46.833  -0.243   7.757  0.00  0.00    +0.000 OA
ATOM     13  H   UNL     1      48.332   0.329   5.909  0.00  0.00    +0.000 HD
ATOM     14  H   UNL     1      48.146   2.045   6.026  0.00  0.00    +0.000 HD
ENDBRANCH   4   2
TORSDOF 1
ENDMDL
MODEL 2
REMARK VINA RESULT:    -6.201      2.241      4.434
REMARK INTER + INTRA:          -6.625
REMARK INTER:                  -6.564
REMARK INTRA:                  -0.061
REMARK UNBOUND:                -0.060
REMARK  Name = 
REMARK  1 active torsions:
REMARK  status: ('A' for Active; 'I' for Inactive)
REMARK    1  A    between atoms: C_2  and  C_4
REMARK                            x       y       z     vdW  Elec       q    Type
REMARK                         _______ _______ _______ _____ _____    ______ ____
ROOT
ATOM      4  C   UNL     1      44.842   3.296   9.488  0.00  0.00    +0.000 A 
ATOM      5  C   UNL     1      45.328   4.468   8.899  0.00  0.00    +0.000 A 
ATOM      6  C   UNL     1      46.282   4.419   7.876  0.00  0.00    +0.000 A 
ATOM      7  C   UNL     1      46.733   3.157   7.472  0.00  0.00    +0.000 A 
ATOM      8  N   UNL     1      47.663   2.813   6.518  0.00  0.00    +0.000 N 
ATOM      9  C   UNL     1      47.799   1.450   6.460  0.00  0.00    +0.000 A 
ATOM     10  C   UNL     1      46.944   0.903   7.389  0.00  0.00    +0.000 A 
ATOM     11  C   UNL     1      46.269   1.972   8.041  0.00  0.00    +0.000 A 
ATOM     12  C   UNL     1      45.311   2.040   9.069  0.00  0.00    +0.000 A 
ATOM     15  H   UNL     1      48.176   3.472   5.950  0.00  0.00    +0.000 HD
ENDROOT
BRANCH   4   2
ATOM      1  N   UNL     1      43.662   2.187  11.306  0.00  0.00    +0.000 N 
ATOM      2  C   UNL     1      43.848   3.337  10.590  0.00  0.00    +0.000 C 
ATOM      3  O   UNL     1      43.241   4.361  10.877  0.00  0.00    +0.000 OA
ATOM     13  H   UNL     1      43.068   2.262  12.122  0.00  0.00    +0.000 HD
ATOM     14  H   UNL     1      44.322   1.424  11.274  0.00  0.00    +0.000 HD
ENDBRANCH   4   2
TORSDOF 1
ENDMDL
MODEL 3
REMARK VINA RESULT:    -5.706      2.051      4.858
REMARK INTER + INTRA:          -6.101
REMARK INTER:                  -6.045
REMARK INTRA:                  -0.056
REMARK UNBOUND:                -0.060
REMARK  Name = 
REMARK  1 active torsions:
REMARK  status: ('A' for Active; 'I' for Inactive)
REMARK    1  A    between atoms: C_2  and  C_4
REMARK                            x       y       z     vdW  Elec       q    Type
REMARK                         _______ _______ _______ _____ _____    ______ ____
ROOT
ATOM      4  C   UNL     1      45.264   3.224   8.711  0.00  0.00    +0.000 A 
ATOM      5  C   UNL     1      45.426   1.871   9.027  0.00  0.00    +0.000 A 
ATOM      6  C   UNL     1      46.130   1.011   8.176  0.00  0.00    +0.000 A 
ATOM      7  C   UNL     1      46.657   1.554   6.999  0.00  0.00    +0.000 A 
ATOM      8  N   UNL     1      47.366   0.952   5.986  0.00  0.00    +0.000 N 
ATOM      9  C   UNL     1      47.678   1.869   5.016  0.00  0.00    +0.000 A 
ATOM     10  C   UNL     1      47.164   3.084   5.406  0.00  0.00    +0.000 A 
ATOM     11  C   UNL     1      46.510   2.897   6.655  0.00  0.00    +0.000 A 
ATOM     12  C   UNL     1      45.798   3.747   7.522  0.00  0.00    +0.000 A 
ATOM     15  H   UNL     1      47.613  -0.028   5.959  0.00  0.00    +0.000 HD
ENDROOT
BRANCH   4   2
ATOM      1  N   UNL     1      44.944   5.429   9.691  0.00  0.00    +0.000 N 
ATOM      2  C   UNL     1      44.499   4.140   9.594  0.00  0.00    +0.000 C 
ATOM      3  O   UNL     1      43.491   3.776  10.187  0.00  0.00    +0.000 OA
ATOM     13  H   UNL     1      44.350   6.068  10.205  0.00  0.00    +0.000 HD
ATOM     14  H   UNL     1      45.591   5.824   9.025  0.00  0.00    +0.000 HD
ENDBRANCH   4   2
TORSDOF 1
ENDMDL
MODEL 4
REMARK VINA RESULT:    -5.678      1.589      2.230
REMARK INTER + INTRA:          -6.070
REMARK INTER:                  -6.022
REMARK INTRA:                  -0.049
REMARK UNBOUND:                -0.060
REMARK  Name = 
REMARK  1 active torsions:
REMARK  status: ('A' for Active; 'I' for Inactive)
REMARK    1  A    between atoms: C_2  and  C_4
REMARK                            x       y       z     vdW  Elec       q    Type
REMARK                         _______ _______ _______ _____ _____    ______ ____
ROOT
ATOM      4  C   UNL     1      46.360   2.742   7.390  0.00  0.00    +0.000 A 
ATOM      5  C   UNL     1      45.981   1.541   7.999  0.00  0.00    +0.000 A 
ATOM      6  C   UNL     1      45.116   1.533   9.100  0.00  0.00    +0.000 A 
ATOM      7  C   UNL     1      44.655   2.768   9.569  0.00  0.00    +0.000 A 
ATOM      8  N   UNL     1      43.823   3.060  10.626  0.00  0.00    +0.000 N 
ATOM      9  C   UNL     1      43.643   4.415  10.727  0.00  0.00    +0.000 A 
ATOM     10  C   UNL     1      44.367   5.011   9.720  0.00  0.00    +0.000 A 
ATOM     11  C   UNL     1      45.017   3.981   8.984  0.00  0.00    +0.000 A 
ATOM     12  C   UNL     1      45.887   3.971   7.879  0.00  0.00    +0.000 A 
ATOM     15  H   UNL     1      43.414   2.372  11.243  0.00  0.00    +0.000 HD
ENDROOT
BRANCH   4   2
ATOM      1  N   UNL     1      48.607   2.475   6.492  0.00  0.00    +0.000 N 
ATOM      2  C   UNL     1      47.295   2.764   6.236  0.00  0.00    +0.000 C 
ATOM      3  O   UNL     1      46.911   2.993   5.096  0.00  0.00    +0.000 OA
ATOM     13  H   UNL     1      49.208   2.383   5.682  0.00  0.00    +0.000 HD
ATOM     14  H   UNL     1      48.901   2.029   7.347  0.00  0.00    +0.000 HD
ENDBRANCH   4   2
TORSDOF 1
ENDMDL
MODEL 5
REMARK VINA RESULT:    -5.532      4.013      5.366
REMARK INTER + INTRA:          -5.916
REMARK INTER:                  -5.860
REMARK INTRA:                  -0.056
REMARK UNBOUND:                -0.060
REMARK  Name = 
REMARK  1 active torsions:
REMARK  status: ('A' for Active; 'I' for Inactive)
REMARK    1  A    between atoms: C_2  and  C_4
REMARK                            x       y       z     vdW  Elec       q    Type
REMARK                         _______ _______ _______ _____ _____    ______ ____
ROOT
ATOM      4  C   UNL     1      46.523   4.591  13.335  0.00  0.00    +0.000 A 
ATOM      5  C   UNL     1      46.782   5.846  12.773  0.00  0.00    +0.000 A 
ATOM      6  C   UNL     1      46.243   6.206  11.532  0.00  0.00    +0.000 A 
ATOM      7  C   UNL     1      45.445   5.263  10.876  0.00  0.00    +0.000 A 
ATOM      8  N   UNL     1      44.809   5.334   9.658  0.00  0.00    +0.000 N 
ATOM      9  C   UNL     1      44.139   4.166   9.404  0.00  0.00    +0.000 A 
ATOM     10  C   UNL     1      44.341   3.325  10.474  0.00  0.00    +0.000 A 
ATOM     11  C   UNL     1      45.171   4.003  11.409  0.00  0.00    +0.000 A 
ATOM     12  C   UNL     1      45.722   3.658  12.656  0.00  0.00    +0.000 A 
ATOM     15  H   UNL     1      44.842   6.132   9.038  0.00  0.00    +0.000 HD
ENDROOT
BRANCH   4   2
ATOM      1  N   UNL     1      47.215   5.158  15.598  0.00  0.00    +0.000 N 
ATOM      2  C   UNL     1      47.109   4.190  14.639  0.00  0.00    +0.000 C 
ATOM      3  O   UNL     1      47.451   3.037  14.868  0.00  0.00    +0.000 OA
ATOM     13  H   UNL     1      47.510   4.846  16.516  0.00  0.00    +0.000 HD
ATOM     14  H   UNL     1      46.708   6.029  15.540  0.00  0.00    +0.000 HD
ENDBRANCH   4   2
TORSDOF 1
ENDMDL
MODEL 6
REMARK VINA RESULT:    -5.209      3.990      5.080
REMARK INTER + INTRA:          -5.574
REMARK INTER:                  -5.516
REMARK INTRA:                  -0.058
REMARK UNBOUND:                -0.060
REMARK  Name = 
REMARK  1 active torsions:
REMARK  status: ('A' for Active; 'I' for Inactive)
REMARK    1  A    between atoms: C_2  and  C_4
REMARK                            x       y       z     vdW  Elec       q    Type
REMARK                         _______ _______ _______ _____ _____    ______ ____
ROOT
ATOM      4  C   UNL     1      44.979   4.682  11.346  0.00  0.00    +0.000 A 
ATOM      5  C   UNL     1      45.456   5.967  11.066  0.00  0.00    +0.000 A 
ATOM      6  C   UNL     1      46.346   6.610  11.934  0.00  0.00    +0.000 A 
ATOM      7  C   UNL     1      46.732   5.924  13.090  0.00  0.00    +0.000 A 
ATOM      8  N   UNL     1      47.567   6.311  14.114  0.00  0.00    +0.000 N 
ATOM      9  C   UNL     1      47.654   5.318  15.054  0.00  0.00    +0.000 A 
ATOM     10  C   UNL     1      46.867   4.271  14.635  0.00  0.00    +0.000 A 
ATOM     11  C   UNL     1      46.272   4.643  13.397  0.00  0.00    +0.000 A 
ATOM     12  C   UNL     1      45.377   4.012  12.514  0.00  0.00    +0.000 A 
ATOM     15  H   UNL     1      48.038   7.203  14.165  0.00  0.00    +0.000 HD
ENDROOT
BRANCH   4   2
ATOM      1  N   UNL     1      43.996   4.400   9.137  0.00  0.00    +0.000 N 
ATOM      2  C   UNL     1      44.017   3.999  10.444  0.00  0.00    +0.000 C 
ATOM      3  O   UNL     1      43.295   3.091  10.835  0.00  0.00    +0.000 OA
ATOM     13  H   UNL     1      43.419   3.851   8.512  0.00  0.00    +0.000 HD
ATOM     14  H   UNL     1      44.745   4.940   8.730  0.00  0.00    +0.000 HD
ENDBRANCH   4   2
TORSDOF 1
ENDMDL
MODEL 7
REMARK VINA RESULT:    -5.146      2.158      2.786
REMARK INTER + INTRA:          -5.507
REMARK INTER:                  -5.451
REMARK INTRA:                  -0.056
REMARK UNBOUND:                -0.060
REMARK  Name = 
REMARK  1 active torsions:
REMARK  status: ('A' for Active; 'I' for Inactive)
REMARK    1  A    between atoms: C_2  and  C_4
REMARK                            x       y       z     vdW  Elec       q    Type
REMARK                         _______ _______ _______ _____ _____    ______ ____
ROOT
ATOM      4  C   UNL     1      45.388   4.066   9.217  0.00  0.00    +0.000 A 
ATOM      5  C   UNL     1      45.837   5.368   9.459  0.00  0.00    +0.000 A 
ATOM      6  C   UNL     1      45.402   6.085  10.580  0.00  0.00    +0.000 A 
ATOM      7  C   UNL     1      44.498   5.452  11.441  0.00  0.00    +0.000 A 
ATOM      8  N   UNL     1      43.898   5.913  12.590  0.00  0.00    +0.000 N 
ATOM      9  C   UNL     1      43.071   4.952  13.111  0.00  0.00    +0.000 A 
ATOM     10  C   UNL     1      43.136   3.851  12.289  0.00  0.00    +0.000 A 
ATOM     11  C   UNL     1      44.030   4.156  11.225  0.00  0.00    +0.000 A 
ATOM     12  C   UNL     1      44.478   3.451  10.092  0.00  0.00    +0.000 A 
ATOM     15  H   UNL     1      44.041   6.832  12.985  0.00  0.00    +0.000 HD
ENDROOT
BRANCH   4   2
ATOM      1  N   UNL     1      46.020   1.961   8.170  0.00  0.00    +0.000 N 
ATOM      2  C   UNL     1      45.825   3.306   8.018  0.00  0.00    +0.000 C 
ATOM      3  O   UNL     1      45.973   3.844   6.929  0.00  0.00    +0.000 OA
ATOM     13  H   UNL     1      46.207   1.440   7.322  0.00  0.00    +0.000 HD
ATOM     14  H   UNL     1      45.656   1.453   8.962  0.00  0.00    +0.000 HD
ENDBRANCH   4   2
TORSDOF 1
ENDMDL
MODEL 8
REMARK VINA RESULT:    -5.136      4.048      5.446
REMARK INTER + INTRA:          -5.497
REMARK INTER:                  -5.436
REMARK INTRA:                  -0.061
REMARK UNBOUND:                -0.060
REMARK  Name = 
REMARK  1 active torsions:
REMARK  status: ('A' for Active; 'I' for Inactive)
REMARK    1  A    between atoms: C_2  and  C_4
REMARK                            x       y       z     vdW  Elec       q    Type
REMARK                         _______ _______ _______ _____ _____    ______ ____
ROOT
ATOM      4  C   UNL     1      44.976   4.708  11.517  0.00  0.00    +0.000 A 
ATOM      5  C   UNL     1      45.226   4.153  12.777  0.00  0.00    +0.000 A 
ATOM      6  C   UNL     1      46.242   4.657  13.597  0.00  0.00    +0.000 A 
ATOM      7  C   UNL     1      46.998   5.727  13.107  0.00  0.00    +0.000 A 
ATOM      8  N   UNL     1      48.054   6.401  13.678  0.00  0.00    +0.000 N 
ATOM      9  C   UNL     1      48.501   7.383  12.832  0.00  0.00    +0.000 A 
ATOM     10  C   UNL     1      47.724   7.347  11.697  0.00  0.00    +0.000 A 
ATOM     11  C   UNL     1      46.774   6.299  11.855  0.00  0.00    +0.000 A 
ATOM     12  C   UNL     1      45.749   5.779  11.043  0.00  0.00    +0.000 A 
ATOM     15  H   UNL     1      48.445   6.194  14.586  0.00  0.00    +0.000 HD
ENDROOT
BRANCH   4   2
ATOM      1  N   UNL     1      43.894   4.617   9.339  0.00  0.00    +0.000 N 
ATOM      2  C   UNL     1      43.916   4.166  10.629  0.00  0.00    +0.000 C 
ATOM      3  O   UNL     1      43.114   3.325  11.016  0.00  0.00    +0.000 OA
ATOM     13  H   UNL     1      43.240   4.156   8.717  0.00  0.00    +0.000 HD
ATOM     14  H   UNL     1      44.682   5.090   8.922  0.00  0.00    +0.000 HD
ENDBRANCH   4   2
TORSDOF 1
ENDMDL
