MODEL 1
REMARK VINA RESULT:    -6.090      0.000      0.000
REMARK INTER + INTRA:          -7.089
REMARK INTER:                  -6.980
REMARK INTRA:                  -0.108
REMARK UNBOUND:                -0.108
REMARK  Name = 
REMARK  3 active torsions:
REMARK  status: ('A' for Active; 'I' for Inactive)
REMARK    1  A    between atoms: O_1  and  C_2
REMARK    2  A    between atoms: C_2  and  C_3
REMARK    3  A    between atoms: C_5  and  C_6
REMARK                            x       y       z     vdW  Elec       q    Type
REMARK                         _______ _______ _______ _____ _____    ______ ____
ROOT
ATOM      3  C   UNL     1      43.211   4.341  11.152  0.00  0.00    +0.000 A 
ATOM      4  C   UNL     1      44.040   4.485  10.019  0.00  0.00    +0.000 A 
ATOM      5  C   UNL     1      44.551   3.232   9.767  0.00  0.00    +0.000 A 
ATOM     11  N   UNL     1      43.988   2.422  10.715  0.00  0.00    +0.000 N 
ATOM     12  N   UNL     1      43.173   3.068  11.574  0.00  0.00    +0.000 NA
ATOM     14  H   UNL     1      44.129   1.425  10.835  0.00  0.00    +0.000 HD
ENDROOT
BRANCH   5   6
ATOM      6  C   UNL     1      45.470   2.813   8.752  0.00  0.00    +0.000 A 
ATOM      7  C   UNL     1      45.880   1.515   8.514  0.00  0.00    +0.000 A 
ATOM      8  C   UNL     1      46.825   1.422   7.454  0.00  0.00    +0.000 A 
ATOM      9  C   UNL     1      47.101   2.654   6.908  0.00  0.00    +0.000 A 
ATOM     10  S   UNL     1      46.208   3.905   7.658  0.00  0.00    +0.000 S 
ENDBRANCH   5   6
BRANCH   3   2
ATOM      2  C   UNL     1      42.459   5.420  11.854  0.00  0.00    +0.000 C 
BRANCH   2   1
ATOM      1  O   UNL     1      42.726   5.429  13.259  0.00  0.00    +0.000 OA
ATOM     13  H   UNL     1      42.225   6.179  13.621  0.00  0.00    +0.000 HD
ENDBRANCH   2   1
ENDBRANCH   3   2
TORSDOF 3
ENDMDL
MODEL 2
REMARK VINA RESULT:    -5.934      2.072      2.522
REMARK INTER + INTRA:          -6.910
REMARK INTER:                  -6.797
REMARK INTRA:                  -0.114
REMARK UNBOUND:                -0.108
REMARK  Name = 
REMARK  3 active torsions:
REMARK  status: ('A' for Active; 'I' for Inactive)
REMARK    1  A    between atoms: O_1  and  C_2
REMARK    2  A    between atoms: C_2  and  C_3
REMARK    3  A    between atoms: C_5  and  C_6
REMARK                            x       y       z     vdW  Elec       q    Type
REMARK                         _______ _______ _______ _____ _____    ______ ____
ROOT
ATOM      3  C   UNL     1      44.181   3.342  10.327  0.00  0.00    +0.000 A 
ATOM      4  C   UNL     1      45.060   2.466   9.654  0.00  0.00    +0.000 A 
ATOM      5  C   UNL     1      45.368   3.085   8.465  0.00  0.00    +0.000 A 
ATOM     11  N   UNL     1      44.703   4.281   8.503  0.00  0.00    +0.000 N 
ATOM     12  N   UNL     1      43.970   4.463   9.620  0.00  0.00    +0.000 NA
ATOM     14  H   UNL     1      44.702   5.007   7.796  0.00  0.00    +0.000 HD
ENDROOT
BRANCH   5   6
ATOM      6  C   UNL     1      46.195   2.626   7.390  0.00  0.00    +0.000 A 
ATOM      7  C   UNL     1      46.503   3.335   6.243  0.00  0.00    +0.000 A 
ATOM      8  C   UNL     1      47.325   2.597   5.345  0.00  0.00    +0.000 A 
ATOM      9  C   UNL     1      47.628   1.349   5.839  0.00  0.00    +0.000 A 
ATOM     10  S   UNL     1      46.941   1.085   7.383  0.00  0.00    +0.000 S 
ENDBRANCH   5   6
BRANCH   3   2
ATOM      2  C   UNL     1      43.520   3.111  11.642  0.00  0.00    +0.000 C 
BRANCH   2   1
ATOM      1  O   UNL     1      42.830   1.858  11.680  0.00  0.00    +0.000 OA
ATOM     13  H   UNL     1      43.470   1.192  11.381  0.00  0.00    +0.000 HD
ENDBRANCH   2   1
ENDBRANCH   3   2
TORSDOF 3
ENDMDL
MODEL 3
REMARK VINA RESULT:    -5.419      3.226      5.346
REMARK INTER + INTRA:          -6.320
REMARK INTER:                  -6.200
REMARK INTRA:                  -0.120
REMARK UNBOUND:                -0.108
REMARK  Name = 
REMARK  3 active torsions:
REMARK  status: ('A' for Active; 'I' for Inactive)
REMARK    1  A    between atoms: O_1  and  C_2
REMARK    2  A    between atoms: C_2  and  C_3
REMARK    3  A    between atoms: C_5  and  C_6
REMARK                            x       y       z     vdW  Elec       q    Type
REMARK                         _______ _______ _______ _____ _____    ______ ____
ROOT
ATOM      3  C   UNL     1      45.897   3.010   7.843  0.00  0.00    +0.000 A 
ATOM      4  C   UNL     1      45.310   4.046   8.602  0.00  0.00    +0.000 A 
ATOM      5  C   UNL     1      44.797   3.443   9.727  0.00  0.00    +0.000 A 
ATOM     11  N   UNL     1      45.124   2.120   9.602  0.00  0.00    +0.000 N 
ATOM     12  N   UNL     1      45.789   1.825   8.466  0.00  0.00    +0.000 NA
ATOM     14  H   UNL     1      44.913   1.370  10.251  0.00  0.00    +0.000 HD
ENDROOT
BRANCH   5   6
ATOM      6  C   UNL     1      44.072   4.022  10.817  0.00  0.00    +0.000 A 
ATOM      7  C   UNL     1      43.244   5.126  10.746  0.00  0.00    +0.000 A 
ATOM      8  C   UNL     1      42.688   5.479  12.009  0.00  0.00    +0.000 A 
ATOM      9  C   UNL     1      43.102   4.624  13.005  0.00  0.00    +0.000 A 
ATOM     10  S   UNL     1      44.134   3.397  12.411  0.00  0.00    +0.000 S 
ENDBRANCH   5   6
BRANCH   3   2
ATOM      2  C   UNL     1      46.550   3.136   6.511  0.00  0.00    +0.000 C 
BRANCH   2   1
ATOM      1  O   UNL     1      47.976   3.184   6.618  0.00  0.00    +0.000 OA
ATOM     13  H   UNL     1      48.313   2.504   6.012  0.00  0.00    +0.000 HD
ENDBRANCH   2   1
ENDBRANCH   3   2
TORSDOF 3
ENDMDL
MODEL 4
REMARK VINA RESULT:    -4.778      4.657      5.489
REMARK INTER + INTRA:          -5.584
REMARK INTER:                  -5.475
REMARK INTRA:                  -0.109
REMARK UNBOUND:                -0.108
REMARK  Name = 
REMARK  3 active torsions:
REMARK  status: ('A' for Active; 'I' for Inactive)
REMARK    1  A    between atoms: O_1  and  C_2
REMARK    2  A    between atoms: C_2  and  C_3
REMARK    3  A    between atoms: C_5  and  C_6
REMARK                            x       y       z     vdW  Elec       q    Type
REMARK                         _______ _______ _______ _____ _____    ______ ____
ROOT
ATOM      3  C   UNL     1      47.365   4.407  15.110  0.00  0.00    +0.000 A 
ATOM      4  C   UNL     1      46.363   5.125  14.422  0.00  0.00    +0.000 A 
ATOM      5  C   UNL     1      45.923   4.288  13.422  0.00  0.00    +0.000 A 
ATOM     11  N   UNL     1      46.641   3.134  13.582  0.00  0.00    +0.000 N 
ATOM     12  N   UNL     1      47.528   3.177  14.597  0.00  0.00    +0.000 NA
ATOM     14  H   UNL     1      46.578   2.288  13.026  0.00  0.00    +0.000 HD
ENDROOT
BRANCH   5   6
ATOM      6  C   UNL     1      44.937   4.522  12.410  0.00  0.00    +0.000 A 
ATOM      7  C   UNL     1      45.113   4.350  11.050  0.00  0.00    +0.000 A 
ATOM      8  C   UNL     1      43.954   4.694  10.298  0.00  0.00    +0.000 A 
ATOM      9  C   UNL     1      42.924   5.110  11.110  0.00  0.00    +0.000 A 
ATOM     10  S   UNL     1      43.351   5.063  12.765  0.00  0.00    +0.000 S 
ENDBRANCH   5   6
BRANCH   3   2
ATOM      2  C   UNL     1      48.188   4.892  16.253  0.00  0.00    +0.000 C 
BRANCH   2   1
ATOM      1  O   UNL     1      49.189   3.943  16.631  0.00  0.00    +0.000 OA
ATOM     13  H   UNL     1      49.458   4.183  17.533  0.00  0.00    +0.000 HD
ENDBRANCH   2   1
ENDBRANCH   3   2
TORSDOF 3
ENDMDL
MODEL 5
REMARK VINA RESULT:    -4.721     10.172     10.318
REMARK INTER + INTRA:          -5.520
REMARK INTER:                  -5.410
REMARK INTRA:                  -0.110
REMARK UNBOUND:                -0.108
REMARK  Name = 
REMARK  3 active torsions:
REMARK  status: ('A' for Active; 'I' for Inactive)
REMARK    1  A    between atoms: O_1  and  C_2
REMARK    2  A    between atoms: C_2  and  C_3
REMARK    3  A    between atoms: C_5  and  C_6
REMARK                            x       y       z     vdW  Elec       q    Type
REMARK                         _______ _______ _______ _____ _____    ______ ____
ROOT
ATOM      3  C   UNL     1      48.745   2.935  16.979  0.00  0.00    +0.000 A 
ATOM      4  C   UNL     1      49.898   3.164  17.761  0.00  0.00    +0.000 A 
ATOM      5  C   UNL     1      50.829   2.244  17.334  0.00  0.00    +0.000 A 
ATOM     11  N   UNL     1      50.212   1.557  16.325  0.00  0.00    +0.000 N 
ATOM     12  N   UNL     1      48.944   1.950  16.089  0.00  0.00    +0.000 NA
ATOM     14  H   UNL     1      50.600   0.803  15.768  0.00  0.00    +0.000 HD
ENDROOT
BRANCH   5   6
ATOM      6  C   UNL     1      52.161   2.014  17.806  0.00  0.00    +0.000 A 
ATOM      7  C   UNL     1      52.889   0.850  17.646  0.00  0.00    +0.000 A 
ATOM      8  C   UNL     1      54.175   0.918  18.254  0.00  0.00    +0.000 A 
ATOM      9  C   UNL     1      54.393   2.138  18.852  0.00  0.00    +0.000 A 
ATOM     10  S   UNL     1      53.062   3.195  18.659  0.00  0.00    +0.000 S 
ENDBRANCH   5   6
BRANCH   3   2
ATOM      2  C   UNL     1      47.438   3.641  17.085  0.00  0.00    +0.000 C 
BRANCH   2   1
ATOM      1  O   UNL     1      46.434   2.819  17.690  0.00  0.00    +0.000 OA
ATOM     13  H   UNL     1      46.547   1.934  17.305  0.00  0.00    +0.000 HD
ENDBRANCH   2   1
ENDBRANCH   3   2
TORSDOF 3
ENDMDL
MODEL 6
REMARK VINA RESULT:    -4.656      4.187      5.605
REMARK INTER + INTRA:          -5.444
REMARK INTER:                  -5.325
REMARK INTRA:                  -0.119
REMARK UNBOUND:                -0.108
REMARK  Name = 
REMARK  3 active torsions:
REMARK  status: ('A' for Active; 'I' for Inactive)
REMARK    1  A    between atoms: O_1  and  C_2
REMARK    2  A    between atoms: C_2  and  C_3
REMARK    3  A    between atoms: C_5  and  C_6
REMARK                            x       y       z     vdW  Elec       q    Type
REMARK                         _______ _______ _______ _____ _____    ______ ____
ROOT
ATOM      3  C   UNL     1      44.613   3.657  11.805  0.00  0.00    +0.000 A 
ATOM      4  C   UNL     1      44.967   5.015  11.655  0.00  0.00    +0.000 A 
ATOM      5  C   UNL     1      45.773   5.313  12.730  0.00  0.00    +0.000 A 
ATOM     11  N   UNL     1      45.884   4.141  13.427  0.00  0.00    +0.000 N 
ATOM     12  N   UNL     1      45.187   3.118  12.892  0.00  0.00    +0.000 NA
ATOM     14  H   UNL     1      46.410   3.979  14.279  0.00  0.00    +0.000 HD
ENDROOT
BRANCH   5   6
ATOM      6  C   UNL     1      46.386   6.556  13.088  0.00  0.00    +0.000 A 
ATOM      7  C   UNL     1      45.842   7.813  12.902  0.00  0.00    +0.000 A 
ATOM      8  C   UNL     1      46.709   8.857  13.334  0.00  0.00    +0.000 A 
ATOM      9  C   UNL     1      47.885   8.363  13.848  0.00  0.00    +0.000 A 
ATOM     10  S   UNL     1      47.929   6.653  13.825  0.00  0.00    +0.000 S 
ENDBRANCH   5   6
BRANCH   3   2
ATOM      2  C   UNL     1      43.712   2.864  10.922  0.00  0.00    +0.000 C 
BRANCH   2   1
ATOM      1  O   UNL     1      42.899   1.954  11.668  0.00  0.00    +0.000 OA
ATOM     13  H   UNL     1      42.079   1.849  11.158  0.00  0.00    +0.000 HD
ENDBRANCH   2   1
ENDBRANCH   3   2
TORSDOF 3
ENDMDL
MODEL 7
REMARK VINA RESULT:    -4.600      4.117      5.310
REMARK INTER + INTRA:          -5.380
REMARK INTER:                  -5.256
REMARK INTRA:                  -0.125
REMARK UNBOUND:                -0.108
REMARK  Name = 
REMARK  3 active torsions:
REMARK  status: ('A' for Active; 'I' for Inactive)
REMARK    1  A    between atoms: O_1  and  C_2
REMARK    2  A    between atoms: C_2  and  C_3
REMARK    3  A    between atoms: C_5  and  C_6
REMARK                            x       y       z     vdW  Elec       q    Type
REMARK                         _______ _______ _______ _____ _____    ______ ____
ROOT
ATOM      3  C   UNL     1      43.648   4.567  11.521  0.00  0.00    +0.000 A 
ATOM      4  C   UNL     1      44.891   5.077  11.955  0.00  0.00    +0.000 A 
ATOM      5  C   UNL     1      44.840   6.433  11.725  0.00  0.00    +0.000 A 
ATOM     11  N   UNL     1      43.591   6.660  11.213  0.00  0.00    +0.000 N 
ATOM     12  N   UNL     1      42.845   5.545  11.073  0.00  0.00    +0.000 NA
ATOM     14  H   UNL     1      43.195   7.550  10.931  0.00  0.00    +0.000 HD
ENDROOT
BRANCH   5   6
ATOM      6  C   UNL     1      45.841   7.431  11.952  0.00  0.00    +0.000 A 
ATOM      7  C   UNL     1      47.205   7.262  11.801  0.00  0.00    +0.000 A 
ATOM      8  C   UNL     1      47.944   8.433  12.132  0.00  0.00    +0.000 A 
ATOM      9  C   UNL     1      47.119   9.465  12.517  0.00  0.00    +0.000 A 
ATOM     10  S   UNL     1      45.468   9.025  12.457  0.00  0.00    +0.000 S 
ENDBRANCH   5   6
BRANCH   3   2
ATOM      2  C   UNL     1      43.220   3.140  11.515  0.00  0.00    +0.000 C 
BRANCH   2   1
ATOM      1  O   UNL     1      43.855   2.388  12.553  0.00  0.00    +0.000 OA
ATOM     13  H   UNL     1      44.793   2.639  12.529  0.00  0.00    +0.000 HD
ENDBRANCH   2   1
ENDBRANCH   3   2
TORSDOF 3
ENDMDL
MODEL 8
REMARK VINA RESULT:    -4.537      4.918      5.585
REMARK INTER + INTRA:          -5.309
REMARK INTER:                  -5.188
REMARK INTRA:                  -0.121
REMARK UNBOUND:                -0.108
REMARK  Name = 
REMARK  3 active torsions:
REMARK  status: ('A' for Active; 'I' for Inactive)
REMARK    1  A    between atoms: O_1  and  C_2
REMARK    2  A    between atoms: C_2  and  C_3
REMARK    3  A    between atoms: C_5  and  C_6
REMARK                            x       y       z     vdW  Elec       q    Type
REMARK                         _______ _______ _______ _____ _____    ______ ____
ROOT
ATOM      3  C   UNL     1      44.865   4.763  13.048  0.00  0.00    +0.000 A 
ATOM      4  C   UNL     1      45.498   5.952  12.623  0.00  0.00    +0.000 A 
ATOM      5  C   UNL     1      46.816   5.830  13.001  0.00  0.00    +0.000 A 
ATOM     11  N   UNL     1      46.906   4.595  13.584  0.00  0.00    +0.000 N 
ATOM     12  N   UNL     1      45.737   3.925  13.631  0.00  0.00    +0.000 NA
ATOM     14  H   UNL     1      47.733   4.159  13.977  0.00  0.00    +0.000 HD
ENDROOT
BRANCH   5   6
ATOM      6  C   UNL     1      47.895   6.758  12.845  0.00  0.00    +0.000 A 
ATOM      7  C   UNL     1      48.221   7.435  11.685  0.00  0.00    +0.000 A 
ATOM      8  C   UNL     1      49.368   8.265  11.837  0.00  0.00    +0.000 A 
ATOM      9  C   UNL     1      49.876   8.204  13.114  0.00  0.00    +0.000 A 
ATOM     10  S   UNL     1      48.961   7.168  14.121  0.00  0.00    +0.000 S 
ENDBRANCH   5   6
BRANCH   3   2
ATOM      2  C   UNL     1      43.421   4.422  12.916  0.00  0.00    +0.000 C 
BRANCH   2   1
ATOM      1  O   UNL     1      42.579   5.454  13.440  0.00  0.00    +0.000 OA
ATOM     13  H   UNL     1      43.156   6.224  13.579  0.00  0.00    +0.000 HD
ENDBRANCH   2   1
ENDBRANCH   3   2
TORSDOF 3
ENDMDL
MODEL 9
REMARK VINA RESULT:    -4.485      4.889      5.623
REMARK INTER + INTRA:          -5.248
REMARK INTER:                  -5.140
REMARK INTRA:                  -0.108
REMARK UNBOUND:                -0.108
REMARK  Name = 
REMARK  3 active torsions:
REMARK  status: ('A' for Active; 'I' for Inactive)
REMARK    1  A    between atoms: O_1  and  C_2
REMARK    2  A    between atoms: C_2  and  C_3
REMARK    3  A    between atoms: C_5  and  C_6
REMARK                            x       y       z     vdW  Elec       q    Type
REMARK                         _______ _______ _______ _____ _____    ______ ____
ROOT
ATOM      3  C   UNL     1      47.845   6.117  14.356  0.00  0.00    +0.000 A 
ATOM      4  C   UNL     1      46.869   6.105  13.335  0.00  0.00    +0.000 A 
ATOM      5  C   UNL     1      46.184   4.921  13.486  0.00  0.00    +0.000 A 
ATOM     11  N   UNL     1      46.747   4.321  14.580  0.00  0.00    +0.000 N 
ATOM     12  N   UNL     1      47.762   5.022  15.127  0.00  0.00    +0.000 NA
ATOM     14  H   UNL     1      46.491   3.432  14.993  0.00  0.00    +0.000 HD
ENDROOT
BRANCH   5   6
ATOM      6  C   UNL     1      45.112   4.386  12.702  0.00  0.00    +0.000 A 
ATOM      7  C   UNL     1      45.186   3.286  11.869  0.00  0.00    +0.000 A 
ATOM      8  C   UNL     1      43.958   3.019  11.200  0.00  0.00    +0.000 A 
ATOM      9  C   UNL     1      42.979   3.919  11.552  0.00  0.00    +0.000 A 
ATOM     10  S   UNL     1      43.538   5.062  12.696  0.00  0.00    +0.000 S 
ENDBRANCH   5   6
BRANCH   3   2
ATOM      2  C   UNL     1      48.876   7.166  14.596  0.00  0.00    +0.000 C 
BRANCH   2   1
ATOM      1  O   UNL     1      50.051   6.948  13.808  0.00  0.00    +0.000 OA
ATOM     13  H   UNL     1      49.883   6.141  13.295  0.00  0.00    +0.000 HD
ENDBRANCH   2   1
ENDBRANCH   3   2
TORSDOF 3
ENDMDL
