MODEL 1
REMARK VINA RESULT:    -7.262      0.000      0.000
REMARK INTER + INTRA:          -8.447
REMARK INTER:                  -8.536
REMARK INTRA:                   0.089
REMARK UNBOUND:                 0.089
REMARK  Name = 
REMARK  5 active torsions:
REMARK  status: ('A' for Active; 'I' for Inactive)
REMARK    1  A    between atoms: C_1  and  C_2
REMARK    2  A    between atoms: C_2  and  C_3
REMARK    3  A    between atoms: C_2  and  N_4
REMARK    4  A    between atoms: C_2  and  C_14
REMARK    5  A    between atoms: C_8  and  C_9
REMARK                            x       y       z     vdW  Elec       q    Type
REMARK                         _______ _______ _______ _____ _____    ______ ____
ROOT
ATOM      4  N   UNL     1      43.724   3.795  10.976  0.00  0.00    +0.000 N 
ATOM      5  C   UNL     1      44.531   3.561   9.871  0.00  0.00    +0.000 A 
ATOM      6  C   UNL     1      44.858   2.240   9.572  0.00  0.00    +0.000 A 
ATOM      7  C   UNL     1      45.753   1.968   8.536  0.00  0.00    +0.000 A 
ATOM      8  C   UNL     1      46.275   3.020   7.784  0.00  0.00    +0.000 A 
ATOM     12  C   UNL     1      45.841   4.294   8.108  0.00  0.00    +0.000 A 
ATOM     13  N   UNL     1      44.985   4.579   9.120  0.00  0.00    +0.000 NA
ATOM     20  H   UNL     1      42.774   3.507  10.764  0.00  0.00    +0.000 HD
ENDROOT
BRANCH   8   9
ATOM      9  C   UNL     1      47.260   2.733   6.714  0.00  0.00    +0.000 C 
ATOM     10  N   UNL     1      47.093   3.308   5.483  0.00  0.00    +0.000 N 
ATOM     11  O   UNL     1      48.220   2.000   6.920  0.00  0.00    +0.000 OA
ATOM     21  H   UNL     1      46.357   3.940   5.216  0.00  0.00    +0.000 HD
ATOM     22  H   UNL     1      47.803   3.098   4.791  0.00  0.00    +0.000 HD
ENDBRANCH   8   9
BRANCH   4   2
ATOM      1  C   UNL     1      43.349   6.263  10.844  0.00  0.00    +0.000 C 
ATOM      2  C   UNL     1      43.764   5.067  11.732  0.00  0.00    +0.000 C 
ATOM      3  C   UNL     1      42.854   4.955  12.971  0.00  0.00    +0.000 C 
BRANCH   2  14
ATOM     14  C   UNL     1      45.222   5.311  12.213  0.00  0.00    +0.000 A 
ATOM     15  C   UNL     1      45.964   6.404  11.716  0.00  0.00    +0.000 A 
ATOM     16  C   UNL     1      47.275   6.649  12.133  0.00  0.00    +0.000 A 
ATOM     17  C   UNL     1      47.876   5.814  13.068  0.00  0.00    +0.000 A 
ATOM     18  C   UNL     1      47.171   4.726  13.573  0.00  0.00    +0.000 A 
ATOM     19  C   UNL     1      45.864   4.472  13.145  0.00  0.00    +0.000 A 
ENDBRANCH   2  14
ENDBRANCH   4   2
TORSDOF 3
ENDMDL
MODEL 2
REMARK VINA RESULT:    -6.250      3.203      6.010
REMARK INTER + INTRA:          -7.256
REMARK INTER:                  -7.611
REMARK INTRA:                   0.355
REMARK UNBOUND:                 0.089
REMARK  Name = 
REMARK  5 active torsions:
REMARK  status: ('A' for Active; 'I' for Inactive)
REMARK    1  A    between atoms: C_1  and  C_2
REMARK    2  A    between atoms: C_2  and  C_3
REMARK    3  A    between atoms: C_2  and  N_4
REMARK    4  A    between atoms: C_2  and  C_14
REMARK    5  A    between atoms: C_8  and  C_9
REMARK                            x       y       z     vdW  Elec       q    Type
REMARK                         _______ _______ _______ _____ _____    ______ ____
ROOT
ATOM      4  N   UNL     1      45.444   3.439  12.526  0.00  0.00    +0.000 N 
ATOM      5  C   UNL     1      46.232   4.481  12.996  0.00  0.00    +0.000 A 
ATOM      6  C   UNL     1      46.798   4.350  14.263  0.00  0.00    +0.000 A 
ATOM      7  C   UNL     1      47.507   5.417  14.817  0.00  0.00    +0.000 A 
ATOM      8  C   UNL     1      47.678   6.586  14.077  0.00  0.00    +0.000 A 
ATOM     12  C   UNL     1      47.141   6.601  12.801  0.00  0.00    +0.000 A 
ATOM     13  N   UNL     1      46.437   5.581  12.252  0.00  0.00    +0.000 NA
ATOM     20  H   UNL     1      46.039   2.652  12.284  0.00  0.00    +0.000 HD
ENDROOT
BRANCH   8   9
ATOM      9  C   UNL     1      48.392   7.735  14.684  0.00  0.00    +0.000 C 
ATOM     10  N   UNL     1      47.669   8.805  15.135  0.00  0.00    +0.000 N 
ATOM     11  O   UNL     1      49.613   7.733  14.794  0.00  0.00    +0.000 OA
ATOM     21  H   UNL     1      46.667   8.899  15.114  0.00  0.00    +0.000 HD
ATOM     22  H   UNL     1      48.200   9.558  15.559  0.00  0.00    +0.000 HD
ENDBRANCH   8   9
BRANCH   4   2
ATOM      1  C   UNL     1      43.253   2.583  11.681  0.00  0.00    +0.000 C 
ATOM      2  C   UNL     1      44.366   3.647  11.534  0.00  0.00    +0.000 C 
ATOM      3  C   UNL     1      43.795   5.071  11.690  0.00  0.00    +0.000 C 
BRANCH   2  14
ATOM     14  C   UNL     1      44.972   3.513  10.109  0.00  0.00    +0.000 A 
ATOM     15  C   UNL     1      45.178   2.239   9.539  0.00  0.00    +0.000 A 
ATOM     16  C   UNL     1      45.719   2.088   8.259  0.00  0.00    +0.000 A 
ATOM     17  C   UNL     1      46.055   3.209   7.509  0.00  0.00    +0.000 A 
ATOM     18  C   UNL     1      45.868   4.479   8.046  0.00  0.00    +0.000 A 
ATOM     19  C   UNL     1      45.340   4.629   9.333  0.00  0.00    +0.000 A 
ENDBRANCH   2  14
ENDBRANCH   4   2
TORSDOF 3
ENDMDL
MODEL 3
REMARK VINA RESULT:    -6.238      3.184      5.911
REMARK INTER + INTRA:          -7.242
REMARK INTER:                  -7.618
REMARK INTRA:                   0.376
REMARK UNBOUND:                 0.089
REMARK  Name = 
REMARK  5 active torsions:
REMARK  status: ('A' for Active; 'I' for Inactive)
REMARK    1  A    between atoms: C_1  and  C_2
REMARK    2  A    between atoms: C_2  and  C_3
REMARK    3  A    between atoms: C_2  and  N_4
REMARK    4  A    between atoms: C_2  and  C_14
REMARK    5  A    between atoms: C_8  and  C_9
REMARK                            x       y       z     vdW  Elec       q    Type
REMARK                         _______ _______ _______ _____ _____    ______ ____
ROOT
ATOM      4  N   UNL     1      45.460   3.531  12.503  0.00  0.00    +0.000 N 
ATOM      5  C   UNL     1      46.230   4.607  12.924  0.00  0.00    +0.000 A 
ATOM      6  C   UNL     1      46.803   4.541  14.193  0.00  0.00    +0.000 A 
ATOM      7  C   UNL     1      47.493   5.644  14.698  0.00  0.00    +0.000 A 
ATOM      8  C   UNL     1      47.639   6.784  13.908  0.00  0.00    +0.000 A 
ATOM     12  C   UNL     1      47.095   6.734  12.635  0.00  0.00    +0.000 A 
ATOM     13  N   UNL     1      46.409   5.678  12.134  0.00  0.00    +0.000 NA
ATOM     20  H   UNL     1      46.069   2.746  12.292  0.00  0.00    +0.000 HD
ENDROOT
BRANCH   8   9
ATOM      9  C   UNL     1      48.332   7.971  14.462  0.00  0.00    +0.000 C 
ATOM     10  N   UNL     1      47.602   8.921  15.122  0.00  0.00    +0.000 N 
ATOM     11  O   UNL     1      49.545   8.105  14.344  0.00  0.00    +0.000 OA
ATOM     21  H   UNL     1      46.611   8.898  15.294  0.00  0.00    +0.000 HD
ATOM     22  H   UNL     1      48.124   9.705  15.499  0.00  0.00    +0.000 HD
ENDBRANCH   8   9
BRANCH   4   2
ATOM      1  C   UNL     1      43.263   2.621  11.731  0.00  0.00    +0.000 C 
ATOM      2  C   UNL     1      44.373   3.675  11.509  0.00  0.00    +0.000 C 
ATOM      3  C   UNL     1      43.801   5.105  11.581  0.00  0.00    +0.000 C 
BRANCH   2  14
ATOM     14  C   UNL     1      44.968   3.454  10.090  0.00  0.00    +0.000 A 
ATOM     15  C   UNL     1      45.302   4.558   9.277  0.00  0.00    +0.000 A 
ATOM     16  C   UNL     1      45.841   4.389   7.999  0.00  0.00    +0.000 A 
ATOM     17  C   UNL     1      46.074   3.111   7.504  0.00  0.00    +0.000 A 
ATOM     18  C   UNL     1      45.751   2.003   8.281  0.00  0.00    +0.000 A 
ATOM     19  C   UNL     1      45.198   2.171   9.555  0.00  0.00    +0.000 A 
ENDBRANCH   2  14
ENDBRANCH   4   2
TORSDOF 3
ENDMDL
MODEL 4
REMARK VINA RESULT:    -6.142      3.287      5.968
REMARK INTER + INTRA:          -7.130
REMARK INTER:                  -7.718
REMARK INTRA:                   0.589
REMARK UNBOUND:                 0.089
REMARK  Name = 
REMARK  5 active torsions:
REMARK  status: ('A' for Active; 'I' for Inactive)
REMARK    1  A    between atoms: C_1  and  C_2
REMARK    2  A    between atoms: C_2  and  C_3
REMARK    3  A    between atoms: C_2  and  N_4
REMARK    4  A    between atoms: C_2  and  C_14
REMARK    5  A    between atoms: C_8  and  C_9
REMARK                            x       y       z     vdW  Elec       q    Type
REMARK                         _______ _______ _______ _____ _____    ______ ____
ROOT
ATOM      4  N   UNL     1      45.221   5.826  11.219  0.00  0.00    +0.000 N 
ATOM      5  C   UNL     1      46.245   6.133  12.106  0.00  0.00    +0.000 A 
ATOM      6  C   UNL     1      47.092   7.190  11.780  0.00  0.00    +0.000 A 
ATOM      7  C   UNL     1      48.197   7.463  12.587  0.00  0.00    +0.000 A 
ATOM      8  C   UNL     1      48.415   6.702  13.736  0.00  0.00    +0.000 A 
ATOM     12  C   UNL     1      47.483   5.718  14.017  0.00  0.00    +0.000 A 
ATOM     13  N   UNL     1      46.413   5.428  13.237  0.00  0.00    +0.000 NA
ATOM     20  H   UNL     1      44.504   6.543  11.274  0.00  0.00    +0.000 HD
ENDROOT
BRANCH   8   9
ATOM      9  C   UNL     1      49.613   6.963  14.568  0.00  0.00    +0.000 C 
ATOM     10  N   UNL     1      50.633   7.714  14.050  0.00  0.00    +0.000 N 
ATOM     11  O   UNL     1      49.696   6.525  15.710  0.00  0.00    +0.000 OA
ATOM     21  H   UNL     1      50.656   8.138  13.137  0.00  0.00    +0.000 HD
ATOM     22  H   UNL     1      51.423   7.881  14.663  0.00  0.00    +0.000 HD
ENDBRANCH   8   9
BRANCH   4   2
ATOM      1  C   UNL     1      45.064   3.584  12.315  0.00  0.00    +0.000 C 
ATOM      2  C   UNL     1      44.641   4.467  11.118  0.00  0.00    +0.000 C 
ATOM      3  C   UNL     1      43.106   4.573  11.021  0.00  0.00    +0.000 C 
BRANCH   2  14
ATOM     14  C   UNL     1      45.172   3.800   9.819  0.00  0.00    +0.000 A 
ATOM     15  C   UNL     1      45.707   4.589   8.778  0.00  0.00    +0.000 A 
ATOM     16  C   UNL     1      46.194   4.015   7.600  0.00  0.00    +0.000 A 
ATOM     17  C   UNL     1      46.171   2.635   7.436  0.00  0.00    +0.000 A 
ATOM     18  C   UNL     1      45.645   1.831   8.443  0.00  0.00    +0.000 A 
ATOM     19  C   UNL     1      45.145   2.406   9.616  0.00  0.00    +0.000 A 
ENDBRANCH   2  14
ENDBRANCH   4   2
TORSDOF 3
ENDMDL
MODEL 5
REMARK VINA RESULT:    -5.920      3.154      4.915
REMARK INTER + INTRA:          -6.870
REMARK INTER:                  -6.970
REMARK INTRA:                   0.101
REMARK UNBOUND:                 0.089
REMARK  Name = 
REMARK  5 active torsions:
REMARK  status: ('A' for Active; 'I' for Inactive)
REMARK    1  A    between atoms: C_1  and  C_2
REMARK    2  A    between atoms: C_2  and  C_3
REMARK    3  A    between atoms: C_2  and  N_4
REMARK    4  A    between atoms: C_2  and  C_14
REMARK    5  A    between atoms: C_8  and  C_9
REMARK                            x       y       z     vdW  Elec       q    Type
REMARK                         _______ _______ _______ _____ _____    ______ ____
ROOT
ATOM      4  N   UNL     1      47.092   6.057  14.133  0.00  0.00    +0.000 N 
ATOM      5  C   UNL     1      46.344   5.526  13.091  0.00  0.00    +0.000 A 
ATOM      6  C   UNL     1      45.815   4.247  13.255  0.00  0.00    +0.000 A 
ATOM      7  C   UNL     1      45.149   3.633  12.194  0.00  0.00    +0.000 A 
ATOM      8  C   UNL     1      44.983   4.325  10.994  0.00  0.00    +0.000 A 
ATOM     12  C   UNL     1      45.481   5.615  10.945  0.00  0.00    +0.000 A 
ATOM     13  N   UNL     1      46.143   6.222  11.960  0.00  0.00    +0.000 NA
ATOM     20  H   UNL     1      46.471   6.308  14.897  0.00  0.00    +0.000 HD
ENDROOT
BRANCH   8   9
ATOM      9  C   UNL     1      44.316   3.655   9.852  0.00  0.00    +0.000 C 
ATOM     10  N   UNL     1      44.129   4.351   8.689  0.00  0.00    +0.000 N 
ATOM     11  O   UNL     1      43.942   2.490   9.934  0.00  0.00    +0.000 OA
ATOM     21  H   UNL     1      44.417   5.298   8.508  0.00  0.00    +0.000 HD
ATOM     22  H   UNL     1      43.686   3.844   7.931  0.00  0.00    +0.000 HD
ENDBRANCH   8   9
BRANCH   4   2
ATOM      1  C   UNL     1      48.841   6.879  12.548  0.00  0.00    +0.000 C 
ATOM      2  C   UNL     1      48.144   7.075  13.914  0.00  0.00    +0.000 C 
ATOM      3  C   UNL     1      47.525   8.482  14.024  0.00  0.00    +0.000 C 
BRANCH   2  14
ATOM     14  C   UNL     1      49.218   6.922  15.027  0.00  0.00    +0.000 A 
ATOM     15  C   UNL     1      48.935   6.183  16.195  0.00  0.00    +0.000 A 
ATOM     16  C   UNL     1      49.882   6.026  17.210  0.00  0.00    +0.000 A 
ATOM     17  C   UNL     1      51.144   6.595  17.079  0.00  0.00    +0.000 A 
ATOM     18  C   UNL     1      51.452   7.333  15.941  0.00  0.00    +0.000 A 
ATOM     19  C   UNL     1      50.499   7.502  14.930  0.00  0.00    +0.000 A 
ENDBRANCH   2  14
ENDBRANCH   4   2
TORSDOF 3
ENDMDL
MODEL 6
REMARK VINA RESULT:    -5.785      3.231      5.154
REMARK INTER + INTRA:          -6.711
REMARK INTER:                  -6.925
REMARK INTRA:                   0.214
REMARK UNBOUND:                 0.089
REMARK  Name = 
REMARK  5 active torsions:
REMARK  status: ('A' for Active; 'I' for Inactive)
REMARK    1  A    between atoms: C_1  and  C_2
REMARK    2  A    between atoms: C_2  and  C_3
REMARK    3  A    between atoms: C_2  and  N_4
REMARK    4  A    between atoms: C_2  and  C_14
REMARK    5  A    between atoms: C_8  and  C_9
REMARK                            x       y       z     vdW  Elec       q    Type
REMARK                         _______ _______ _______ _____ _____    ______ ____
ROOT
ATOM      4  N   UNL     1      46.463   7.681  13.466  0.00  0.00    +0.000 N 
ATOM      5  C   UNL     1      45.862   6.839  12.541  0.00  0.00    +0.000 A 
ATOM      6  C   UNL     1      44.716   6.151  12.936  0.00  0.00    +0.000 A 
ATOM      7  C   UNL     1      44.142   5.214  12.075  0.00  0.00    +0.000 A 
ATOM      8  C   UNL     1      44.698   5.009  10.812  0.00  0.00    +0.000 A 
ATOM     12  C   UNL     1      45.795   5.786  10.481  0.00  0.00    +0.000 A 
ATOM     13  N   UNL     1      46.375   6.690  11.308  0.00  0.00    +0.000 NA
ATOM     20  H   UNL     1      45.891   8.511  13.586  0.00  0.00    +0.000 HD
ENDROOT
BRANCH   8   9
ATOM      9  C   UNL     1      44.116   3.981   9.917  0.00  0.00    +0.000 C 
ATOM     10  N   UNL     1      44.178   4.165   8.563  0.00  0.00    +0.000 N 
ATOM     11  O   UNL     1      43.592   2.971  10.373  0.00  0.00    +0.000 OA
ATOM     21  H   UNL     1      44.604   4.942   8.086  0.00  0.00    +0.000 HD
ATOM     22  H   UNL     1      43.784   3.426   7.992  0.00  0.00    +0.000 HD
ENDBRANCH   8   9
BRANCH   4   2
ATOM      1  C   UNL     1      48.435   8.413  14.818  0.00  0.00    +0.000 C 
ATOM      2  C   UNL     1      47.907   8.004  13.423  0.00  0.00    +0.000 C 
ATOM      3  C   UNL     1      48.685   6.793  12.869  0.00  0.00    +0.000 C 
BRANCH   2  14
ATOM     14  C   UNL     1      48.117   9.205  12.459  0.00  0.00    +0.000 A 
ATOM     15  C   UNL     1      47.066  10.115  12.214  0.00  0.00    +0.000 A 
ATOM     16  C   UNL     1      47.227  11.205  11.355  0.00  0.00    +0.000 A 
ATOM     17  C   UNL     1      48.448  11.423  10.727  0.00  0.00    +0.000 A 
ATOM     18  C   UNL     1      49.502  10.541  10.946  0.00  0.00    +0.000 A 
ATOM     19  C   UNL     1      49.336   9.441  11.795  0.00  0.00    +0.000 A 
ENDBRANCH   2  14
ENDBRANCH   4   2
TORSDOF 3
ENDMDL
MODEL 7
REMARK VINA RESULT:    -5.765      4.291      6.394
REMARK INTER + INTRA:          -6.686
REMARK INTER:                  -7.094
REMARK INTRA:                   0.407
REMARK UNBOUND:                 0.089
REMARK  Name = 
REMARK  5 active torsions:
REMARK  status: ('A' for Active; 'I' for Inactive)
REMARK    1  A    between atoms: C_1  and  C_2
REMARK    2  A    between atoms: C_2  and  C_3
REMARK    3  A    between atoms: C_2  and  N_4
REMARK    4  A    between atoms: C_2  and  C_14
REMARK    5  A    between atoms: C_8  and  C_9
REMARK                            x       y       z     vdW  Elec       q    Type
REMARK                         _______ _______ _______ _____ _____    ______ ____
ROOT
ATOM      4  N   UNL     1      48.051   5.465  15.925  0.00  0.00    +0.000 N 
ATOM      5  C   UNL     1      47.393   5.067  14.769  0.00  0.00    +0.000 A 
ATOM      6  C   UNL     1      46.997   6.057  13.872  0.00  0.00    +0.000 A 
ATOM      7  C   UNL     1      46.240   5.711  12.752  0.00  0.00    +0.000 A 
ATOM      8  C   UNL     1      45.926   4.372  12.521  0.00  0.00    +0.000 A 
ATOM     12  C   UNL     1      46.421   3.450  13.428  0.00  0.00    +0.000 A 
ATOM     13  N   UNL     1      47.144   3.769  14.529  0.00  0.00    +0.000 NA
ATOM     20  H   UNL     1      48.993   5.763  15.689  0.00  0.00    +0.000 HD
ENDROOT
BRANCH   8   9
ATOM      9  C   UNL     1      45.084   4.010  11.356  0.00  0.00    +0.000 C 
ATOM     10  N   UNL     1      44.429   2.809  11.355  0.00  0.00    +0.000 N 
ATOM     11  O   UNL     1      44.960   4.774  10.405  0.00  0.00    +0.000 OA
ATOM     21  H   UNL     1      44.443   2.122  12.090  0.00  0.00    +0.000 HD
ATOM     22  H   UNL     1      43.850   2.615  10.546  0.00  0.00    +0.000 HD
ENDBRANCH   8   9
BRANCH   4   2
ATOM      1  C   UNL     1      47.844   5.572  18.415  0.00  0.00    +0.000 C 
ATOM      2  C   UNL     1      48.016   4.668  17.172  0.00  0.00    +0.000 C 
ATOM      3  C   UNL     1      46.880   3.628  17.081  0.00  0.00    +0.000 C 
BRANCH   2  14
ATOM     14  C   UNL     1      49.366   3.910  17.312  0.00  0.00    +0.000 A 
ATOM     15  C   UNL     1      50.553   4.616  17.601  0.00  0.00    +0.000 A 
ATOM     16  C   UNL     1      51.780   3.961  17.736  0.00  0.00    +0.000 A 
ATOM     17  C   UNL     1      51.850   2.579  17.599  0.00  0.00    +0.000 A 
ATOM     18  C   UNL     1      50.698   1.856  17.310  0.00  0.00    +0.000 A 
ATOM     19  C   UNL     1      49.472   2.514  17.161  0.00  0.00    +0.000 A 
ENDBRANCH   2  14
ENDBRANCH   4   2
TORSDOF 3
ENDMDL
MODEL 8
REMARK VINA RESULT:    -5.679      4.324      7.102
REMARK INTER + INTRA:          -6.586
REMARK INTER:                  -6.976
REMARK INTRA:                   0.391
REMARK UNBOUND:                 0.089
REMARK  Name = 
REMARK  5 active torsions:
REMARK  status: ('A' for Active; 'I' for Inactive)
REMARK    1  A    between atoms: C_1  and  C_2
REMARK    2  A    between atoms: C_2  and  C_3
REMARK    3  A    between atoms: C_2  and  N_4
REMARK    4  A    between atoms: C_2  and  C_14
REMARK    5  A    between atoms: C_8  and  C_9
REMARK                            x       y       z     vdW  Elec       q    Type
REMARK                         _______ _______ _______ _____ _____    ______ ____
ROOT
ATOM      4  N   UNL     1      46.387   4.527  13.329  0.00  0.00    +0.000 N 
ATOM      5  C   UNL     1      47.192   4.970  14.371  0.00  0.00    +0.000 A 
ATOM      6  C   UNL     1      47.229   4.204  15.535  0.00  0.00    +0.000 A 
ATOM      7  C   UNL     1      47.939   4.667  16.644  0.00  0.00    +0.000 A 
ATOM      8  C   UNL     1      48.639   5.871  16.558  0.00  0.00    +0.000 A 
ATOM     12  C   UNL     1      48.601   6.529  15.341  0.00  0.00    +0.000 A 
ATOM     13  N   UNL     1      47.905   6.102  14.258  0.00  0.00    +0.000 NA
ATOM     20  H   UNL     1      46.817   3.715  12.896  0.00  0.00    +0.000 HD
ENDROOT
BRANCH   8   9
ATOM      9  C   UNL     1      49.354   6.384  17.750  0.00  0.00    +0.000 C 
ATOM     10  N   UNL     1      48.670   7.139  18.664  0.00  0.00    +0.000 N 
ATOM     11  O   UNL     1      50.541   6.134  17.930  0.00  0.00    +0.000 OA
ATOM     21  H   UNL     1      47.695   7.382  18.625  0.00  0.00    +0.000 HD
ATOM     22  H   UNL     1      49.198   7.451  19.472  0.00  0.00    +0.000 HD
ENDBRANCH   8   9
BRANCH   4   2
ATOM      1  C   UNL     1      44.572   6.189  12.892  0.00  0.00    +0.000 C 
ATOM      2  C   UNL     1      45.808   5.451  12.328  0.00  0.00    +0.000 C 
ATOM      3  C   UNL     1      46.889   6.450  11.870  0.00  0.00    +0.000 C 
BRANCH   2  14
ATOM     14  C   UNL     1      45.351   4.621  11.096  0.00  0.00    +0.000 A 
ATOM     15  C   UNL     1      45.529   5.126   9.790  0.00  0.00    +0.000 A 
ATOM     16  C   UNL     1      45.131   4.401   8.664  0.00  0.00    +0.000 A 
ATOM     17  C   UNL     1      44.554   3.145   8.813  0.00  0.00    +0.000 A 
ATOM     18  C   UNL     1      44.362   2.622  10.087  0.00  0.00    +0.000 A 
ATOM     19  C   UNL     1      44.747   3.354  11.216  0.00  0.00    +0.000 A 
ENDBRANCH   2  14
ENDBRANCH   4   2
TORSDOF 3
ENDMDL
MODEL 9
REMARK VINA RESULT:    -5.247      3.538      5.175
REMARK INTER + INTRA:          -6.078
REMARK INTER:                  -6.122
REMARK INTRA:                   0.043
REMARK UNBOUND:                 0.089
REMARK  Name = 
REMARK  5 active torsions:
REMARK  status: ('A' for Active; 'I' for Inactive)
REMARK    1  A    between atoms: C_1  and  C_2
REMARK    2  A    between atoms: C_2  and  C_3
REMARK    3  A    between atoms: C_2  and  N_4
REMARK    4  A    between atoms: C_2  and  C_14
REMARK    5  A    between atoms: C_8  and  C_9
REMARK                            x       y       z     vdW  Elec       q    Type
REMARK                         _______ _______ _______ _____ _____    ______ ____
ROOT
ATOM      4  N   UNL     1      47.016   7.180  13.658  0.00  0.00    +0.000 N 
ATOM      5  C   UNL     1      46.271   6.218  12.988  0.00  0.00    +0.000 A 
ATOM      6  C   UNL     1      46.074   4.991  13.621  0.00  0.00    +0.000 A 
ATOM      7  C   UNL     1      45.424   3.960  12.940  0.00  0.00    +0.000 A 
ATOM      8  C   UNL     1      44.941   4.185  11.651  0.00  0.00    +0.000 A 
ATOM     12  C   UNL     1      45.122   5.454  11.130  0.00  0.00    +0.000 A 
ATOM     13  N   UNL     1      45.763   6.463  11.769  0.00  0.00    +0.000 NA
ATOM     20  H   UNL     1      46.466   7.555  14.425  0.00  0.00    +0.000 HD
ENDROOT
BRANCH   8   9
ATOM      9  C   UNL     1      44.292   3.076  10.912  0.00  0.00    +0.000 C 
ATOM     10  N   UNL     1      45.015   2.385   9.978  0.00  0.00    +0.000 N 
ATOM     11  O   UNL     1      43.127   2.766  11.134  0.00  0.00    +0.000 OA
ATOM     21  H   UNL     1      45.979   2.541   9.736  0.00  0.00    +0.000 HD
ATOM     22  H   UNL     1      44.534   1.623   9.513  0.00  0.00    +0.000 HD
ENDBRANCH   8   9
BRANCH   4   2
ATOM      1  C   UNL     1      48.553   7.656  11.744  0.00  0.00    +0.000 C 
ATOM      2  C   UNL     1      47.769   8.236  12.945  0.00  0.00    +0.000 C 
ATOM      3  C   UNL     1      46.795   9.340  12.489  0.00  0.00    +0.000 C 
BRANCH   2  14
ATOM     14  C   UNL     1      48.796   8.861  13.930  0.00  0.00    +0.000 A 
ATOM     15  C   UNL     1      49.349  10.134  13.672  0.00  0.00    +0.000 A 
ATOM     16  C   UNL     1      50.271  10.722  14.541  0.00  0.00    +0.000 A 
ATOM     17  C   UNL     1      50.656  10.058  15.701  0.00  0.00    +0.000 A 
ATOM     18  C   UNL     1      50.132   8.800  15.981  0.00  0.00    +0.000 A 
ATOM     19  C   UNL     1      49.219   8.205  15.102  0.00  0.00    +0.000 A 
ENDBRANCH   2  14
ENDBRANCH   4   2
TORSDOF 3
ENDMDL
