MODEL 1
REMARK VINA RESULT:    -7.752      0.000      0.000
REMARK INTER + INTRA:         -10.879
REMARK INTER:                 -10.017
REMARK INTRA:                  -0.862
REMARK UNBOUND:                -0.862
REMARK  Name = 
REMARK  5 active torsions:
REMARK  status: ('A' for Active; 'I' for Inactive)
REMARK    1  A    between atoms: C_2  and  C_18
REMARK    2  A    between atoms: N_3  and  C_4
REMARK    3  A    between atoms: C_4  and  C_5
REMARK    4  A    between atoms: C_8  and  C_9
REMARK    5  A    between atoms: C_9  and  N_10
REMARK                            x       y       z     vdW  Elec       q    Type
REMARK                         _______ _______ _______ _____ _____    ______ ____
ROOT
ATOM      1  O   UNL     1      48.498   6.961  12.797  0.00  0.00    +0.000 OA
ATOM      2  C   UNL     1      47.826   6.729  13.800  0.00  0.00    +0.000 C 
ATOM      3  N   UNL     1      46.455   6.801  13.788  0.00  0.00    +0.000 N 
ATOM     28  H   UNL     1      45.948   6.813  14.668  0.00  0.00    +0.000 HD
ENDROOT
BRANCH   2  18
ATOM     18  C   UNL     1      48.459   6.321  15.058  0.00  0.00    +0.000 A 
ATOM     19  C   UNL     1      49.472   7.099  15.604  0.00  0.00    +0.000 A 
ATOM     20  S   UNL     1      50.092   6.487  17.068  0.00  0.00    +0.000 S 
ATOM     21  C   UNL     1      48.995   5.184  17.051  0.00  0.00    +0.000 A 
ATOM     22  N   UNL     1      48.966   4.283  18.067  0.00  0.00    +0.000 NA
ATOM     23  C   UNL     1      48.062   3.367  17.945  0.00  0.00    +0.000 A 
ATOM     24  N   UNL     1      47.193   3.271  16.886  0.00  0.00    +0.000 N 
ATOM     25  C   UNL     1      47.216   4.135  15.815  0.00  0.00    +0.000 A 
ATOM     26  O   UNL     1      46.461   3.980  14.859  0.00  0.00    +0.000 OA
ATOM     27  C   UNL     1      48.190   5.200  15.926  0.00  0.00    +0.000 A 
ATOM     29  H   UNL     1      46.521   2.519  16.841  0.00  0.00    +0.000 HD
ENDBRANCH   2  18
BRANCH   3   4
ATOM      4  C   UNL     1      45.767   7.310  12.629  0.00  0.00    +0.000 C 
BRANCH   4   5
ATOM      5  C   UNL     1      45.494   6.236  11.613  0.00  0.00    +0.000 A 
ATOM      6  C   UNL     1      46.045   6.323  10.328  0.00  0.00    +0.000 A 
ATOM      7  C   UNL     1      45.847   5.301   9.396  0.00  0.00    +0.000 A 
ATOM      8  C   UNL     1      45.080   4.176   9.725  0.00  0.00    +0.000 A 
ATOM     16  C   UNL     1      44.487   4.112  10.994  0.00  0.00    +0.000 A 
ATOM     17  C   UNL     1      44.689   5.135  11.928  0.00  0.00    +0.000 A 
BRANCH   8   9
ATOM      9  C   UNL     1      44.864   3.070   8.713  0.00  0.00    +0.000 C 
BRANCH   9  10
ATOM     10  N   UNL     1      46.095   2.603   8.031  0.00  0.00    +0.000 NA
ATOM     11  C   UNL     1      46.160   1.131   8.021  0.00  0.00    +0.000 C 
ATOM     12  C   UNL     1      47.323   0.586   7.186  0.00  0.00    +0.000 C 
ATOM     13  C   UNL     1      47.279   1.131   5.767  0.00  0.00    +0.000 C 
ATOM     14  C   UNL     1      47.276   2.651   5.812  0.00  0.00    +0.000 C 
ATOM     15  C   UNL     1      46.122   3.171   6.670  0.00  0.00    +0.000 C 
ENDBRANCH   9  10
ENDBRANCH   8   9
ENDBRANCH   4   5
ENDBRANCH   3   4
TORSDOF 5
ENDMDL
MODEL 2
REMARK VINA RESULT:    -7.190      1.982      2.802
REMARK INTER + INTRA:         -10.153
REMARK INTER:                  -9.757
REMARK INTRA:                  -0.396
REMARK UNBOUND:                -0.862
REMARK  Name = 
REMARK  5 active torsions:
REMARK  status: ('A' for Active; 'I' for Inactive)
REMARK    1  A    between atoms: C_2  and  C_18
REMARK    2  A    between atoms: N_3  and  C_4
REMARK    3  A    between atoms: C_4  and  C_5
REMARK    4  A    between atoms: C_8  and  C_9
REMARK    5  A    between atoms: C_9  and  N_10
REMARK                            x       y       z     vdW  Elec       q    Type
REMARK                         _______ _______ _______ _____ _____    ______ ____
ROOT
ATOM      1  O   UNL     1      50.335   6.651  15.464  0.00  0.00    +0.000 OA
ATOM      2  C   UNL     1      49.181   6.716  15.880  0.00  0.00    +0.000 C 
ATOM      3  N   UNL     1      48.100   6.681  15.033  0.00  0.00    +0.000 N 
ATOM     28  H   UNL     1      47.184   6.947  15.381  0.00  0.00    +0.000 HD
ENDROOT
BRANCH   2  18
ATOM     18  C   UNL     1      48.896   6.795  17.317  0.00  0.00    +0.000 A 
ATOM     19  C   UNL     1      48.615   8.025  17.897  0.00  0.00    +0.000 A 
ATOM     20  S   UNL     1      48.301   7.938  19.569  0.00  0.00    +0.000 S 
ATOM     21  C   UNL     1      48.482   6.244  19.570  0.00  0.00    +0.000 A 
ATOM     22  N   UNL     1      48.297   5.523  20.707  0.00  0.00    +0.000 NA
ATOM     23  C   UNL     1      48.430   4.246  20.558  0.00  0.00    +0.000 A 
ATOM     24  N   UNL     1      48.744   3.632  19.371  0.00  0.00    +0.000 N 
ATOM     25  C   UNL     1      48.983   4.325  18.207  0.00  0.00    +0.000 A 
ATOM     26  O   UNL     1      49.319   3.743  17.178  0.00  0.00    +0.000 OA
ATOM     27  C   UNL     1      48.810   5.758  18.317  0.00  0.00    +0.000 A 
ATOM     29  H   UNL     1      48.852   2.629  19.325  0.00  0.00    +0.000 HD
ENDBRANCH   2  18
BRANCH   3   4
ATOM      4  C   UNL     1      48.298   6.726  13.607  0.00  0.00    +0.000 C 
BRANCH   4   5
ATOM      5  C   UNL     1      47.104   6.213  12.851  0.00  0.00    +0.000 A 
ATOM      6  C   UNL     1      46.525   6.986  11.836  0.00  0.00    +0.000 A 
ATOM      7  C   UNL     1      45.453   6.492  11.087  0.00  0.00    +0.000 A 
ATOM      8  C   UNL     1      44.928   5.220  11.347  0.00  0.00    +0.000 A 
ATOM     16  C   UNL     1      45.476   4.466  12.395  0.00  0.00    +0.000 A 
ATOM     17  C   UNL     1      46.551   4.960  13.143  0.00  0.00    +0.000 A 
BRANCH   8   9
ATOM      9  C   UNL     1      43.765   4.687  10.536  0.00  0.00    +0.000 C 
BRANCH   9  10
ATOM     10  N   UNL     1      44.150   3.832   9.387  0.00  0.00    +0.000 NA
ATOM     11  C   UNL     1      45.307   4.403   8.677  0.00  0.00    +0.000 C 
ATOM     12  C   UNL     1      45.856   3.481   7.582  0.00  0.00    +0.000 C 
ATOM     13  C   UNL     1      46.195   2.109   8.144  0.00  0.00    +0.000 C 
ATOM     14  C   UNL     1      44.963   1.523   8.815  0.00  0.00    +0.000 C 
ATOM     15  C   UNL     1      44.420   2.470   9.885  0.00  0.00    +0.000 C 
ENDBRANCH   9  10
ENDBRANCH   8   9
ENDBRANCH   4   5
ENDBRANCH   3   4
TORSDOF 5
ENDMDL
MODEL 3
REMARK VINA RESULT:    -6.958      2.626      3.674
REMARK INTER + INTRA:          -9.853
REMARK INTER:                  -9.392
REMARK INTRA:                  -0.461
REMARK UNBOUND:                -0.862
REMARK  Name = 
REMARK  5 active torsions:
REMARK  status: ('A' for Active; 'I' for Inactive)
REMARK    1  A    between atoms: C_2  and  C_18
REMARK    2  A    between atoms: N_3  and  C_4
REMARK    3  A    between atoms: C_4  and  C_5
REMARK    4  A    between atoms: C_8  and  C_9
REMARK    5  A    between atoms: C_9  and  N_10
REMARK                            x       y       z     vdW  Elec       q    Type
REMARK                         _______ _______ _______ _____ _____    ______ ____
ROOT
ATOM      1  O   UNL     1      50.326   6.483  15.786  0.00  0.00    +0.000 OA
ATOM      2  C   UNL     1      49.170   6.373  16.187  0.00  0.00    +0.000 C 
ATOM      3  N   UNL     1      48.097   6.418  15.330  0.00  0.00    +0.000 N 
ATOM     28  H   UNL     1      47.161   6.537  15.707  0.00  0.00    +0.000 HD
ENDROOT
BRANCH   2  18
ATOM     18  C   UNL     1      48.878   6.146  17.605  0.00  0.00    +0.000 A 
ATOM     19  C   UNL     1      49.201   4.928  18.189  0.00  0.00    +0.000 A 
ATOM     20  S   UNL     1      48.801   4.833  19.842  0.00  0.00    +0.000 S 
ATOM     21  C   UNL     1      48.226   6.436  19.851  0.00  0.00    +0.000 A 
ATOM     22  N   UNL     1      47.768   7.007  20.996  0.00  0.00    +0.000 NA
ATOM     23  C   UNL     1      47.396   8.238  20.868  0.00  0.00    +0.000 A 
ATOM     24  N   UNL     1      47.433   8.942  19.689  0.00  0.00    +0.000 N 
ATOM     25  C   UNL     1      47.848   8.391  18.499  0.00  0.00    +0.000 A 
ATOM     26  O   UNL     1      47.811   9.035  17.454  0.00  0.00    +0.000 OA
ATOM     27  C   UNL     1      48.308   7.022  18.600  0.00  0.00    +0.000 A 
ATOM     29  H   UNL     1      47.109   9.898  19.652  0.00  0.00    +0.000 HD
ENDBRANCH   2  18
BRANCH   3   4
ATOM      4  C   UNL     1      48.292   6.758  13.944  0.00  0.00    +0.000 C 
BRANCH   4   5
ATOM      5  C   UNL     1      47.158   6.284  13.078  0.00  0.00    +0.000 A 
ATOM      6  C   UNL     1      46.602   5.012  13.274  0.00  0.00    +0.000 A 
ATOM      7  C   UNL     1      45.509   4.587  12.514  0.00  0.00    +0.000 A 
ATOM      8  C   UNL     1      44.957   5.419  11.532  0.00  0.00    +0.000 A 
ATOM     16  C   UNL     1      45.544   6.672  11.302  0.00  0.00    +0.000 A 
ATOM     17  C   UNL     1      46.636   7.099  12.065  0.00  0.00    +0.000 A 
BRANCH   8   9
ATOM      9  C   UNL     1      43.774   4.955  10.708  0.00  0.00    +0.000 C 
BRANCH   9  10
ATOM     10  N   UNL     1      44.121   4.088   9.557  0.00  0.00    +0.000 NA
ATOM     11  C   UNL     1      45.346   4.567   8.893  0.00  0.00    +0.000 C 
ATOM     12  C   UNL     1      45.848   3.618   7.800  0.00  0.00    +0.000 C 
ATOM     13  C   UNL     1      46.050   2.213   8.347  0.00  0.00    +0.000 C 
ATOM     14  C   UNL     1      44.750   1.726   8.968  0.00  0.00    +0.000 C 
ATOM     15  C   UNL     1      44.256   2.700  10.038  0.00  0.00    +0.000 C 
ENDBRANCH   9  10
ENDBRANCH   8   9
ENDBRANCH   4   5
ENDBRANCH   3   4
TORSDOF 5
ENDMDL
MODEL 4
REMARK VINA RESULT:    -6.596      3.817      8.192
REMARK INTER + INTRA:          -9.386
REMARK INTER:                  -8.483
REMARK INTRA:                  -0.903
REMARK UNBOUND:                -0.862
REMARK  Name = 
REMARK  5 active torsions:
REMARK  status: ('A' for Active; 'I' for Inactive)
REMARK    1  A    between atoms: C_2  and  C_18
REMARK    2  A    between atoms: N_3  and  C_4
REMARK    3  A    between atoms: C_4  and  C_5
REMARK    4  A    between atoms: C_8  and  C_9
REMARK    5  A    between atoms: C_9  and  N_10
REMARK                            x       y       z     vdW  Elec       q    Type
REMARK                         _______ _______ _______ _____ _____    ______ ____
ROOT
ATOM      1  O   UNL     1      47.932   6.879  11.960  0.00  0.00    +0.000 OA
ATOM      2  C   UNL     1      46.964   6.897  12.716  0.00  0.00    +0.000 C 
ATOM      3  N   UNL     1      47.042   7.423  13.983  0.00  0.00    +0.000 N 
ATOM     28  H   UNL     1      46.299   7.234  14.649  0.00  0.00    +0.000 HD
ENDROOT
BRANCH   2  18
ATOM     18  C   UNL     1      45.657   6.390  12.287  0.00  0.00    +0.000 A 
ATOM     19  C   UNL     1      44.739   7.255  11.707  0.00  0.00    +0.000 A 
ATOM     20  S   UNL     1      43.277   6.504  11.261  0.00  0.00    +0.000 S 
ATOM     21  C   UNL     1      43.836   4.982  11.783  0.00  0.00    +0.000 A 
ATOM     22  N   UNL     1      43.068   3.870  11.643  0.00  0.00    +0.000 NA
ATOM     23  C   UNL     1      43.629   2.778  12.047  0.00  0.00    +0.000 A 
ATOM     24  N   UNL     1      44.887   2.707  12.591  0.00  0.00    +0.000 N 
ATOM     25  C   UNL     1      45.682   3.813  12.792  0.00  0.00    +0.000 A 
ATOM     26  O   UNL     1      46.779   3.716  13.335  0.00  0.00    +0.000 OA
ATOM     27  C   UNL     1      45.109   5.055  12.320  0.00  0.00    +0.000 A 
ATOM     29  H   UNL     1      45.261   1.824  12.906  0.00  0.00    +0.000 HD
ENDBRANCH   2  18
BRANCH   3   4
ATOM      4  C   UNL     1      48.315   7.829  14.520  0.00  0.00    +0.000 C 
BRANCH   4   5
ATOM      5  C   UNL     1      48.894   6.798  15.449  0.00  0.00    +0.000 A 
ATOM      6  C   UNL     1      50.226   6.899  15.875  0.00  0.00    +0.000 A 
ATOM      7  C   UNL     1      50.755   5.981  16.786  0.00  0.00    +0.000 A 
ATOM      8  C   UNL     1      49.968   4.932  17.279  0.00  0.00    +0.000 A 
ATOM     16  C   UNL     1      48.651   4.802  16.816  0.00  0.00    +0.000 A 
ATOM     17  C   UNL     1      48.120   5.724  15.906  0.00  0.00    +0.000 A 
BRANCH   8   9
ATOM      9  C   UNL     1      50.544   3.936  18.264  0.00  0.00    +0.000 C 
BRANCH   9  10
ATOM     10  N   UNL     1      51.746   3.213  17.784  0.00  0.00    +0.000 NA
ATOM     11  C   UNL     1      52.885   3.434  18.693  0.00  0.00    +0.000 C 
ATOM     12  C   UNL     1      54.108   2.580  18.343  0.00  0.00    +0.000 C 
ATOM     13  C   UNL     1      53.746   1.104  18.286  0.00  0.00    +0.000 C 
ATOM     14  C   UNL     1      52.611   0.904  17.294  0.00  0.00    +0.000 C 
ATOM     15  C   UNL     1      51.412   1.783  17.649  0.00  0.00    +0.000 C 
ENDBRANCH   9  10
ENDBRANCH   8   9
ENDBRANCH   4   5
ENDBRANCH   3   4
TORSDOF 5
ENDMDL
MODEL 5
REMARK VINA RESULT:    -6.508      3.038      4.045
REMARK INTER + INTRA:          -9.272
REMARK INTER:                  -8.423
REMARK INTRA:                  -0.849
REMARK UNBOUND:                -0.862
REMARK  Name = 
REMARK  5 active torsions:
REMARK  status: ('A' for Active; 'I' for Inactive)
REMARK    1  A    between atoms: C_2  and  C_18
REMARK    2  A    between atoms: N_3  and  C_4
REMARK    3  A    between atoms: C_4  and  C_5
REMARK    4  A    between atoms: C_8  and  C_9
REMARK    5  A    between atoms: C_9  and  N_10
REMARK                            x       y       z     vdW  Elec       q    Type
REMARK                         _______ _______ _______ _____ _____    ______ ____
ROOT
ATOM      1  O   UNL     1      48.483   8.557  16.221  0.00  0.00    +0.000 OA
ATOM      2  C   UNL     1      48.979   7.479  15.903  0.00  0.00    +0.000 C 
ATOM      3  N   UNL     1      49.417   7.230  14.625  0.00  0.00    +0.000 N 
ATOM     28  H   UNL     1      49.622   6.276  14.344  0.00  0.00    +0.000 HD
ENDROOT
BRANCH   2  18
ATOM     18  C   UNL     1      49.167   6.410  16.889  0.00  0.00    +0.000 A 
ATOM     19  C   UNL     1      50.037   6.601  17.955  0.00  0.00    +0.000 A 
ATOM     20  S   UNL     1      50.132   5.265  19.008  0.00  0.00    +0.000 S 
ATOM     21  C   UNL     1      48.976   4.401  18.104  0.00  0.00    +0.000 A 
ATOM     22  N   UNL     1      48.563   3.168  18.498  0.00  0.00    +0.000 NA
ATOM     23  C   UNL     1      47.657   2.641  17.742  0.00  0.00    +0.000 A 
ATOM     24  N   UNL     1      47.140   3.238  16.619  0.00  0.00    +0.000 N 
ATOM     25  C   UNL     1      47.560   4.465  16.160  0.00  0.00    +0.000 A 
ATOM     26  O   UNL     1      47.115   4.940  15.118  0.00  0.00    +0.000 OA
ATOM     27  C   UNL     1      48.549   5.110  16.996  0.00  0.00    +0.000 A 
ATOM     29  H   UNL     1      46.446   2.764  16.058  0.00  0.00    +0.000 HD
ENDBRANCH   2  18
BRANCH   3   4
ATOM      4  C   UNL     1      49.159   8.181  13.574  0.00  0.00    +0.000 C 
BRANCH   4   5
ATOM      5  C   UNL     1      47.823   7.956  12.921  0.00  0.00    +0.000 A 
ATOM      6  C   UNL     1      47.641   6.885  12.035  0.00  0.00    +0.000 A 
ATOM      7  C   UNL     1      46.388   6.633  11.470  0.00  0.00    +0.000 A 
ATOM      8  C   UNL     1      45.294   7.455  11.767  0.00  0.00    +0.000 A 
ATOM     16  C   UNL     1      45.488   8.555  12.614  0.00  0.00    +0.000 A 
ATOM     17  C   UNL     1      46.741   8.806  13.182  0.00  0.00    +0.000 A 
BRANCH   8   9
ATOM      9  C   UNL     1      43.937   7.181  11.151  0.00  0.00    +0.000 C 
BRANCH   9  10
ATOM     10  N   UNL     1      43.382   5.838  11.446  0.00  0.00    +0.000 NA
ATOM     11  C   UNL     1      43.947   4.828  10.534  0.00  0.00    +0.000 C 
ATOM     12  C   UNL     1      43.540   3.395  10.896  0.00  0.00    +0.000 C 
ATOM     13  C   UNL     1      43.897   3.075  12.339  0.00  0.00    +0.000 C 
ATOM     14  C   UNL     1      43.246   4.098  13.257  0.00  0.00    +0.000 C 
ATOM     15  C   UNL     1      43.648   5.519  12.862  0.00  0.00    +0.000 C 
ENDBRANCH   9  10
ENDBRANCH   8   9
ENDBRANCH   4   5
ENDBRANCH   3   4
TORSDOF 5
ENDMDL
MODEL 6
REMARK VINA RESULT:    -6.390      4.705      7.314
REMARK INTER + INTRA:          -9.119
REMARK INTER:                  -8.327
REMARK INTRA:                  -0.792
REMARK UNBOUND:                -0.862
REMARK  Name = 
REMARK  5 active torsions:
REMARK  status: ('A' for Active; 'I' for Inactive)
REMARK    1  A    between atoms: C_2  and  C_18
REMARK    2  A    between atoms: N_3  and  C_4
REMARK    3  A    between atoms: C_4  and  C_5
REMARK    4  A    between atoms: C_8  and  C_9
REMARK    5  A    between atoms: C_9  and  N_10
REMARK                            x       y       z     vdW  Elec       q    Type
REMARK                         _______ _______ _______ _____ _____    ______ ____
ROOT
ATOM      1  O   UNL     1      44.178   7.600  11.300  0.00  0.00    +0.000 OA
ATOM      2  C   UNL     1      44.902   6.710  11.740  0.00  0.00    +0.000 C 
ATOM      3  N   UNL     1      46.047   6.989  12.446  0.00  0.00    +0.000 N 
ATOM     28  H   UNL     1      46.726   6.252  12.609  0.00  0.00    +0.000 HD
ENDROOT
BRANCH   2  18
ATOM     18  C   UNL     1      44.558   5.296  11.566  0.00  0.00    +0.000 A 
ATOM     19  C   UNL     1      43.834   4.637  12.551  0.00  0.00    +0.000 A 
ATOM     20  S   UNL     1      43.513   3.003  12.187  0.00  0.00    +0.000 S 
ATOM     21  C   UNL     1      44.289   3.131  10.677  0.00  0.00    +0.000 A 
ATOM     22  N   UNL     1      44.335   2.073   9.825  0.00  0.00    +0.000 NA
ATOM     23  C   UNL     1      44.922   2.318   8.700  0.00  0.00    +0.000 A 
ATOM     24  N   UNL     1      45.477   3.527   8.361  0.00  0.00    +0.000 N 
ATOM     25  C   UNL     1      45.493   4.610   9.209  0.00  0.00    +0.000 A 
ATOM     26  O   UNL     1      46.051   5.657   8.892  0.00  0.00    +0.000 OA
ATOM     27  C   UNL     1      44.814   4.394  10.469  0.00  0.00    +0.000 A 
ATOM     29  H   UNL     1      45.940   3.648   7.471  0.00  0.00    +0.000 HD
ENDBRANCH   2  18
BRANCH   3   4
ATOM      4  C   UNL     1      46.517   8.347  12.555  0.00  0.00    +0.000 C 
BRANCH   4   5
ATOM      5  C   UNL     1      47.956   8.485  12.142  0.00  0.00    +0.000 A 
ATOM      6  C   UNL     1      48.795   7.363  12.119  0.00  0.00    +0.000 A 
ATOM      7  C   UNL     1      50.117   7.470  11.679  0.00  0.00    +0.000 A 
ATOM      8  C   UNL     1      50.634   8.705  11.267  0.00  0.00    +0.000 A 
ATOM     16  C   UNL     1      49.808   9.837  11.337  0.00  0.00    +0.000 A 
ATOM     17  C   UNL     1      48.484   9.729  11.775  0.00  0.00    +0.000 A 
BRANCH   8   9
ATOM      9  C   UNL     1      52.067   8.820  10.793  0.00  0.00    +0.000 C 
BRANCH   9  10
ATOM     10  N   UNL     1      52.439   7.881   9.707  0.00  0.00    +0.000 NA
ATOM     11  C   UNL     1      52.920   8.615   8.524  0.00  0.00    +0.000 C 
ATOM     12  C   UNL     1      53.475   7.697   7.431  0.00  0.00    +0.000 C 
ATOM     13  C   UNL     1      54.567   6.792   7.981  0.00  0.00    +0.000 C 
ATOM     14  C   UNL     1      54.018   6.003   9.160  0.00  0.00    +0.000 C 
ATOM     15  C   UNL     1      53.448   6.939  10.226  0.00  0.00    +0.000 C 
ENDBRANCH   9  10
ENDBRANCH   8   9
ENDBRANCH   4   5
ENDBRANCH   3   4
TORSDOF 5
ENDMDL
MODEL 7
REMARK VINA RESULT:    -6.370      4.072      9.023
REMARK INTER + INTRA:          -9.094
REMARK INTER:                  -8.644
REMARK INTRA:                  -0.450
REMARK UNBOUND:                -0.862
REMARK  Name = 
REMARK  5 active torsions:
REMARK  status: ('A' for Active; 'I' for Inactive)
REMARK    1  A    between atoms: C_2  and  C_18
REMARK    2  A    between atoms: N_3  and  C_4
REMARK    3  A    between atoms: C_4  and  C_5
REMARK    4  A    between atoms: C_8  and  C_9
REMARK    5  A    between atoms: C_9  and  N_10
REMARK                            x       y       z     vdW  Elec       q    Type
REMARK                         _______ _______ _______ _____ _____    ______ ____
ROOT
ATOM      1  O   UNL     1      47.321   3.108  14.091  0.00  0.00    +0.000 OA
ATOM      2  C   UNL     1      46.926   4.166  14.577  0.00  0.00    +0.000 C 
ATOM      3  N   UNL     1      46.915   4.382  15.933  0.00  0.00    +0.000 N 
ATOM     28  H   UNL     1      46.393   5.168  16.310  0.00  0.00    +0.000 HD
ENDROOT
BRANCH   2  18
ATOM     18  C   UNL     1      46.482   5.273  13.724  0.00  0.00    +0.000 A 
ATOM     19  C   UNL     1      47.319   6.361  13.516  0.00  0.00    +0.000 A 
ATOM     20  S   UNL     1      46.653   7.552  12.497  0.00  0.00    +0.000 S 
ATOM     21  C   UNL     1      45.239   6.634  12.257  0.00  0.00    +0.000 A 
ATOM     22  N   UNL     1      44.252   7.075  11.433  0.00  0.00    +0.000 NA
ATOM     23  C   UNL     1      43.253   6.264  11.314  0.00  0.00    +0.000 A 
ATOM     24  N   UNL     1      43.153   5.055  11.959  0.00  0.00    +0.000 N 
ATOM     25  C   UNL     1      44.107   4.590  12.834  0.00  0.00    +0.000 A 
ATOM     26  O   UNL     1      43.953   3.531  13.437  0.00  0.00    +0.000 OA
ATOM     27  C   UNL     1      45.263   5.450  12.972  0.00  0.00    +0.000 A 
ATOM     29  H   UNL     1      42.335   4.475  11.838  0.00  0.00    +0.000 HD
ENDBRANCH   2  18
BRANCH   3   4
ATOM      4  C   UNL     1      47.219   3.304  16.840  0.00  0.00    +0.000 C 
BRANCH   4   5
ATOM      5  C   UNL     1      48.633   3.372  17.347  0.00  0.00    +0.000 A 
ATOM      6  C   UNL     1      49.571   2.407  16.955  0.00  0.00    +0.000 A 
ATOM      7  C   UNL     1      50.902   2.495  17.373  0.00  0.00    +0.000 A 
ATOM      8  C   UNL     1      51.320   3.542  18.204  0.00  0.00    +0.000 A 
ATOM     16  C   UNL     1      50.371   4.479  18.636  0.00  0.00    +0.000 A 
ATOM     17  C   UNL     1      49.039   4.393  18.215  0.00  0.00    +0.000 A 
BRANCH   8   9
ATOM      9  C   UNL     1      52.762   3.634  18.658  0.00  0.00    +0.000 C 
BRANCH   9  10
ATOM     10  N   UNL     1      53.487   4.837  18.181  0.00  0.00    +0.000 NA
ATOM     11  C   UNL     1      52.822   5.411  16.998  0.00  0.00    +0.000 C 
ATOM     12  C   UNL     1      53.426   6.750  16.559  0.00  0.00    +0.000 C 
ATOM     13  C   UNL     1      53.434   7.747  17.707  0.00  0.00    +0.000 C 
ATOM     14  C   UNL     1      54.181   7.148  18.888  0.00  0.00    +0.000 C 
ATOM     15  C   UNL     1      53.576   5.803  19.292  0.00  0.00    +0.000 C 
ENDBRANCH   9  10
ENDBRANCH   8   9
ENDBRANCH   4   5
ENDBRANCH   3   4
TORSDOF 5
ENDMDL
MODEL 8
REMARK VINA RESULT:    -6.332      3.320      8.868
REMARK INTER + INTRA:          -9.045
REMARK INTER:                  -8.195
REMARK INTRA:                  -0.850
REMARK UNBOUND:                -0.862
REMARK  Name = 
REMARK  5 active torsions:
REMARK  status: ('A' for Active; 'I' for Inactive)
REMARK    1  A    between atoms: C_2  and  C_18
REMARK    2  A    between atoms: N_3  and  C_4
REMARK    3  A    between atoms: C_4  and  C_5
REMARK    4  A    between atoms: C_8  and  C_9
REMARK    5  A    between atoms: C_9  and  N_10
REMARK                            x       y       z     vdW  Elec       q    Type
REMARK                         _______ _______ _______ _____ _____    ______ ____
ROOT
ATOM      1  O   UNL     1      45.790   7.853  11.686  0.00  0.00    +0.000 OA
ATOM      2  C   UNL     1      46.361   6.784  11.485  0.00  0.00    +0.000 C 
ATOM      3  N   UNL     1      47.652   6.561  11.897  0.00  0.00    +0.000 N 
ATOM     28  H   UNL     1      48.162   5.761  11.535  0.00  0.00    +0.000 HD
ENDROOT
BRANCH   2  18
ATOM     18  C   UNL     1      45.674   5.671  10.823  0.00  0.00    +0.000 A 
ATOM     19  C   UNL     1      45.819   5.486   9.455  0.00  0.00    +0.000 A 
ATOM     20  S   UNL     1      44.961   4.145   8.850  0.00  0.00    +0.000 S 
ATOM     21  C   UNL     1      44.402   3.732  10.405  0.00  0.00    +0.000 A 
ATOM     22  N   UNL     1      43.631   2.630  10.600  0.00  0.00    +0.000 NA
ATOM     23  C   UNL     1      43.308   2.414  11.832  0.00  0.00    +0.000 A 
ATOM     24  N   UNL     1      43.680   3.215  12.884  0.00  0.00    +0.000 N 
ATOM     25  C   UNL     1      44.422   4.363  12.727  0.00  0.00    +0.000 A 
ATOM     26  O   UNL     1      44.686   5.085  13.686  0.00  0.00    +0.000 OA
ATOM     27  C   UNL     1      44.839   4.626  11.366  0.00  0.00    +0.000 A 
ATOM     29  H   UNL     1      43.378   3.002  13.824  0.00  0.00    +0.000 HD
ENDBRANCH   2  18
BRANCH   3   4
ATOM      4  C   UNL     1      48.433   7.642  12.443  0.00  0.00    +0.000 C 
BRANCH   4   5
ATOM      5  C   UNL     1      48.945   7.332  13.823  0.00  0.00    +0.000 A 
ATOM      6  C   UNL     1      48.187   6.540  14.696  0.00  0.00    +0.000 A 
ATOM      7  C   UNL     1      48.681   6.197  15.957  0.00  0.00    +0.000 A 
ATOM      8  C   UNL     1      49.937   6.651  16.379  0.00  0.00    +0.000 A 
ATOM     16  C   UNL     1      50.673   7.485  15.525  0.00  0.00    +0.000 A 
ATOM     17  C   UNL     1      50.180   7.826  14.261  0.00  0.00    +0.000 A 
BRANCH   8   9
ATOM      9  C   UNL     1      50.470   6.280  17.747  0.00  0.00    +0.000 C 
BRANCH   9  10
ATOM     10  N   UNL     1      49.427   5.980  18.758  0.00  0.00    +0.000 NA
ATOM     11  C   UNL     1      49.873   4.907  19.664  0.00  0.00    +0.000 C 
ATOM     12  C   UNL     1      48.910   4.666  20.832  0.00  0.00    +0.000 C 
ATOM     13  C   UNL     1      48.658   5.951  21.605  0.00  0.00    +0.000 C 
ATOM     14  C   UNL     1      48.140   7.018  20.653  0.00  0.00    +0.000 C 
ATOM     15  C   UNL     1      49.105   7.223  19.485  0.00  0.00    +0.000 C 
ENDBRANCH   9  10
ENDBRANCH   8   9
ENDBRANCH   4   5
ENDBRANCH   3   4
TORSDOF 5
ENDMDL
MODEL 9
REMARK VINA RESULT:    -6.291      4.206      9.975
REMARK INTER + INTRA:          -8.992
REMARK INTER:                  -8.714
REMARK INTRA:                  -0.278
REMARK UNBOUND:                -0.862
REMARK  Name = 
REMARK  5 active torsions:
REMARK  status: ('A' for Active; 'I' for Inactive)
REMARK    1  A    between atoms: C_2  and  C_18
REMARK    2  A    between atoms: N_3  and  C_4
REMARK    3  A    between atoms: C_4  and  C_5
REMARK    4  A    between atoms: C_8  and  C_9
REMARK    5  A    between atoms: C_9  and  N_10
REMARK                            x       y       z     vdW  Elec       q    Type
REMARK                         _______ _______ _______ _____ _____    ______ ____
ROOT
ATOM      1  O   UNL     1      47.030   3.161  13.767  0.00  0.00    +0.000 OA
ATOM      2  C   UNL     1      46.763   4.282  14.195  0.00  0.00    +0.000 C 
ATOM      3  N   UNL     1      47.065   4.660  15.480  0.00  0.00    +0.000 N 
ATOM     28  H   UNL     1      46.647   5.502  15.865  0.00  0.00    +0.000 HD
ENDROOT
BRANCH   2  18
ATOM     18  C   UNL     1      46.138   5.292  13.335  0.00  0.00    +0.000 A 
ATOM     19  C   UNL     1      46.875   6.393  12.919  0.00  0.00    +0.000 A 
ATOM     20  S   UNL     1      46.002   7.464  11.922  0.00  0.00    +0.000 S 
ATOM     21  C   UNL     1      44.621   6.469  11.970  0.00  0.00    +0.000 A 
ATOM     22  N   UNL     1      43.501   6.795  11.272  0.00  0.00    +0.000 NA
ATOM     23  C   UNL     1      42.542   5.934  11.368  0.00  0.00    +0.000 A 
ATOM     24  N   UNL     1      42.604   4.782  12.112  0.00  0.00    +0.000 N 
ATOM     25  C   UNL     1      43.700   4.435  12.868  0.00  0.00    +0.000 A 
ATOM     26  O   UNL     1      43.695   3.425  13.567  0.00  0.00    +0.000 OA
ATOM     27  C   UNL     1      44.815   5.352  12.763  0.00  0.00    +0.000 A 
ATOM     29  H   UNL     1      41.810   4.159  12.161  0.00  0.00    +0.000 HD
ENDBRANCH   2  18
BRANCH   3   4
ATOM      4  C   UNL     1      47.566   3.690  16.420  0.00  0.00    +0.000 C 
BRANCH   4   5
ATOM      5  C   UNL     1      47.807   4.287  17.779  0.00  0.00    +0.000 A 
ATOM      6  C   UNL     1      47.012   5.346  18.236  0.00  0.00    +0.000 A 
ATOM      7  C   UNL     1      47.188   5.868  19.521  0.00  0.00    +0.000 A 
ATOM      8  C   UNL     1      48.174   5.350  20.371  0.00  0.00    +0.000 A 
ATOM     16  C   UNL     1      49.002   4.323  19.895  0.00  0.00    +0.000 A 
ATOM     17  C   UNL     1      48.823   3.799  18.610  0.00  0.00    +0.000 A 
BRANCH   8   9
ATOM      9  C   UNL     1      48.365   5.918  21.762  0.00  0.00    +0.000 C 
BRANCH   9  10
ATOM     10  N   UNL     1      48.705   7.361  21.802  0.00  0.00    +0.000 NA
ATOM     11  C   UNL     1      49.511   7.740  20.628  0.00  0.00    +0.000 C 
ATOM     12  C   UNL     1      49.752   9.250  20.526  0.00  0.00    +0.000 C 
ATOM     13  C   UNL     1      48.438  10.015  20.544  0.00  0.00    +0.000 C 
ATOM     14  C   UNL     1      47.660   9.647  21.798  0.00  0.00    +0.000 C 
ATOM     15  C   UNL     1      47.453   8.136  21.890  0.00  0.00    +0.000 C 
ENDBRANCH   9  10
ENDBRANCH   8   9
ENDBRANCH   4   5
ENDBRANCH   3   4
TORSDOF 5
ENDMDL
