MODEL 1
REMARK VINA RESULT:    -7.559      0.000      0.000
REMARK INTER + INTRA:          -9.280
REMARK INTER:                  -8.885
REMARK INTRA:                  -0.396
REMARK UNBOUND:                -0.396
REMARK  Name = 
REMARK  3 active torsions:
REMARK  status: ('A' for Active; 'I' for Inactive)
REMARK    1  A    between atoms: C_2  and  C_4
REMARK    2  A    between atoms: N_8  and  C_9
REMARK    3  A    between atoms: C_9  and  C_10
REMARK                            x       y       z     vdW  Elec       q    Type
REMARK                         _______ _______ _______ _____ _____    ______ ____
ROOT
ATOM      4  C   UNL     1      46.557   4.930  13.450  0.00  0.00    +0.000 A 
ATOM      5  C   UNL     1      46.936   5.996  12.641  0.00  0.00    +0.000 A 
ATOM      6  C   UNL     1      46.367   6.120  11.374  0.00  0.00    +0.000 A 
ATOM      7  C   UNL     1      45.461   5.160  10.923  0.00  0.00    +0.000 A 
ATOM      8  N   UNL     1      44.972   5.298   9.623  0.00  0.00    +0.000 N 
ATOM     16  N   UNL     1      45.089   4.120  11.694  0.00  0.00    +0.000 NA
ATOM     17  C   UNL     1      45.640   4.024  12.934  0.00  0.00    +0.000 A 
ATOM     20  H   UNL     1      44.381   6.121   9.558  0.00  0.00    +0.000 HD
ENDROOT
BRANCH   4   2
ATOM      1  N   UNL     1      47.692   5.760  15.435  0.00  0.00    +0.000 N 
ATOM      2  C   UNL     1      47.104   4.699  14.802  0.00  0.00    +0.000 C 
ATOM      3  O   UNL     1      47.015   3.611  15.352  0.00  0.00    +0.000 OA
ATOM     18  H   UNL     1      47.984   5.608  16.389  0.00  0.00    +0.000 HD
ATOM     19  H   UNL     1      47.596   6.714  15.124  0.00  0.00    +0.000 HD
ENDBRANCH   4   2
BRANCH   8   9
ATOM      9  C   UNL     1      44.330   4.116   9.062  0.00  0.00    +0.000 C 
BRANCH   9  10
ATOM     10  C   UNL     1      45.349   3.258   8.333  0.00  0.00    +0.000 A 
ATOM     11  C   UNL     1      46.267   3.810   7.422  0.00  0.00    +0.000 A 
ATOM     12  C   UNL     1      47.241   3.016   6.814  0.00  0.00    +0.000 A 
ATOM     13  C   UNL     1      47.325   1.661   7.122  0.00  0.00    +0.000 A 
ATOM     14  C   UNL     1      46.435   1.101   8.037  0.00  0.00    +0.000 A 
ATOM     15  C   UNL     1      45.454   1.893   8.638  0.00  0.00    +0.000 A 
ENDBRANCH   9  10
ENDBRANCH   8   9
TORSDOF 3
ENDMDL
MODEL 2
REMARK VINA RESULT:    -7.246      3.206      6.325
REMARK INTER + INTRA:          -8.913
REMARK INTER:                  -8.544
REMARK INTRA:                  -0.369
REMARK UNBOUND:                -0.396
REMARK  Name = 
REMARK  3 active torsions:
REMARK  status: ('A' for Active; 'I' for Inactive)
REMARK    1  A    between atoms: C_2  and  C_4
REMARK    2  A    between atoms: N_8  and  C_9
REMARK    3  A    between atoms: C_9  and  C_10
REMARK                            x       y       z     vdW  Elec       q    Type
REMARK                         _______ _______ _______ _____ _____    ______ ____
ROOT
ATOM      4  C   UNL     1      46.744   2.292   7.188  0.00  0.00    +0.000 A 
ATOM      5  C   UNL     1      46.211   1.346   8.057  0.00  0.00    +0.000 A 
ATOM      6  C   UNL     1      45.237   1.741   8.974  0.00  0.00    +0.000 A 
ATOM      7  C   UNL     1      44.841   3.077   9.033  0.00  0.00    +0.000 A 
ATOM      8  N   UNL     1      43.912   3.429  10.013  0.00  0.00    +0.000 N 
ATOM     16  N   UNL     1      45.353   4.004   8.201  0.00  0.00    +0.000 NA
ATOM     17  C   UNL     1      46.288   3.599   7.301  0.00  0.00    +0.000 A 
ATOM     20  H   UNL     1      43.012   3.003   9.810  0.00  0.00    +0.000 HD
ENDROOT
BRANCH   4   2
ATOM      1  N   UNL     1      48.933   2.728   6.221  0.00  0.00    +0.000 N 
ATOM      2  C   UNL     1      47.785   1.984   6.188  0.00  0.00    +0.000 C 
ATOM      3  O   UNL     1      47.646   1.080   5.376  0.00  0.00    +0.000 OA
ATOM     18  H   UNL     1      49.668   2.448   5.587  0.00  0.00    +0.000 HD
ATOM     19  H   UNL     1      49.187   3.323   6.994  0.00  0.00    +0.000 HD
ENDBRANCH   4   2
BRANCH   8   9
ATOM      9  C   UNL     1      43.793   4.855  10.287  0.00  0.00    +0.000 C 
BRANCH   9  10
ATOM     10  C   UNL     1      44.799   5.275  11.344  0.00  0.00    +0.000 A 
ATOM     11  C   UNL     1      44.830   4.680  12.617  0.00  0.00    +0.000 A 
ATOM     12  C   UNL     1      45.807   5.031  13.551  0.00  0.00    +0.000 A 
ATOM     13  C   UNL     1      46.780   5.969  13.219  0.00  0.00    +0.000 A 
ATOM     14  C   UNL     1      46.776   6.556  11.955  0.00  0.00    +0.000 A 
ATOM     15  C   UNL     1      45.793   6.212  11.024  0.00  0.00    +0.000 A 
ENDBRANCH   9  10
ENDBRANCH   8   9
TORSDOF 3
ENDMDL
MODEL 3
REMARK VINA RESULT:    -7.053      2.010      2.714
REMARK INTER + INTRA:          -8.685
REMARK INTER:                  -8.486
REMARK INTRA:                  -0.199
REMARK UNBOUND:                -0.396
REMARK  Name = 
REMARK  3 active torsions:
REMARK  status: ('A' for Active; 'I' for Inactive)
REMARK    1  A    between atoms: C_2  and  C_4
REMARK    2  A    between atoms: N_8  and  C_9
REMARK    3  A    between atoms: C_9  and  C_10
REMARK                            x       y       z     vdW  Elec       q    Type
REMARK                         _______ _______ _______ _____ _____    ______ ____
ROOT
ATOM      4  C   UNL     1      45.630   6.537  12.407  0.00  0.00    +0.000 A 
ATOM      5  C   UNL     1      45.618   5.413  13.226  0.00  0.00    +0.000 A 
ATOM      6  C   UNL     1      45.423   4.158  12.650  0.00  0.00    +0.000 A 
ATOM      7  C   UNL     1      45.206   4.052  11.276  0.00  0.00    +0.000 A 
ATOM      8  N   UNL     1      44.952   2.779  10.762  0.00  0.00    +0.000 N 
ATOM     16  N   UNL     1      45.210   5.132  10.473  0.00  0.00    +0.000 NA
ATOM     17  C   UNL     1      45.420   6.346  11.048  0.00  0.00    +0.000 A 
ATOM     20  H   UNL     1      45.782   2.198  10.840  0.00  0.00    +0.000 HD
ENDROOT
BRANCH   4   2
ATOM      1  N   UNL     1      44.854   8.834  12.610  0.00  0.00    +0.000 N 
ATOM      2  C   UNL     1      45.818   7.911  12.914  0.00  0.00    +0.000 C 
ATOM      3  O   UNL     1      46.781   8.214  13.605  0.00  0.00    +0.000 OA
ATOM     18  H   UNL     1      44.954   9.744  13.035  0.00  0.00    +0.000 HD
ATOM     19  H   UNL     1      43.949   8.589  12.241  0.00  0.00    +0.000 HD
ENDBRANCH   4   2
BRANCH   8   9
ATOM      9  C   UNL     1      44.381   2.742   9.422  0.00  0.00    +0.000 C 
BRANCH   9  10
ATOM     10  C   UNL     1      45.473   2.524   8.389  0.00  0.00    +0.000 A 
ATOM     11  C   UNL     1      46.167   1.305   8.289  0.00  0.00    +0.000 A 
ATOM     12  C   UNL     1      47.118   1.100   7.288  0.00  0.00    +0.000 A 
ATOM     13  C   UNL     1      47.376   2.104   6.358  0.00  0.00    +0.000 A 
ATOM     14  C   UNL     1      46.684   3.311   6.430  0.00  0.00    +0.000 A 
ATOM     15  C   UNL     1      45.739   3.520   7.439  0.00  0.00    +0.000 A 
ENDBRANCH   9  10
ENDBRANCH   8   9
TORSDOF 3
ENDMDL
MODEL 4
REMARK VINA RESULT:    -6.274      2.971      7.084
REMARK INTER + INTRA:          -7.770
REMARK INTER:                  -7.494
REMARK INTRA:                  -0.276
REMARK UNBOUND:                -0.396
REMARK  Name = 
REMARK  3 active torsions:
REMARK  status: ('A' for Active; 'I' for Inactive)
REMARK    1  A    between atoms: C_2  and  C_4
REMARK    2  A    between atoms: N_8  and  C_9
REMARK    3  A    between atoms: C_9  and  C_10
REMARK                            x       y       z     vdW  Elec       q    Type
REMARK                         _______ _______ _______ _____ _____    ______ ____
ROOT
ATOM      4  C   UNL     1      45.157   4.316  11.582  0.00  0.00    +0.000 A 
ATOM      5  C   UNL     1      45.544   5.618  11.883  0.00  0.00    +0.000 A 
ATOM      6  C   UNL     1      46.248   5.858  13.062  0.00  0.00    +0.000 A 
ATOM      7  C   UNL     1      46.518   4.805  13.936  0.00  0.00    +0.000 A 
ATOM      8  N   UNL     1      47.168   5.114  15.133  0.00  0.00    +0.000 N 
ATOM     16  N   UNL     1      46.145   3.542  13.660  0.00  0.00    +0.000 NA
ATOM     17  C   UNL     1      45.476   3.321  12.496  0.00  0.00    +0.000 A 
ATOM     20  H   UNL     1      48.119   5.418  14.945  0.00  0.00    +0.000 HD
ENDROOT
BRANCH   4   2
ATOM      1  N   UNL     1      44.635   4.683   9.234  0.00  0.00    +0.000 N 
ATOM      2  C   UNL     1      44.400   3.952  10.367  0.00  0.00    +0.000 C 
ATOM      3  O   UNL     1      43.613   3.016  10.358  0.00  0.00    +0.000 OA
ATOM     18  H   UNL     1      44.174   4.368   8.393  0.00  0.00    +0.000 HD
ATOM     19  H   UNL     1      45.419   5.307   9.129  0.00  0.00    +0.000 HD
ENDBRANCH   4   2
BRANCH   8   9
ATOM      9  C   UNL     1      47.114   4.086  16.164  0.00  0.00    +0.000 C 
BRANCH   9  10
ATOM     10  C   UNL     1      48.513   3.746  16.645  0.00  0.00    +0.000 A 
ATOM     11  C   UNL     1      49.364   4.718  17.200  0.00  0.00    +0.000 A 
ATOM     12  C   UNL     1      50.620   4.372  17.701  0.00  0.00    +0.000 A 
ATOM     13  C   UNL     1      51.038   3.045  17.672  0.00  0.00    +0.000 A 
ATOM     14  C   UNL     1      50.201   2.064  17.143  0.00  0.00    +0.000 A 
ATOM     15  C   UNL     1      48.947   2.412  16.633  0.00  0.00    +0.000 A 
ENDBRANCH   9  10
ENDBRANCH   8   9
TORSDOF 3
ENDMDL
MODEL 5
REMARK VINA RESULT:    -6.232      3.443      5.078
REMARK INTER + INTRA:          -7.720
REMARK INTER:                  -7.397
REMARK INTRA:                  -0.323
REMARK UNBOUND:                -0.396
REMARK  Name = 
REMARK  3 active torsions:
REMARK  status: ('A' for Active; 'I' for Inactive)
REMARK    1  A    between atoms: C_2  and  C_4
REMARK    2  A    between atoms: N_8  and  C_9
REMARK    3  A    between atoms: C_9  and  C_10
REMARK                            x       y       z     vdW  Elec       q    Type
REMARK                         _______ _______ _______ _____ _____    ______ ____
ROOT
ATOM      4  C   UNL     1      44.944   3.223   9.524  0.00  0.00    +0.000 A 
ATOM      5  C   UNL     1      45.420   4.313   8.803  0.00  0.00    +0.000 A 
ATOM      6  C   UNL     1      46.113   4.088   7.614  0.00  0.00    +0.000 A 
ATOM      7  C   UNL     1      46.351   2.782   7.186  0.00  0.00    +0.000 A 
ATOM      8  N   UNL     1      47.106   2.614   6.024  0.00  0.00    +0.000 N 
ATOM     16  N   UNL     1      45.900   1.718   7.877  0.00  0.00    +0.000 NA
ATOM     17  C   UNL     1      45.211   1.955   9.024  0.00  0.00    +0.000 A 
ATOM     20  H   UNL     1      46.589   2.957   5.219  0.00  0.00    +0.000 HD
ENDROOT
BRANCH   4   2
ATOM      1  N   UNL     1      44.794   2.825  11.919  0.00  0.00    +0.000 N 
ATOM      2  C   UNL     1      44.209   3.348  10.798  0.00  0.00    +0.000 C 
ATOM      3  O   UNL     1      43.130   3.920  10.862  0.00  0.00    +0.000 OA
ATOM     18  H   UNL     1      44.319   2.994  12.794  0.00  0.00    +0.000 HD
ATOM     19  H   UNL     1      45.762   2.547  11.961  0.00  0.00    +0.000 HD
ENDBRANCH   4   2
BRANCH   8   9
ATOM      9  C   UNL     1      47.637   1.276   5.805  0.00  0.00    +0.000 C 
BRANCH   9  10
ATOM     10  C   UNL     1      47.022   0.660   4.561  0.00  0.00    +0.000 A 
ATOM     11  C   UNL     1      47.094  -0.720   4.303  0.00  0.00    +0.000 A 
ATOM     12  C   UNL     1      46.462  -1.277   3.189  0.00  0.00    +0.000 A 
ATOM     13  C   UNL     1      45.731  -0.465   2.327  0.00  0.00    +0.000 A 
ATOM     14  C   UNL     1      45.632   0.903   2.577  0.00  0.00    +0.000 A 
ATOM     15  C   UNL     1      46.273   1.462   3.686  0.00  0.00    +0.000 A 
ENDBRANCH   9  10
ENDBRANCH   8   9
TORSDOF 3
ENDMDL
MODEL 6
REMARK VINA RESULT:    -5.815      3.081      7.775
REMARK INTER + INTRA:          -7.230
REMARK INTER:                  -7.015
REMARK INTRA:                  -0.215
REMARK UNBOUND:                -0.396
REMARK  Name = 
REMARK  3 active torsions:
REMARK  status: ('A' for Active; 'I' for Inactive)
REMARK    1  A    between atoms: C_2  and  C_4
REMARK    2  A    between atoms: N_8  and  C_9
REMARK    3  A    between atoms: C_9  and  C_10
REMARK                            x       y       z     vdW  Elec       q    Type
REMARK                         _______ _______ _______ _____ _____    ______ ____
ROOT
ATOM      4  C   UNL     1      45.052   4.270  11.616  0.00  0.00    +0.000 A 
ATOM      5  C   UNL     1      45.401   5.578  11.933  0.00  0.00    +0.000 A 
ATOM      6  C   UNL     1      46.172   5.817  13.070  0.00  0.00    +0.000 A 
ATOM      7  C   UNL     1      46.549   4.752  13.889  0.00  0.00    +0.000 A 
ATOM      8  N   UNL     1      47.265   5.055  15.048  0.00  0.00    +0.000 N 
ATOM     16  N   UNL     1      46.213   3.482  13.597  0.00  0.00    +0.000 NA
ATOM     17  C   UNL     1      45.476   3.265  12.475  0.00  0.00    +0.000 A 
ATOM     20  H   UNL     1      48.187   5.408  14.807  0.00  0.00    +0.000 HD
ENDROOT
BRANCH   4   2
ATOM      1  N   UNL     1      43.934   4.899   9.550  0.00  0.00    +0.000 N 
ATOM      2  C   UNL     1      44.230   3.907  10.444  0.00  0.00    +0.000 C 
ATOM      3  O   UNL     1      43.850   2.760  10.258  0.00  0.00    +0.000 OA
ATOM     18  H   UNL     1      43.445   4.617   8.712  0.00  0.00    +0.000 HD
ATOM     19  H   UNL     1      44.399   5.793   9.538  0.00  0.00    +0.000 HD
ENDBRANCH   4   2
BRANCH   8   9
ATOM      9  C   UNL     1      47.327   3.996  16.047  0.00  0.00    +0.000 C 
BRANCH   9  10
ATOM     10  C   UNL     1      47.999   4.501  17.311  0.00  0.00    +0.000 A 
ATOM     11  C   UNL     1      47.284   5.184  18.310  0.00  0.00    +0.000 A 
ATOM     12  C   UNL     1      47.905   5.579  19.496  0.00  0.00    +0.000 A 
ATOM     13  C   UNL     1      49.247   5.278  19.711  0.00  0.00    +0.000 A 
ATOM     14  C   UNL     1      49.967   4.584  18.741  0.00  0.00    +0.000 A 
ATOM     15  C   UNL     1      49.348   4.198  17.549  0.00  0.00    +0.000 A 
ENDBRANCH   9  10
ENDBRANCH   8   9
TORSDOF 3
ENDMDL
MODEL 7
REMARK VINA RESULT:    -5.676      3.248      6.080
REMARK INTER + INTRA:          -7.067
REMARK INTER:                  -6.758
REMARK INTRA:                  -0.309
REMARK UNBOUND:                -0.396
REMARK  Name = 
REMARK  3 active torsions:
REMARK  status: ('A' for Active; 'I' for Inactive)
REMARK    1  A    between atoms: C_2  and  C_4
REMARK    2  A    between atoms: N_8  and  C_9
REMARK    3  A    between atoms: C_9  and  C_10
REMARK                            x       y       z     vdW  Elec       q    Type
REMARK                         _______ _______ _______ _____ _____    ______ ____
ROOT
ATOM      4  C   UNL     1      44.634   4.042  11.731  0.00  0.00    +0.000 A 
ATOM      5  C   UNL     1      45.385   3.915  12.894  0.00  0.00    +0.000 A 
ATOM      6  C   UNL     1      45.969   5.053  13.450  0.00  0.00    +0.000 A 
ATOM      7  C   UNL     1      45.825   6.287  12.816  0.00  0.00    +0.000 A 
ATOM      8  N   UNL     1      46.485   7.380  13.380  0.00  0.00    +0.000 N 
ATOM     16  N   UNL     1      45.105   6.423  11.686  0.00  0.00    +0.000 NA
ATOM     17  C   UNL     1      44.527   5.307  11.167  0.00  0.00    +0.000 A 
ATOM     20  H   UNL     1      46.072   7.611  14.279  0.00  0.00    +0.000 HD
ENDROOT
BRANCH   4   2
ATOM      1  N   UNL     1      44.632   2.347   9.986  0.00  0.00    +0.000 N 
ATOM      2  C   UNL     1      43.982   2.903  11.054  0.00  0.00    +0.000 C 
ATOM      3  O   UNL     1      42.915   2.449  11.445  0.00  0.00    +0.000 OA
ATOM     18  H   UNL     1      44.215   1.517   9.590  0.00  0.00    +0.000 HD
ATOM     19  H   UNL     1      45.597   2.533   9.766  0.00  0.00    +0.000 HD
ENDBRANCH   4   2
BRANCH   8   9
ATOM      9  C   UNL     1      46.617   8.549  12.521  0.00  0.00    +0.000 C 
BRANCH   9  10
ATOM     10  C   UNL     1      48.066   8.743  12.112  0.00  0.00    +0.000 A 
ATOM     11  C   UNL     1      48.933   7.654  11.911  0.00  0.00    +0.000 A 
ATOM     12  C   UNL     1      50.242   7.849  11.467  0.00  0.00    +0.000 A 
ATOM     13  C   UNL     1      50.700   9.135  11.197  0.00  0.00    +0.000 A 
ATOM     14  C   UNL     1      49.849  10.226  11.372  0.00  0.00    +0.000 A 
ATOM     15  C   UNL     1      48.542  10.031  11.826  0.00  0.00    +0.000 A 
ENDBRANCH   9  10
ENDBRANCH   8   9
TORSDOF 3
ENDMDL
MODEL 8
REMARK VINA RESULT:    -5.592      3.193      5.359
REMARK INTER + INTRA:          -6.968
REMARK INTER:                  -6.713
REMARK INTRA:                  -0.255
REMARK UNBOUND:                -0.396
REMARK  Name = 
REMARK  3 active torsions:
REMARK  status: ('A' for Active; 'I' for Inactive)
REMARK    1  A    between atoms: C_2  and  C_4
REMARK    2  A    between atoms: N_8  and  C_9
REMARK    3  A    between atoms: C_9  and  C_10
REMARK                            x       y       z     vdW  Elec       q    Type
REMARK                         _______ _______ _______ _____ _____    ______ ____
ROOT
ATOM      4  C   UNL     1      48.996   4.373  18.300  0.00  0.00    +0.000 A 
ATOM      5  C   UNL     1      48.073   3.341  18.175  0.00  0.00    +0.000 A 
ATOM      6  C   UNL     1      47.363   3.209  16.982  0.00  0.00    +0.000 A 
ATOM      7  C   UNL     1      47.558   4.130  15.953  0.00  0.00    +0.000 A 
ATOM      8  N   UNL     1      46.774   3.988  14.807  0.00  0.00    +0.000 N 
ATOM     16  N   UNL     1      48.444   5.137  16.063  0.00  0.00    +0.000 NA
ATOM     17  C   UNL     1      49.142   5.240  17.226  0.00  0.00    +0.000 A 
ATOM     20  H   UNL     1      47.027   3.137  14.313  0.00  0.00    +0.000 HD
ENDROOT
BRANCH   4   2
ATOM      1  N   UNL     1      49.209   4.313  20.722  0.00  0.00    +0.000 N 
ATOM      2  C   UNL     1      49.792   4.610  19.521  0.00  0.00    +0.000 C 
ATOM      3  O   UNL     1      50.940   5.029  19.467  0.00  0.00    +0.000 OA
ATOM     18  H   UNL     1      49.796   4.399  21.540  0.00  0.00    +0.000 HD
ATOM     19  H   UNL     1      48.366   3.767  20.810  0.00  0.00    +0.000 HD
ENDBRANCH   4   2
BRANCH   8   9
ATOM      9  C   UNL     1      46.735   5.145  13.922  0.00  0.00    +0.000 C 
BRANCH   9  10
ATOM     10  C   UNL     1      45.940   4.825  12.668  0.00  0.00    +0.000 A 
ATOM     11  C   UNL     1      45.860   5.724  11.591  0.00  0.00    +0.000 A 
ATOM     12  C   UNL     1      45.182   5.384  10.419  0.00  0.00    +0.000 A 
ATOM     13  C   UNL     1      44.591   4.129  10.298  0.00  0.00    +0.000 A 
ATOM     14  C   UNL     1      44.677   3.217  11.348  0.00  0.00    +0.000 A 
ATOM     15  C   UNL     1      45.347   3.562  12.525  0.00  0.00    +0.000 A 
ENDBRANCH   9  10
ENDBRANCH   8   9
TORSDOF 3
ENDMDL
MODEL 9
REMARK VINA RESULT:    -5.528      4.294      6.488
REMARK INTER + INTRA:          -6.893
REMARK INTER:                  -6.568
REMARK INTRA:                  -0.325
REMARK UNBOUND:                -0.396
REMARK  Name = 
REMARK  3 active torsions:
REMARK  status: ('A' for Active; 'I' for Inactive)
REMARK    1  A    between atoms: C_2  and  C_4
REMARK    2  A    between atoms: N_8  and  C_9
REMARK    3  A    between atoms: C_9  and  C_10
REMARK                            x       y       z     vdW  Elec       q    Type
REMARK                         _______ _______ _______ _____ _____    ______ ____
ROOT
ATOM      4  C   UNL     1      50.671   2.572  17.399  0.00  0.00    +0.000 A 
ATOM      5  C   UNL     1      50.591   3.914  17.756  0.00  0.00    +0.000 A 
ATOM      6  C   UNL     1      49.490   4.660  17.337  0.00  0.00    +0.000 A 
ATOM      7  C   UNL     1      48.512   4.067  16.539  0.00  0.00    +0.000 A 
ATOM      8  N   UNL     1      47.466   4.878  16.094  0.00  0.00    +0.000 N 
ATOM     16  N   UNL     1      48.580   2.770  16.182  0.00  0.00    +0.000 NA
ATOM     17  C   UNL     1      49.650   2.051  16.615  0.00  0.00    +0.000 A 
ATOM     20  H   UNL     1      46.886   5.161  16.878  0.00  0.00    +0.000 HD
ENDROOT
BRANCH   4   2
ATOM      1  N   UNL     1      51.512   0.382  18.046  0.00  0.00    +0.000 N 
ATOM      2  C   UNL     1      51.796   1.694  17.780  0.00  0.00    +0.000 C 
ATOM      3  O   UNL     1      52.945   2.110  17.831  0.00  0.00    +0.000 OA
ATOM     18  H   UNL     1      52.302  -0.222  18.221  0.00  0.00    +0.000 HD
ATOM     19  H   UNL     1      50.636  -0.055  17.806  0.00  0.00    +0.000 HD
ENDBRANCH   4   2
BRANCH   8   9
ATOM      9  C   UNL     1      46.676   4.342  14.994  0.00  0.00    +0.000 C 
BRANCH   9  10
ATOM     10  C   UNL     1      46.842   5.204  13.756  0.00  0.00    +0.000 A 
ATOM     11  C   UNL     1      45.937   5.143  12.682  0.00  0.00    +0.000 A 
ATOM     12  C   UNL     1      46.066   5.994  11.583  0.00  0.00    +0.000 A 
ATOM     13  C   UNL     1      47.092   6.934  11.549  0.00  0.00    +0.000 A 
ATOM     14  C   UNL     1      47.987   7.023  12.613  0.00  0.00    +0.000 A 
ATOM     15  C   UNL     1      47.864   6.164  13.709  0.00  0.00    +0.000 A 
ENDBRANCH   9  10
ENDBRANCH   8   9
TORSDOF 3
ENDMDL
