MODEL 1
REMARK VINA RESULT:    -7.573      0.000      0.000
REMARK INTER + INTRA:          -8.033
REMARK INTER:                  -8.901
REMARK INTRA:                   0.868
REMARK UNBOUND:                 0.868
REMARK  Name = 
REMARK  4 active torsions:
REMARK  status: ('A' for Active; 'I' for Inactive)
REMARK    1  A    between atoms: C_1  and  C_2
REMARK    2  A    between atoms: C_2  and  N_3
REMARK    3  A    between atoms: C_2  and  C_13
REMARK    4  A    between atoms: C_7  and  C_8
REMARK                            x       y       z     vdW  Elec       q    Type
REMARK                         _______ _______ _______ _____ _____    ______ ____
ROOT
ATOM      3  N   UNL     1      44.769   5.032   9.603  0.00  0.00    +0.000 N 
ATOM      4  C   UNL     1      45.446   5.097  10.822  0.00  0.00    +0.000 A 
ATOM      5  C   UNL     1      46.267   6.203  11.036  0.00  0.00    +0.000 A 
ATOM      6  C   UNL     1      46.958   6.329  12.238  0.00  0.00    +0.000 A 
ATOM      7  C   UNL     1      46.783   5.372  13.235  0.00  0.00    +0.000 A 
ATOM     11  C   UNL     1      45.923   4.320  12.950  0.00  0.00    +0.000 A 
ATOM     12  N   UNL     1      45.263   4.160  11.770  0.00  0.00    +0.000 NA
ATOM     19  H   UNL     1      43.985   5.681   9.651  0.00  0.00    +0.000 HD
ENDROOT
BRANCH   7   8
ATOM      8  C   UNL     1      47.511   5.534  14.517  0.00  0.00    +0.000 C 
ATOM      9  N   UNL     1      47.082   4.848  15.621  0.00  0.00    +0.000 N 
ATOM     10  O   UNL     1      48.484   6.272  14.604  0.00  0.00    +0.000 OA
ATOM     20  H   UNL     1      46.285   4.234  15.667  0.00  0.00    +0.000 HD
ATOM     21  H   UNL     1      47.607   4.998  16.472  0.00  0.00    +0.000 HD
ENDBRANCH   7   8
BRANCH   3   2
ATOM      1  C   UNL     1      43.978   2.804  10.303  0.00  0.00    +0.000 C 
ATOM      2  C   UNL     1      44.330   3.720   9.124  0.00  0.00    +0.000 C 
BRANCH   2  13
ATOM     13  C   UNL     1      45.474   3.069   8.345  0.00  0.00    +0.000 A 
ATOM     14  C   UNL     1      46.185   3.813   7.388  0.00  0.00    +0.000 A 
ATOM     15  C   UNL     1      47.179   3.212   6.613  0.00  0.00    +0.000 A 
ATOM     16  C   UNL     1      47.483   1.862   6.786  0.00  0.00    +0.000 A 
ATOM     17  C   UNL     1      46.791   1.111   7.731  0.00  0.00    +0.000 A 
ATOM     18  C   UNL     1      45.789   1.706   8.498  0.00  0.00    +0.000 A 
ENDBRANCH   2  13
ENDBRANCH   3   2
TORSDOF 3
ENDMDL
MODEL 2
REMARK VINA RESULT:    -7.368      3.029      6.126
REMARK INTER + INTRA:          -7.792
REMARK INTER:                  -8.302
REMARK INTRA:                   0.510
REMARK UNBOUND:                 0.868
REMARK  Name = 
REMARK  4 active torsions:
REMARK  status: ('A' for Active; 'I' for Inactive)
REMARK    1  A    between atoms: C_1  and  C_2
REMARK    2  A    between atoms: C_2  and  N_3
REMARK    3  A    between atoms: C_2  and  C_13
REMARK    4  A    between atoms: C_7  and  C_8
REMARK                            x       y       z     vdW  Elec       q    Type
REMARK                         _______ _______ _______ _____ _____    ______ ____
ROOT
ATOM      3  N   UNL     1      43.927   2.810  10.650  0.00  0.00    +0.000 N 
ATOM      4  C   UNL     1      44.778   2.841   9.544  0.00  0.00    +0.000 A 
ATOM      5  C   UNL     1      45.343   1.632   9.141  0.00  0.00    +0.000 A 
ATOM      6  C   UNL     1      46.190   1.598   8.036  0.00  0.00    +0.000 A 
ATOM      7  C   UNL     1      46.425   2.767   7.315  0.00  0.00    +0.000 A 
ATOM     11  C   UNL     1      45.798   3.920   7.767  0.00  0.00    +0.000 A 
ATOM     12  N   UNL     1      44.993   3.982   8.864  0.00  0.00    +0.000 NA
ATOM     19  H   UNL     1      43.036   2.426  10.341  0.00  0.00    +0.000 HD
ENDROOT
BRANCH   7   8
ATOM      8  C   UNL     1      47.314   2.708   6.128  0.00  0.00    +0.000 C 
ATOM      9  N   UNL     1      48.669   2.649   6.309  0.00  0.00    +0.000 N 
ATOM     10  O   UNL     1      46.855   2.715   4.993  0.00  0.00    +0.000 OA
ATOM     20  H   UNL     1      49.151   2.660   7.194  0.00  0.00    +0.000 HD
ATOM     21  H   UNL     1      49.231   2.618   5.470  0.00  0.00    +0.000 HD
ENDBRANCH   7   8
BRANCH   3   2
ATOM      1  C   UNL     1      43.288   5.185  10.474  0.00  0.00    +0.000 C 
ATOM      2  C   UNL     1      43.729   4.048  11.405  0.00  0.00    +0.000 C 
BRANCH   2  13
ATOM     13  C   UNL     1      45.055   4.453  12.050  0.00  0.00    +0.000 A 
ATOM     14  C   UNL     1      45.708   3.569  12.927  0.00  0.00    +0.000 A 
ATOM     15  C   UNL     1      46.878   3.954  13.585  0.00  0.00    +0.000 A 
ATOM     16  C   UNL     1      47.417   5.222  13.374  0.00  0.00    +0.000 A 
ATOM     17  C   UNL     1      46.785   6.109  12.507  0.00  0.00    +0.000 A 
ATOM     18  C   UNL     1      45.610   5.731  11.858  0.00  0.00    +0.000 A 
ENDBRANCH   2  13
ENDBRANCH   3   2
TORSDOF 3
ENDMDL
MODEL 3
REMARK VINA RESULT:    -7.317      1.588      2.614
REMARK INTER + INTRA:          -7.732
REMARK INTER:                  -7.283
REMARK INTRA:                  -0.448
REMARK UNBOUND:                 0.868
REMARK  Name = 
REMARK  4 active torsions:
REMARK  status: ('A' for Active; 'I' for Inactive)
REMARK    1  A    between atoms: C_1  and  C_2
REMARK    2  A    between atoms: C_2  and  N_3
REMARK    3  A    between atoms: C_2  and  C_13
REMARK    4  A    between atoms: C_7  and  C_8
REMARK                            x       y       z     vdW  Elec       q    Type
REMARK                         _______ _______ _______ _____ _____    ______ ____
ROOT
ATOM      3  N   UNL     1      45.343   3.871  12.240  0.00  0.00    +0.000 N 
ATOM      4  C   UNL     1      46.207   4.685  12.974  0.00  0.00    +0.000 A 
ATOM      5  C   UNL     1      46.502   4.287  14.277  0.00  0.00    +0.000 A 
ATOM      6  C   UNL     1      47.368   5.051  15.054  0.00  0.00    +0.000 A 
ATOM      7  C   UNL     1      47.969   6.182  14.504  0.00  0.00    +0.000 A 
ATOM     11  C   UNL     1      47.643   6.488  13.190  0.00  0.00    +0.000 A 
ATOM     12  N   UNL     1      46.774   5.774  12.423  0.00  0.00    +0.000 NA
ATOM     19  H   UNL     1      45.872   3.057  11.935  0.00  0.00    +0.000 HD
ENDROOT
BRANCH   7   8
ATOM      8  C   UNL     1      48.905   6.972  15.340  0.00  0.00    +0.000 C 
ATOM      9  N   UNL     1      48.463   8.122  15.935  0.00  0.00    +0.000 N 
ATOM     10  O   UNL     1      50.065   6.614  15.503  0.00  0.00    +0.000 OA
ATOM     20  H   UNL     1      47.541   8.517  15.851  0.00  0.00    +0.000 HD
ATOM     21  H   UNL     1      49.142   8.628  16.488  0.00  0.00    +0.000 HD
ENDBRANCH   7   8
BRANCH   3   2
ATOM      1  C   UNL     1      43.112   4.182  11.233  0.00  0.00    +0.000 C 
ATOM      2  C   UNL     1      44.615   4.470  11.119  0.00  0.00    +0.000 C 
BRANCH   2  13
ATOM     13  C   UNL     1      45.117   3.848   9.814  0.00  0.00    +0.000 A 
ATOM     14  C   UNL     1      45.131   2.451   9.663  0.00  0.00    +0.000 A 
ATOM     15  C   UNL     1      45.659   1.866   8.509  0.00  0.00    +0.000 A 
ATOM     16  C   UNL     1      46.173   2.664   7.489  0.00  0.00    +0.000 A 
ATOM     17  C   UNL     1      46.165   4.049   7.622  0.00  0.00    +0.000 A 
ATOM     18  C   UNL     1      45.649   4.637   8.778  0.00  0.00    +0.000 A 
ENDBRANCH   2  13
ENDBRANCH   3   2
TORSDOF 3
ENDMDL
MODEL 4
REMARK VINA RESULT:    -7.242      3.443      7.404
REMARK INTER + INTRA:          -7.644
REMARK INTER:                  -7.204
REMARK INTRA:                  -0.440
REMARK UNBOUND:                 0.868
REMARK  Name = 
REMARK  4 active torsions:
REMARK  status: ('A' for Active; 'I' for Inactive)
REMARK    1  A    between atoms: C_1  and  C_2
REMARK    2  A    between atoms: C_2  and  N_3
REMARK    3  A    between atoms: C_2  and  C_13
REMARK    4  A    between atoms: C_7  and  C_8
REMARK                            x       y       z     vdW  Elec       q    Type
REMARK                         _______ _______ _______ _____ _____    ______ ____
ROOT
ATOM      3  N   UNL     1      47.723   5.013  15.533  0.00  0.00    +0.000 N 
ATOM      4  C   UNL     1      46.979   4.819  14.368  0.00  0.00    +0.000 A 
ATOM      5  C   UNL     1      46.736   5.939  13.575  0.00  0.00    +0.000 A 
ATOM      6  C   UNL     1      46.011   5.806  12.394  0.00  0.00    +0.000 A 
ATOM      7  C   UNL     1      45.576   4.545  11.993  0.00  0.00    +0.000 A 
ATOM     11  C   UNL     1      45.888   3.480  12.827  0.00  0.00    +0.000 A 
ATOM     12  N   UNL     1      46.567   3.592  14.001  0.00  0.00    +0.000 NA
ATOM     19  H   UNL     1      48.700   5.107  15.262  0.00  0.00    +0.000 HD
ENDROOT
BRANCH   7   8
ATOM      8  C   UNL     1      44.823   4.419  10.721  0.00  0.00    +0.000 C 
ATOM      9  N   UNL     1      45.160   5.218   9.662  0.00  0.00    +0.000 N 
ATOM     10  O   UNL     1      43.905   3.617  10.606  0.00  0.00    +0.000 OA
ATOM     20  H   UNL     1      45.879   5.923   9.655  0.00  0.00    +0.000 HD
ATOM     21  H   UNL     1      44.611   5.100   8.821  0.00  0.00    +0.000 HD
ENDBRANCH   7   8
BRANCH   3   2
ATOM      1  C   UNL     1      46.944   4.698  17.852  0.00  0.00    +0.000 C 
ATOM      2  C   UNL     1      47.575   4.040  16.618  0.00  0.00    +0.000 C 
BRANCH   2  13
ATOM     13  C   UNL     1      48.959   3.524  17.013  0.00  0.00    +0.000 A 
ATOM     14  C   UNL     1      49.912   4.409  17.546  0.00  0.00    +0.000 A 
ATOM     15  C   UNL     1      51.206   3.969  17.838  0.00  0.00    +0.000 A 
ATOM     16  C   UNL     1      51.565   2.642  17.609  0.00  0.00    +0.000 A 
ATOM     17  C   UNL     1      50.633   1.752  17.084  0.00  0.00    +0.000 A 
ATOM     18  C   UNL     1      49.343   2.191  16.781  0.00  0.00    +0.000 A 
ENDBRANCH   2  13
ENDBRANCH   3   2
TORSDOF 3
ENDMDL
MODEL 5
REMARK VINA RESULT:    -7.051      2.106      3.414
REMARK INTER + INTRA:          -7.419
REMARK INTER:                  -6.979
REMARK INTRA:                  -0.440
REMARK UNBOUND:                 0.868
REMARK  Name = 
REMARK  4 active torsions:
REMARK  status: ('A' for Active; 'I' for Inactive)
REMARK    1  A    between atoms: C_1  and  C_2
REMARK    2  A    between atoms: C_2  and  N_3
REMARK    3  A    between atoms: C_2  and  C_13
REMARK    4  A    between atoms: C_7  and  C_8
REMARK                            x       y       z     vdW  Elec       q    Type
REMARK                         _______ _______ _______ _____ _____    ______ ____
ROOT
ATOM      3  N   UNL     1      45.517   4.128  13.380  0.00  0.00    +0.000 N 
ATOM      4  C   UNL     1      46.517   4.809  14.075  0.00  0.00    +0.000 A 
ATOM      5  C   UNL     1      46.958   4.246  15.271  0.00  0.00    +0.000 A 
ATOM      6  C   UNL     1      47.964   4.874  16.002  0.00  0.00    +0.000 A 
ATOM      7  C   UNL     1      48.553   6.034  15.503  0.00  0.00    +0.000 A 
ATOM     11  C   UNL     1      48.075   6.509  14.290  0.00  0.00    +0.000 A 
ATOM     12  N   UNL     1      47.071   5.930  13.576  0.00  0.00    +0.000 NA
ATOM     19  H   UNL     1      45.951   3.333  12.916  0.00  0.00    +0.000 HD
ENDROOT
BRANCH   7   8
ATOM      8  C   UNL     1      49.638   6.677  16.285  0.00  0.00    +0.000 C 
ATOM      9  N   UNL     1      49.343   7.752  17.079  0.00  0.00    +0.000 N 
ATOM     10  O   UNL     1      50.789   6.264  16.228  0.00  0.00    +0.000 OA
ATOM     20  H   UNL     1      48.439   8.184  17.182  0.00  0.00    +0.000 HD
ATOM     21  H   UNL     1      50.118   8.159  17.585  0.00  0.00    +0.000 HD
ENDBRANCH   7   8
BRANCH   3   2
ATOM      1  C   UNL     1      43.204   4.788  12.835  0.00  0.00    +0.000 C 
ATOM      2  C   UNL     1      44.684   4.886  12.445  0.00  0.00    +0.000 C 
BRANCH   2  13
ATOM     13  C   UNL     1      44.844   4.292  11.045  0.00  0.00    +0.000 A 
ATOM     14  C   UNL     1      45.403   5.066  10.013  0.00  0.00    +0.000 A 
ATOM     15  C   UNL     1      45.483   4.565   8.711  0.00  0.00    +0.000 A 
ATOM     16  C   UNL     1      45.014   3.285   8.421  0.00  0.00    +0.000 A 
ATOM     17  C   UNL     1      44.459   2.504   9.432  0.00  0.00    +0.000 A 
ATOM     18  C   UNL     1      44.367   3.006  10.730  0.00  0.00    +0.000 A 
ENDBRANCH   2  13
ENDBRANCH   3   2
TORSDOF 3
ENDMDL
MODEL 6
REMARK VINA RESULT:    -6.879      3.283      4.241
REMARK INTER + INTRA:          -7.217
REMARK INTER:                  -6.740
REMARK INTRA:                  -0.477
REMARK UNBOUND:                 0.868
REMARK  Name = 
REMARK  4 active torsions:
REMARK  status: ('A' for Active; 'I' for Inactive)
REMARK    1  A    between atoms: C_1  and  C_2
REMARK    2  A    between atoms: C_2  and  N_3
REMARK    3  A    between atoms: C_2  and  C_13
REMARK    4  A    between atoms: C_7  and  C_8
REMARK                            x       y       z     vdW  Elec       q    Type
REMARK                         _______ _______ _______ _____ _____    ______ ____
ROOT
ATOM      3  N   UNL     1      45.562   5.682  11.683  0.00  0.00    +0.000 N 
ATOM      4  C   UNL     1      45.238   7.039  11.715  0.00  0.00    +0.000 A 
ATOM      5  C   UNL     1      46.025   7.863  12.517  0.00  0.00    +0.000 A 
ATOM      6  C   UNL     1      45.757   9.228  12.579  0.00  0.00    +0.000 A 
ATOM      7  C   UNL     1      44.734   9.764  11.799  0.00  0.00    +0.000 A 
ATOM     11  C   UNL     1      44.020   8.876  11.006  0.00  0.00    +0.000 A 
ATOM     12  N   UNL     1      44.244   7.534  10.955  0.00  0.00    +0.000 NA
ATOM     19  H   UNL     1      46.384   5.576  11.091  0.00  0.00    +0.000 HD
ENDROOT
BRANCH   7   8
ATOM      8  C   UNL     1      44.477  11.224  11.862  0.00  0.00    +0.000 C 
ATOM      9  N   UNL     1      43.198  11.685  11.709  0.00  0.00    +0.000 N 
ATOM     10  O   UNL     1      45.390  12.019  12.045  0.00  0.00    +0.000 OA
ATOM     20  H   UNL     1      42.381  11.123  11.533  0.00  0.00    +0.000 HD
ATOM     21  H   UNL     1      43.077  12.688  11.752  0.00  0.00    +0.000 HD
ENDBRANCH   7   8
BRANCH   3   2
ATOM      1  C   UNL     1      44.294   3.697  12.415  0.00  0.00    +0.000 C 
ATOM      2  C   UNL     1      44.518   4.729  11.302  0.00  0.00    +0.000 C 
BRANCH   2  13
ATOM     13  C   UNL     1      44.965   3.980  10.045  0.00  0.00    +0.000 A 
ATOM     14  C   UNL     1      44.906   2.577  10.007  0.00  0.00    +0.000 A 
ATOM     15  C   UNL     1      45.384   1.874   8.898  0.00  0.00    +0.000 A 
ATOM     16  C   UNL     1      45.921   2.561   7.811  0.00  0.00    +0.000 A 
ATOM     17  C   UNL     1      45.985   3.951   7.831  0.00  0.00    +0.000 A 
ATOM     18  C   UNL     1      45.519   4.655   8.942  0.00  0.00    +0.000 A 
ENDBRANCH   2  13
ENDBRANCH   3   2
TORSDOF 3
ENDMDL
MODEL 7
REMARK VINA RESULT:    -6.689      2.551      3.548
REMARK INTER + INTRA:          -6.994
REMARK INTER:                  -6.617
REMARK INTRA:                  -0.377
REMARK UNBOUND:                 0.868
REMARK  Name = 
REMARK  4 active torsions:
REMARK  status: ('A' for Active; 'I' for Inactive)
REMARK    1  A    between atoms: C_1  and  C_2
REMARK    2  A    between atoms: C_2  and  N_3
REMARK    3  A    between atoms: C_2  and  C_13
REMARK    4  A    between atoms: C_7  and  C_8
REMARK                            x       y       z     vdW  Elec       q    Type
REMARK                         _______ _______ _______ _____ _____    ______ ____
ROOT
ATOM      3  N   UNL     1      45.825   5.246  12.811  0.00  0.00    +0.000 N 
ATOM      4  C   UNL     1      46.942   6.082  12.850  0.00  0.00    +0.000 A 
ATOM      5  C   UNL     1      47.676   6.108  14.034  0.00  0.00    +0.000 A 
ATOM      6  C   UNL     1      48.808   6.914  14.129  0.00  0.00    +0.000 A 
ATOM      7  C   UNL     1      49.223   7.649  13.020  0.00  0.00    +0.000 A 
ATOM     11  C   UNL     1      48.450   7.541  11.872  0.00  0.00    +0.000 A 
ATOM     12  N   UNL     1      47.323   6.785  11.768  0.00  0.00    +0.000 NA
ATOM     19  H   UNL     1      46.160   4.291  12.695  0.00  0.00    +0.000 HD
ENDROOT
BRANCH   7   8
ATOM      8  C   UNL     1      50.443   8.486  13.133  0.00  0.00    +0.000 C 
ATOM      9  N   UNL     1      51.584   8.095  12.487  0.00  0.00    +0.000 N 
ATOM     10  O   UNL     1      50.445   9.516  13.796  0.00  0.00    +0.000 OA
ATOM     20  H   UNL     1      51.698   7.260  11.936  0.00  0.00    +0.000 HD
ATOM     21  H   UNL     1      52.389   8.695  12.602  0.00  0.00    +0.000 HD
ENDBRANCH   7   8
BRANCH   3   2
ATOM      1  C   UNL     1      43.384   5.366  12.481  0.00  0.00    +0.000 C 
ATOM      2  C   UNL     1      44.768   5.548  11.844  0.00  0.00    +0.000 C 
BRANCH   2  13
ATOM     13  C   UNL     1      44.879   4.575  10.668  0.00  0.00    +0.000 A 
ATOM     14  C   UNL     1      45.452   5.000   9.458  0.00  0.00    +0.000 A 
ATOM     15  C   UNL     1      45.489   4.149   8.350  0.00  0.00    +0.000 A 
ATOM     16  C   UNL     1      44.961   2.862   8.436  0.00  0.00    +0.000 A 
ATOM     17  C   UNL     1      44.391   2.424   9.629  0.00  0.00    +0.000 A 
ATOM     18  C   UNL     1      44.343   3.276  10.733  0.00  0.00    +0.000 A 
ENDBRANCH   2  13
ENDBRANCH   3   2
TORSDOF 3
ENDMDL
MODEL 8
REMARK VINA RESULT:    -6.584      4.202      5.907
REMARK INTER + INTRA:          -6.870
REMARK INTER:                  -6.534
REMARK INTRA:                  -0.336
REMARK UNBOUND:                 0.868
REMARK  Name = 
REMARK  4 active torsions:
REMARK  status: ('A' for Active; 'I' for Inactive)
REMARK    1  A    between atoms: C_1  and  C_2
REMARK    2  A    between atoms: C_2  and  N_3
REMARK    3  A    between atoms: C_2  and  C_13
REMARK    4  A    between atoms: C_7  and  C_8
REMARK                            x       y       z     vdW  Elec       q    Type
REMARK                         _______ _______ _______ _____ _____    ______ ____
ROOT
ATOM      3  N   UNL     1      48.800   7.191  14.094  0.00  0.00    +0.000 N 
ATOM      4  C   UNL     1      48.492   6.168  14.992  0.00  0.00    +0.000 A 
ATOM      5  C   UNL     1      49.040   6.256  16.270  0.00  0.00    +0.000 A 
ATOM      6  C   UNL     1      48.758   5.271  17.213  0.00  0.00    +0.000 A 
ATOM      7  C   UNL     1      47.890   4.232  16.883  0.00  0.00    +0.000 A 
ATOM     11  C   UNL     1      47.364   4.238  15.598  0.00  0.00    +0.000 A 
ATOM     12  N   UNL     1      47.652   5.173  14.650  0.00  0.00    +0.000 NA
ATOM     19  H   UNL     1      48.236   8.001  14.346  0.00  0.00    +0.000 HD
ENDROOT
BRANCH   7   8
ATOM      8  C   UNL     1      47.584   3.203  17.907  0.00  0.00    +0.000 C 
ATOM      9  N   UNL     1      48.369   3.118  19.025  0.00  0.00    +0.000 N 
ATOM     10  O   UNL     1      46.646   2.428  17.766  0.00  0.00    +0.000 OA
ATOM     20  H   UNL     1      49.173   3.688  19.230  0.00  0.00    +0.000 HD
ATOM     21  H   UNL     1      48.124   2.396  19.688  0.00  0.00    +0.000 HD
ENDBRANCH   7   8
BRANCH   3   2
ATOM      1  C   UNL     1      49.696   7.761  11.868  0.00  0.00    +0.000 C 
ATOM      2  C   UNL     1      48.696   6.909  12.661  0.00  0.00    +0.000 C 
BRANCH   2  13
ATOM     13  C   UNL     1      47.287   7.270  12.186  0.00  0.00    +0.000 A 
ATOM     14  C   UNL     1      46.719   8.503  12.548  0.00  0.00    +0.000 A 
ATOM     15  C   UNL     1      45.405   8.813  12.189  0.00  0.00    +0.000 A 
ATOM     16  C   UNL     1      44.643   7.903  11.458  0.00  0.00    +0.000 A 
ATOM     17  C   UNL     1      45.192   6.678  11.089  0.00  0.00    +0.000 A 
ATOM     18  C   UNL     1      46.500   6.360  11.457  0.00  0.00    +0.000 A 
ENDBRANCH   2  13
ENDBRANCH   3   2
TORSDOF 3
ENDMDL
MODEL 9
REMARK VINA RESULT:    -6.540      3.626      6.764
REMARK INTER + INTRA:          -6.819
REMARK INTER:                  -6.354
REMARK INTRA:                  -0.465
REMARK UNBOUND:                 0.868
REMARK  Name = 
REMARK  4 active torsions:
REMARK  status: ('A' for Active; 'I' for Inactive)
REMARK    1  A    between atoms: C_1  and  C_2
REMARK    2  A    between atoms: C_2  and  N_3
REMARK    3  A    between atoms: C_2  and  C_13
REMARK    4  A    between atoms: C_7  and  C_8
REMARK                            x       y       z     vdW  Elec       q    Type
REMARK                         _______ _______ _______ _____ _____    ______ ____
ROOT
ATOM      3  N   UNL     1      47.793   7.257  12.760  0.00  0.00    +0.000 N 
ATOM      4  C   UNL     1      46.890   6.256  12.398  0.00  0.00    +0.000 A 
ATOM      5  C   UNL     1      46.525   5.341  13.384  0.00  0.00    +0.000 A 
ATOM      6  C   UNL     1      45.617   4.328  13.085  0.00  0.00    +0.000 A 
ATOM      7  C   UNL     1      45.045   4.270  11.816  0.00  0.00    +0.000 A 
ATOM     11  C   UNL     1      45.442   5.240  10.905  0.00  0.00    +0.000 A 
ATOM     12  N   UNL     1      46.352   6.218  11.165  0.00  0.00    +0.000 NA
ATOM     19  H   UNL     1      47.282   7.951  13.302  0.00  0.00    +0.000 HD
ENDROOT
BRANCH   7   8
ATOM      8  C   UNL     1      44.064   3.197  11.522  0.00  0.00    +0.000 C 
ATOM      9  N   UNL     1      43.684   2.345  12.524  0.00  0.00    +0.000 N 
ATOM     10  O   UNL     1      43.594   3.059  10.400  0.00  0.00    +0.000 OA
ATOM     20  H   UNL     1      44.023   2.356  13.472  0.00  0.00    +0.000 HD
ATOM     21  H   UNL     1      43.019   1.627  12.271  0.00  0.00    +0.000 HD
ENDBRANCH   7   8
BRANCH   3   2
ATOM      1  C   UNL     1      50.080   7.791  12.006  0.00  0.00    +0.000 C 
ATOM      2  C   UNL     1      48.579   7.895  11.703  0.00  0.00    +0.000 C 
BRANCH   2  13
ATOM     13  C   UNL     1      48.211   9.378  11.639  0.00  0.00    +0.000 A 
ATOM     14  C   UNL     1      49.186  10.328  11.287  0.00  0.00    +0.000 A 
ATOM     15  C   UNL     1      48.887  11.693  11.300  0.00  0.00    +0.000 A 
ATOM     16  C   UNL     1      47.612  12.129  11.658  0.00  0.00    +0.000 A 
ATOM     17  C   UNL     1      46.635  11.201  12.007  0.00  0.00    +0.000 A 
ATOM     18  C   UNL     1      46.934   9.838  12.006  0.00  0.00    +0.000 A 
ENDBRANCH   2  13
ENDBRANCH   3   2
TORSDOF 3
ENDMDL
