MODEL 1
REMARK VINA RESULT:    -6.547      0.000      0.000
REMARK INTER + INTRA:         -12.196
REMARK INTER:                 -11.139
REMARK INTRA:                  -1.057
REMARK UNBOUND:                -1.057
REMARK  Name = 
REMARK  13 active torsions:
REMARK  status: ('A' for Active; 'I' for Inactive)
REMARK    1  A    between atoms: C_1  and  C_2
REMARK    2  A    between atoms: C_2  and  O_3
REMARK    3  A    between atoms: O_3  and  C_4
REMARK    4  A    between atoms: C_4  and  C_5
REMARK    5  A    between atoms: C_5  and  O_6
REMARK    6  A    between atoms: O_6  and  C_7
REMARK    7  A    between atoms: C_7  and  C_8
REMARK    8  A    between atoms: C_8  and  N_9
REMARK    9  A    between atoms: N_9  and  C_10
REMARK   10  A    between atoms: C_10  and  C_11
REMARK   11  A    between atoms: C_14  and  C_15
REMARK   12  A    between atoms: C_15  and  N_16
REMARK   13  A    between atoms: C_17  and  C_19
REMARK                            x       y       z     vdW  Elec       q    Type
REMARK                         _______ _______ _______ _____ _____    ______ ____
ROOT
ATOM     11  C   UNL     1      44.726   5.263  11.605  0.00  0.00    +0.000 A 
ATOM     12  C   UNL     1      45.431   6.384  11.148  0.00  0.00    +0.000 A 
ATOM     13  C   UNL     1      46.570   6.834  11.814  0.00  0.00    +0.000 A 
ATOM     14  C   UNL     1      47.035   6.172  12.960  0.00  0.00    +0.000 A 
ATOM     29  C   UNL     1      46.324   5.050  13.416  0.00  0.00    +0.000 A 
ATOM     30  C   UNL     1      45.199   4.582  12.729  0.00  0.00    +0.000 A 
ENDROOT
BRANCH  11  10
ATOM     10  C   UNL     1      43.434   4.860  10.943  0.00  0.00    +0.000 C 
BRANCH  10   9
ATOM      9  N   UNL     1      43.658   4.642   9.520  0.00  0.00    +0.000 NA
ATOM     31  H   UNL     1      42.761   4.566   9.048  0.00  0.00    +0.000 HD
BRANCH   9   8
ATOM      8  C   UNL     1      44.437   3.438   9.273  0.00  0.00    +0.000 C 
BRANCH   8   7
ATOM      7  C   UNL     1      44.970   3.465   7.842  0.00  0.00    +0.000 C 
BRANCH   7   6
ATOM      6  O   UNL     1      46.179   4.218   7.818  0.00  0.00    +0.000 OA
BRANCH   6   5
ATOM      5  C   UNL     1      47.146   3.594   6.976  0.00  0.00    +0.000 C 
BRANCH   5   4
ATOM      4  C   UNL     1      47.218   2.117   7.325  0.00  0.00    +0.000 C 
BRANCH   4   3
ATOM      3  O   UNL     1      47.812   1.404   6.242  0.00  0.00    +0.000 OA
BRANCH   3   2
ATOM      1  C   UNL     1      46.903   0.716   4.145  0.00  0.00    +0.000 C 
ATOM      2  C   UNL     1      47.340   1.893   4.990  0.00  0.00    +0.000 C 
ENDBRANCH   3   2
ENDBRANCH   4   3
ENDBRANCH   5   4
ENDBRANCH   6   5
ENDBRANCH   7   6
ENDBRANCH   8   7
ENDBRANCH   9   8
ENDBRANCH  10   9
ENDBRANCH  11  10
BRANCH  14  15
ATOM     15  C   UNL     1      48.272   6.625  13.703  0.00  0.00    +0.000 C 
BRANCH  15  16
ATOM     16  N   UNL     1      48.109   6.604  15.135  0.00  0.00    +0.000 N 
ATOM     17  C   UNL     1      48.975   7.266  15.977  0.00  0.00    +0.000 C 
ATOM     18  O   UNL     1      49.920   7.924  15.575  0.00  0.00    +0.000 OA
ATOM     32  H   UNL     1      47.589   5.823  15.518  0.00  0.00    +0.000 HD
BRANCH  17  19
ATOM     19  C   UNL     1      48.647   7.170  17.406  0.00  0.00    +0.000 A 
ATOM     20  C   UNL     1      48.200   8.290  18.099  0.00  0.00    +0.000 A 
ATOM     21  S   UNL     1      47.889   7.988  19.752  0.00  0.00    +0.000 S 
ATOM     22  C   UNL     1      48.355   6.357  19.600  0.00  0.00    +0.000 A 
ATOM     23  N   UNL     1      48.360   5.524  20.675  0.00  0.00    +0.000 NA
ATOM     24  C   UNL     1      48.740   4.316  20.411  0.00  0.00    +0.000 A 
ATOM     25  N   UNL     1      49.106   3.865  19.167  0.00  0.00    +0.000 N 
ATOM     26  C   UNL     1      49.080   4.658  18.048  0.00  0.00    +0.000 A 
ATOM     27  O   UNL     1      49.345   4.205  16.950  0.00  0.00    +0.000 OA
ATOM     28  C   UNL     1      48.698   6.039  18.301  0.00  0.00    +0.000 A 
ATOM     33  H   UNL     1      49.350   2.898  19.021  0.00  0.00    +0.000 HD
ENDBRANCH  17  19
ENDBRANCH  15  16
ENDBRANCH  14  15
TORSDOF 12
ENDMDL
MODEL 2
REMARK VINA RESULT:    -6.445      2.150      3.018
REMARK INTER + INTRA:         -12.023
REMARK INTER:                 -10.327
REMARK INTRA:                  -1.696
REMARK UNBOUND:                -1.057
REMARK  Name = 
REMARK  13 active torsions:
REMARK  status: ('A' for Active; 'I' for Inactive)
REMARK    1  A    between atoms: C_1  and  C_2
REMARK    2  A    between atoms: C_2  and  O_3
REMARK    3  A    between atoms: O_3  and  C_4
REMARK    4  A    between atoms: C_4  and  C_5
REMARK    5  A    between atoms: C_5  and  O_6
REMARK    6  A    between atoms: O_6  and  C_7
REMARK    7  A    between atoms: C_7  and  C_8
REMARK    8  A    between atoms: C_8  and  N_9
REMARK    9  A    between atoms: N_9  and  C_10
REMARK   10  A    between atoms: C_10  and  C_11
REMARK   11  A    between atoms: C_14  and  C_15
REMARK   12  A    between atoms: C_15  and  N_16
REMARK   13  A    between atoms: C_17  and  C_19
REMARK                            x       y       z     vdW  Elec       q    Type
REMARK                         _______ _______ _______ _____ _____    ______ ____
ROOT
ATOM     11  C   UNL     1      44.915   7.471  11.636  0.00  0.00    +0.000 A 
ATOM     12  C   UNL     1      45.868   6.517  11.254  0.00  0.00    +0.000 A 
ATOM     13  C   UNL     1      47.177   6.584  11.730  0.00  0.00    +0.000 A 
ATOM     14  C   UNL     1      47.567   7.609  12.603  0.00  0.00    +0.000 A 
ATOM     29  C   UNL     1      46.609   8.564  12.982  0.00  0.00    +0.000 A 
ATOM     30  C   UNL     1      45.290   8.478  12.528  0.00  0.00    +0.000 A 
ENDROOT
BRANCH  11  10
ATOM     10  C   UNL     1      43.538   7.451  11.023  0.00  0.00    +0.000 C 
BRANCH  10   9
ATOM      9  N   UNL     1      43.170   6.083  10.684  0.00  0.00    +0.000 NA
ATOM     31  H   UNL     1      42.602   6.089   9.841  0.00  0.00    +0.000 HD
BRANCH   9   8
ATOM      8  C   UNL     1      42.431   5.438  11.760  0.00  0.00    +0.000 C 
BRANCH   8   7
ATOM      7  C   UNL     1      43.150   4.154  12.168  0.00  0.00    +0.000 C 
BRANCH   7   6
ATOM      6  O   UNL     1      43.143   3.256  11.062  0.00  0.00    +0.000 OA
BRANCH   6   5
ATOM      5  C   UNL     1      44.474   2.967  10.639  0.00  0.00    +0.000 C 
BRANCH   5   4
ATOM      4  C   UNL     1      44.529   3.030   9.122  0.00  0.00    +0.000 C 
BRANCH   4   3
ATOM      3  O   UNL     1      44.949   4.332   8.718  0.00  0.00    +0.000 OA
BRANCH   3   2
ATOM      1  C   UNL     1      46.269   2.868   7.371  0.00  0.00    +0.000 C 
ATOM      2  C   UNL     1      46.141   4.265   7.941  0.00  0.00    +0.000 C 
ENDBRANCH   3   2
ENDBRANCH   4   3
ENDBRANCH   5   4
ENDBRANCH   6   5
ENDBRANCH   7   6
ENDBRANCH   8   7
ENDBRANCH   9   8
ENDBRANCH  10   9
ENDBRANCH  11  10
BRANCH  14  15
ATOM     15  C   UNL     1      48.975   7.708  13.147  0.00  0.00    +0.000 C 
BRANCH  15  16
ATOM     16  N   UNL     1      49.187   6.890  14.315  0.00  0.00    +0.000 N 
ATOM     17  C   UNL     1      49.027   7.383  15.591  0.00  0.00    +0.000 C 
ATOM     18  O   UNL     1      48.679   8.529  15.821  0.00  0.00    +0.000 OA
ATOM     32  H   UNL     1      49.793   6.085  14.198  0.00  0.00    +0.000 HD
BRANCH  17  19
ATOM     19  C   UNL     1      49.250   6.408  16.667  0.00  0.00    +0.000 A 
ATOM     20  C   UNL     1      50.169   6.676  17.676  0.00  0.00    +0.000 A 
ATOM     21  S   UNL     1      50.305   5.418  18.824  0.00  0.00    +0.000 S 
ATOM     22  C   UNL     1      49.154   4.468  18.004  0.00  0.00    +0.000 A 
ATOM     23  N   UNL     1      48.825   3.224  18.446  0.00  0.00    +0.000 NA
ATOM     24  C   UNL     1      47.941   2.618  17.722  0.00  0.00    +0.000 A 
ATOM     25  N   UNL     1      47.350   3.149  16.602  0.00  0.00    +0.000 N 
ATOM     26  C   UNL     1      47.622   4.412  16.142  0.00  0.00    +0.000 A 
ATOM     27  O   UNL     1      47.028   4.875  15.185  0.00  0.00    +0.000 OA
ATOM     28  C   UNL     1      48.643   5.120  16.899  0.00  0.00    +0.000 A 
ATOM     33  H   UNL     1      46.633   2.640  16.107  0.00  0.00    +0.000 HD
ENDBRANCH  17  19
ENDBRANCH  15  16
ENDBRANCH  14  15
TORSDOF 12
ENDMDL
MODEL 3
REMARK VINA RESULT:    -6.247      4.837     10.552
REMARK INTER + INTRA:         -11.687
REMARK INTER:                 -10.776
REMARK INTRA:                  -0.911
REMARK UNBOUND:                -1.057
REMARK  Name = 
REMARK  13 active torsions:
REMARK  status: ('A' for Active; 'I' for Inactive)
REMARK    1  A    between atoms: C_1  and  C_2
REMARK    2  A    between atoms: C_2  and  O_3
REMARK    3  A    between atoms: O_3  and  C_4
REMARK    4  A    between atoms: C_4  and  C_5
REMARK    5  A    between atoms: C_5  and  O_6
REMARK    6  A    between atoms: O_6  and  C_7
REMARK    7  A    between atoms: C_7  and  C_8
REMARK    8  A    between atoms: C_8  and  N_9
REMARK    9  A    between atoms: N_9  and  C_10
REMARK   10  A    between atoms: C_10  and  C_11
REMARK   11  A    between atoms: C_14  and  C_15
REMARK   12  A    between atoms: C_15  and  N_16
REMARK   13  A    between atoms: C_17  and  C_19
REMARK                            x       y       z     vdW  Elec       q    Type
REMARK                         _______ _______ _______ _____ _____    ______ ____
ROOT
ATOM     11  C   UNL     1      51.503   3.361  17.742  0.00  0.00    +0.000 A 
ATOM     12  C   UNL     1      50.812   2.209  17.342  0.00  0.00    +0.000 A 
ATOM     13  C   UNL     1      49.441   2.250  17.086  0.00  0.00    +0.000 A 
ATOM     14  C   UNL     1      48.724   3.447  17.227  0.00  0.00    +0.000 A 
ATOM     29  C   UNL     1      49.420   4.598  17.630  0.00  0.00    +0.000 A 
ATOM     30  C   UNL     1      50.800   4.563  17.856  0.00  0.00    +0.000 A 
ENDROOT
BRANCH  11  10
ATOM     10  C   UNL     1      52.958   3.275  18.124  0.00  0.00    +0.000 C 
BRANCH  10   9
ATOM      9  N   UNL     1      53.197   2.052  18.877  0.00  0.00    +0.000 NA
ATOM     31  H   UNL     1      52.529   1.993  19.641  0.00  0.00    +0.000 HD
BRANCH   9   8
ATOM      8  C   UNL     1      54.550   2.001  19.413  0.00  0.00    +0.000 C 
BRANCH   8   7
ATOM      7  C   UNL     1      55.059   0.562  19.367  0.00  0.00    +0.000 C 
BRANCH   7   6
ATOM      6  O   UNL     1      53.957  -0.305  19.118  0.00  0.00    +0.000 OA
BRANCH   6   5
ATOM      5  C   UNL     1      54.378  -1.465  18.405  0.00  0.00    +0.000 C 
BRANCH   5   4
ATOM      4  C   UNL     1      54.031  -2.696  19.224  0.00  0.00    +0.000 C 
BRANCH   4   3
ATOM      3  O   UNL     1      52.870  -2.430  20.008  0.00  0.00    +0.000 OA
BRANCH   3   2
ATOM      1  C   UNL     1      51.795  -2.929  22.080  0.00  0.00    +0.000 C 
ATOM      2  C   UNL     1      52.639  -3.475  20.948  0.00  0.00    +0.000 C 
ENDBRANCH   3   2
ENDBRANCH   4   3
ENDBRANCH   5   4
ENDBRANCH   6   5
ENDBRANCH   7   6
ENDBRANCH   8   7
ENDBRANCH   9   8
ENDBRANCH  10   9
ENDBRANCH  11  10
BRANCH  14  15
ATOM     15  C   UNL     1      47.240   3.530  16.950  0.00  0.00    +0.000 C 
BRANCH  15  16
ATOM     16  N   UNL     1      46.912   4.473  15.910  0.00  0.00    +0.000 N 
ATOM     17  C   UNL     1      46.952   4.131  14.576  0.00  0.00    +0.000 C 
ATOM     18  O   UNL     1      47.246   3.015  14.184  0.00  0.00    +0.000 OA
ATOM     32  H   UNL     1      47.008   5.455  16.144  0.00  0.00    +0.000 HD
BRANCH  17  19
ATOM     19  C   UNL     1      46.556   5.200  13.649  0.00  0.00    +0.000 A 
ATOM     20  C   UNL     1      47.433   6.242  13.365  0.00  0.00    +0.000 A 
ATOM     21  S   UNL     1      46.789   7.397  12.283  0.00  0.00    +0.000 S 
ATOM     22  C   UNL     1      45.315   6.554  12.170  0.00  0.00    +0.000 A 
ATOM     23  N   UNL     1      44.287   7.031  11.417  0.00  0.00    +0.000 NA
ATOM     24  C   UNL     1      43.228   6.288  11.429  0.00  0.00    +0.000 A 
ATOM     25  N   UNL     1      43.109   5.106  12.117  0.00  0.00    +0.000 N 
ATOM     26  C   UNL     1      44.131   4.567  12.857  0.00  0.00    +0.000 A 
ATOM     27  O   UNL     1      44.012   3.483  13.397  0.00  0.00    +0.000 OA
ATOM     28  C   UNL     1      45.331   5.388  12.910  0.00  0.00    +0.000 A 
ATOM     33  H   UNL     1      42.270   4.552  12.047  0.00  0.00    +0.000 HD
ENDBRANCH  17  19
ENDBRANCH  15  16
ENDBRANCH  14  15
TORSDOF 12
ENDMDL
MODEL 4
REMARK VINA RESULT:    -6.108      4.461     10.492
REMARK INTER + INTRA:         -11.450
REMARK INTER:                 -10.146
REMARK INTRA:                  -1.304
REMARK UNBOUND:                -1.057
REMARK  Name = 
REMARK  13 active torsions:
REMARK  status: ('A' for Active; 'I' for Inactive)
REMARK    1  A    between atoms: C_1  and  C_2
REMARK    2  A    between atoms: C_2  and  O_3
REMARK    3  A    between atoms: O_3  and  C_4
REMARK    4  A    between atoms: C_4  and  C_5
REMARK    5  A    between atoms: C_5  and  O_6
REMARK    6  A    between atoms: O_6  and  C_7
REMARK    7  A    between atoms: C_7  and  C_8
REMARK    8  A    between atoms: C_8  and  N_9
REMARK    9  A    between atoms: N_9  and  C_10
REMARK   10  A    between atoms: C_10  and  C_11
REMARK   11  A    between atoms: C_14  and  C_15
REMARK   12  A    between atoms: C_15  and  N_16
REMARK   13  A    between atoms: C_17  and  C_19
REMARK                            x       y       z     vdW  Elec       q    Type
REMARK                         _______ _______ _______ _____ _____    ______ ____
ROOT
ATOM     11  C   UNL     1      51.462   3.536  17.689  0.00  0.00    +0.000 A 
ATOM     12  C   UNL     1      50.793   2.340  17.394  0.00  0.00    +0.000 A 
ATOM     13  C   UNL     1      49.423   2.332  17.136  0.00  0.00    +0.000 A 
ATOM     14  C   UNL     1      48.684   3.523  17.168  0.00  0.00    +0.000 A 
ATOM     29  C   UNL     1      49.358   4.719  17.466  0.00  0.00    +0.000 A 
ATOM     30  C   UNL     1      50.737   4.730  17.694  0.00  0.00    +0.000 A 
ENDROOT
BRANCH  11  10
ATOM     10  C   UNL     1      52.918   3.512  18.077  0.00  0.00    +0.000 C 
BRANCH  10   9
ATOM      9  N   UNL     1      53.088   2.744  19.303  0.00  0.00    +0.000 NA
ATOM     31  H   UNL     1      52.220   2.764  19.832  0.00  0.00    +0.000 HD
BRANCH   9   8
ATOM      8  C   UNL     1      54.168   3.270  20.126  0.00  0.00    +0.000 C 
BRANCH   8   7
ATOM      7  C   UNL     1      53.671   4.496  20.889  0.00  0.00    +0.000 C 
BRANCH   7   6
ATOM      6  O   UNL     1      52.287   4.326  21.177  0.00  0.00    +0.000 OA
BRANCH   6   5
ATOM      5  C   UNL     1      51.659   5.586  21.400  0.00  0.00    +0.000 C 
BRANCH   5   4
ATOM      4  C   UNL     1      50.164   5.434  21.177  0.00  0.00    +0.000 C 
BRANCH   4   3
ATOM      3  O   UNL     1      49.624   6.676  20.731  0.00  0.00    +0.000 OA
BRANCH   3   2
ATOM      1  C   UNL     1      47.361   6.045  20.309  0.00  0.00    +0.000 C 
ATOM      2  C   UNL     1      48.288   6.848  21.196  0.00  0.00    +0.000 C 
ENDBRANCH   3   2
ENDBRANCH   4   3
ENDBRANCH   5   4
ENDBRANCH   6   5
ENDBRANCH   7   6
ENDBRANCH   8   7
ENDBRANCH   9   8
ENDBRANCH  10   9
ENDBRANCH  11  10
BRANCH  14  15
ATOM     15  C   UNL     1      47.198   3.554  16.886  0.00  0.00    +0.000 C 
BRANCH  15  16
ATOM     16  N   UNL     1      46.840   4.490  15.849  0.00  0.00    +0.000 N 
ATOM     17  C   UNL     1      46.928   4.168  14.513  0.00  0.00    +0.000 C 
ATOM     18  O   UNL     1      47.293   3.075  14.115  0.00  0.00    +0.000 OA
ATOM     32  H   UNL     1      46.876   5.472  16.097  0.00  0.00    +0.000 HD
BRANCH  17  19
ATOM     19  C   UNL     1      46.493   5.225  13.590  0.00  0.00    +0.000 A 
ATOM     20  C   UNL     1      47.334   6.296  13.303  0.00  0.00    +0.000 A 
ATOM     21  S   UNL     1      46.647   7.431  12.227  0.00  0.00    +0.000 S 
ATOM     22  C   UNL     1      45.201   6.539  12.119  0.00  0.00    +0.000 A 
ATOM     23  N   UNL     1      44.155   6.984  11.372  0.00  0.00    +0.000 NA
ATOM     24  C   UNL     1      43.121   6.206  11.387  0.00  0.00    +0.000 A 
ATOM     25  N   UNL     1      43.044   5.019  12.073  0.00  0.00    +0.000 N 
ATOM     26  C   UNL     1      44.087   4.513  12.807  0.00  0.00    +0.000 A 
ATOM     27  O   UNL     1      44.006   3.425  13.346  0.00  0.00    +0.000 OA
ATOM     28  C   UNL     1      45.259   5.373  12.856  0.00  0.00    +0.000 A 
ATOM     33  H   UNL     1      42.224   4.438  12.006  0.00  0.00    +0.000 HD
ENDBRANCH  17  19
ENDBRANCH  15  16
ENDBRANCH  14  15
TORSDOF 12
ENDMDL
MODEL 5
REMARK VINA RESULT:    -6.029      1.769      2.618
REMARK INTER + INTRA:         -11.316
REMARK INTER:                 -10.350
REMARK INTRA:                  -0.966
REMARK UNBOUND:                -1.057
REMARK  Name = 
REMARK  13 active torsions:
REMARK  status: ('A' for Active; 'I' for Inactive)
REMARK    1  A    between atoms: C_1  and  C_2
REMARK    2  A    between atoms: C_2  and  O_3
REMARK    3  A    between atoms: O_3  and  C_4
REMARK    4  A    between atoms: C_4  and  C_5
REMARK    5  A    between atoms: C_5  and  O_6
REMARK    6  A    between atoms: O_6  and  C_7
REMARK    7  A    between atoms: C_7  and  C_8
REMARK    8  A    between atoms: C_8  and  N_9
REMARK    9  A    between atoms: N_9  and  C_10
REMARK   10  A    between atoms: C_10  and  C_11
REMARK   11  A    between atoms: C_14  and  C_15
REMARK   12  A    between atoms: C_15  and  N_16
REMARK   13  A    between atoms: C_17  and  C_19
REMARK                            x       y       z     vdW  Elec       q    Type
REMARK                         _______ _______ _______ _____ _____    ______ ____
ROOT
ATOM     11  C   UNL     1      45.614   7.043  12.354  0.00  0.00    +0.000 A 
ATOM     12  C   UNL     1      46.494   5.953  12.362  0.00  0.00    +0.000 A 
ATOM     13  C   UNL     1      47.752   6.054  12.957  0.00  0.00    +0.000 A 
ATOM     14  C   UNL     1      48.163   7.251  13.559  0.00  0.00    +0.000 A 
ATOM     29  C   UNL     1      47.278   8.342  13.546  0.00  0.00    +0.000 A 
ATOM     30  C   UNL     1      46.006   8.230  12.977  0.00  0.00    +0.000 A 
ENDROOT
BRANCH  11  10
ATOM     10  C   UNL     1      44.307   6.954  11.609  0.00  0.00    +0.000 C 
BRANCH  10   9
ATOM      9  N   UNL     1      43.371   6.125  12.355  0.00  0.00    +0.000 NA
ATOM     31  H   UNL     1      43.872   5.633  13.091  0.00  0.00    +0.000 HD
BRANCH   9   8
ATOM      8  C   UNL     1      42.701   5.157  11.498  0.00  0.00    +0.000 C 
BRANCH   8   7
ATOM      7  C   UNL     1      43.379   3.797  11.644  0.00  0.00    +0.000 C 
BRANCH   7   6
ATOM      6  O   UNL     1      43.616   3.262  10.345  0.00  0.00    +0.000 OA
BRANCH   6   5
ATOM      5  C   UNL     1      44.797   3.824   9.776  0.00  0.00    +0.000 C 
BRANCH   5   4
ATOM      4  C   UNL     1      44.717   3.701   8.264  0.00  0.00    +0.000 C 
BRANCH   4   3
ATOM      3  O   UNL     1      45.901   4.245   7.683  0.00  0.00    +0.000 OA
BRANCH   3   2
ATOM      1  C   UNL     1      46.692   2.981   5.819  0.00  0.00    +0.000 C 
ATOM      2  C   UNL     1      46.807   3.211   7.311  0.00  0.00    +0.000 C 
ENDBRANCH   3   2
ENDBRANCH   4   3
ENDBRANCH   5   4
ENDBRANCH   6   5
ENDBRANCH   7   6
ENDBRANCH   8   7
ENDBRANCH   9   8
ENDBRANCH  10   9
ENDBRANCH  11  10
BRANCH  14  15
ATOM     15  C   UNL     1      49.515   7.395  14.220  0.00  0.00    +0.000 C 
BRANCH  15  16
ATOM     16  N   UNL     1      49.426   7.684  15.630  0.00  0.00    +0.000 N 
ATOM     17  C   UNL     1      49.396   6.687  16.579  0.00  0.00    +0.000 C 
ATOM     18  O   UNL     1      49.460   5.502  16.301  0.00  0.00    +0.000 OA
ATOM     32  H   UNL     1      49.027   8.582  15.881  0.00  0.00    +0.000 HD
BRANCH  17  19
ATOM     19  C   UNL     1      49.337   7.156  17.970  0.00  0.00    +0.000 A 
ATOM     20  C   UNL     1      50.174   8.180  18.401  0.00  0.00    +0.000 A 
ATOM     21  S   UNL     1      49.975   8.573  20.052  0.00  0.00    +0.000 S 
ATOM     22  C   UNL     1      48.777   7.380  20.250  0.00  0.00    +0.000 A 
ATOM     23  N   UNL     1      48.200   7.157  21.462  0.00  0.00    +0.000 NA
ATOM     24  C   UNL     1      47.310   6.218  21.463  0.00  0.00    +0.000 A 
ATOM     25  N   UNL     1      46.939   5.489  20.359  0.00  0.00    +0.000 N 
ATOM     26  C   UNL     1      47.465   5.705  19.112  0.00  0.00    +0.000 A 
ATOM     27  O   UNL     1      47.063   5.087  18.144  0.00  0.00    +0.000 OA
ATOM     28  C   UNL     1      48.503   6.724  19.066  0.00  0.00    +0.000 A 
ATOM     33  H   UNL     1      46.205   4.801  20.420  0.00  0.00    +0.000 HD
ENDBRANCH  17  19
ENDBRANCH  15  16
ENDBRANCH  14  15
TORSDOF 12
ENDMDL
MODEL 6
REMARK VINA RESULT:    -5.863      4.729      6.779
REMARK INTER + INTRA:         -11.034
REMARK INTER:                 -10.249
REMARK INTRA:                  -0.785
REMARK UNBOUND:                -1.057
REMARK  Name = 
REMARK  13 active torsions:
REMARK  status: ('A' for Active; 'I' for Inactive)
REMARK    1  A    between atoms: C_1  and  C_2
REMARK    2  A    between atoms: C_2  and  O_3
REMARK    3  A    between atoms: O_3  and  C_4
REMARK    4  A    between atoms: C_4  and  C_5
REMARK    5  A    between atoms: C_5  and  O_6
REMARK    6  A    between atoms: O_6  and  C_7
REMARK    7  A    between atoms: C_7  and  C_8
REMARK    8  A    between atoms: C_8  and  N_9
REMARK    9  A    between atoms: N_9  and  C_10
REMARK   10  A    between atoms: C_10  and  C_11
REMARK   11  A    between atoms: C_14  and  C_15
REMARK   12  A    between atoms: C_15  and  N_16
REMARK   13  A    between atoms: C_17  and  C_19
REMARK                            x       y       z     vdW  Elec       q    Type
REMARK                         _______ _______ _______ _____ _____    ______ ____
ROOT
ATOM     11  C   UNL     1      45.204   7.442  12.024  0.00  0.00    +0.000 A 
ATOM     12  C   UNL     1      46.528   7.350  12.473  0.00  0.00    +0.000 A 
ATOM     13  C   UNL     1      46.954   6.255  13.224  0.00  0.00    +0.000 A 
ATOM     14  C   UNL     1      46.063   5.221  13.546  0.00  0.00    +0.000 A 
ATOM     29  C   UNL     1      44.737   5.318  13.095  0.00  0.00    +0.000 A 
ATOM     30  C   UNL     1      44.319   6.402  12.317  0.00  0.00    +0.000 A 
ENDROOT
BRANCH  11  10
ATOM     10  C   UNL     1      44.731   8.685  11.313  0.00  0.00    +0.000 C 
BRANCH  10   9
ATOM      9  N   UNL     1      43.298   8.597  11.071  0.00  0.00    +0.000 NA
ATOM     31  H   UNL     1      43.115   7.840  10.417  0.00  0.00    +0.000 HD
BRANCH   9   8
ATOM      8  C   UNL     1      42.763   9.840  10.532  0.00  0.00    +0.000 C 
BRANCH   8   7
ATOM      7  C   UNL     1      43.022  10.973  11.523  0.00  0.00    +0.000 C 
BRANCH   7   6
ATOM      6  O   UNL     1      41.819  11.238  12.238  0.00  0.00    +0.000 OA
BRANCH   6   5
ATOM      5  C   UNL     1      40.686  10.764  11.514  0.00  0.00    +0.000 C 
BRANCH   5   4
ATOM      4  C   UNL     1      39.665  11.884  11.416  0.00  0.00    +0.000 C 
BRANCH   4   3
ATOM      3  O   UNL     1      38.405  11.342  11.026  0.00  0.00    +0.000 OA
BRANCH   3   2
ATOM      1  C   UNL     1      37.212   9.348  11.571  0.00  0.00    +0.000 C 
ATOM      2  C   UNL     1      37.797  10.638  12.105  0.00  0.00    +0.000 C 
ENDBRANCH   3   2
ENDBRANCH   4   3
ENDBRANCH   5   4
ENDBRANCH   6   5
ENDBRANCH   7   6
ENDBRANCH   8   7
ENDBRANCH   9   8
ENDBRANCH  10   9
ENDBRANCH  11  10
BRANCH  14  15
ATOM     15  C   UNL     1      46.492   4.014  14.350  0.00  0.00    +0.000 C 
BRANCH  15  16
ATOM     16  N   UNL     1      47.531   4.310  15.304  0.00  0.00    +0.000 N 
ATOM     17  C   UNL     1      47.459   3.894  16.615  0.00  0.00    +0.000 C 
ATOM     18  O   UNL     1      46.530   3.237  17.054  0.00  0.00    +0.000 OA
ATOM     32  H   UNL     1      48.114   5.114  15.100  0.00  0.00    +0.000 HD
BRANCH  17  19
ATOM     19  C   UNL     1      48.617   4.252  17.445  0.00  0.00    +0.000 A 
ATOM     20  C   UNL     1      48.585   5.394  18.239  0.00  0.00    +0.000 A 
ATOM     21  S   UNL     1      50.029   5.654  19.115  0.00  0.00    +0.000 S 
ATOM     22  C   UNL     1      50.749   4.261  18.452  0.00  0.00    +0.000 A 
ATOM     23  N   UNL     1      52.028   3.915  18.763  0.00  0.00    +0.000 NA
ATOM     24  C   UNL     1      52.443   2.836  18.182  0.00  0.00    +0.000 A 
ATOM     25  N   UNL     1      51.691   2.067  17.328  0.00  0.00    +0.000 N 
ATOM     26  C   UNL     1      50.387   2.356  17.017  0.00  0.00    +0.000 A 
ATOM     27  O   UNL     1      49.730   1.614  16.311  0.00  0.00    +0.000 OA
ATOM     28  C   UNL     1      49.886   3.585  17.613  0.00  0.00    +0.000 A 
ATOM     33  H   UNL     1      52.062   1.212  16.944  0.00  0.00    +0.000 HD
ENDBRANCH  17  19
ENDBRANCH  15  16
ENDBRANCH  14  15
TORSDOF 12
ENDMDL
MODEL 7
REMARK VINA RESULT:    -5.847      2.362      3.509
REMARK INTER + INTRA:         -11.006
REMARK INTER:                  -9.908
REMARK INTRA:                  -1.098
REMARK UNBOUND:                -1.057
REMARK  Name = 
REMARK  13 active torsions:
REMARK  status: ('A' for Active; 'I' for Inactive)
REMARK    1  A    between atoms: C_1  and  C_2
REMARK    2  A    between atoms: C_2  and  O_3
REMARK    3  A    between atoms: O_3  and  C_4
REMARK    4  A    between atoms: C_4  and  C_5
REMARK    5  A    between atoms: C_5  and  O_6
REMARK    6  A    between atoms: O_6  and  C_7
REMARK    7  A    between atoms: C_7  and  C_8
REMARK    8  A    between atoms: C_8  and  N_9
REMARK    9  A    between atoms: N_9  and  C_10
REMARK   10  A    between atoms: C_10  and  C_11
REMARK   11  A    between atoms: C_14  and  C_15
REMARK   12  A    between atoms: C_15  and  N_16
REMARK   13  A    between atoms: C_17  and  C_19
REMARK                            x       y       z     vdW  Elec       q    Type
REMARK                         _______ _______ _______ _____ _____    ______ ____
ROOT
ATOM     11  C   UNL     1      46.753   6.592  12.381  0.00  0.00    +0.000 A 
ATOM     12  C   UNL     1      47.382   5.677  13.235  0.00  0.00    +0.000 A 
ATOM     13  C   UNL     1      48.088   6.113  14.355  0.00  0.00    +0.000 A 
ATOM     14  C   UNL     1      48.186   7.480  14.650  0.00  0.00    +0.000 A 
ATOM     29  C   UNL     1      47.556   8.394  13.791  0.00  0.00    +0.000 A 
ATOM     30  C   UNL     1      46.821   7.954  12.685  0.00  0.00    +0.000 A 
ENDROOT
BRANCH  11  10
ATOM     10  C   UNL     1      46.091   6.114  11.114  0.00  0.00    +0.000 C 
BRANCH  10   9
ATOM      9  N   UNL     1      44.671   6.434  11.149  0.00  0.00    +0.000 NA
ATOM     31  H   UNL     1      44.545   7.350  11.573  0.00  0.00    +0.000 HD
BRANCH   9   8
ATOM      8  C   UNL     1      43.911   5.445  11.901  0.00  0.00    +0.000 C 
BRANCH   8   7
ATOM      7  C   UNL     1      44.394   4.046  11.527  0.00  0.00    +0.000 C 
BRANCH   7   6
ATOM      6  O   UNL     1      43.795   3.671  10.289  0.00  0.00    +0.000 OA
BRANCH   6   5
ATOM      5  C   UNL     1      44.772   3.144   9.395  0.00  0.00    +0.000 C 
BRANCH   5   4
ATOM      4  C   UNL     1      44.747   3.955   8.111  0.00  0.00    +0.000 C 
BRANCH   4   3
ATOM      3  O   UNL     1      46.077   4.100   7.617  0.00  0.00    +0.000 OA
BRANCH   3   2
ATOM      1  C   UNL     1      47.746   2.556   6.891  0.00  0.00    +0.000 C 
ATOM      2  C   UNL     1      46.364   3.114   6.629  0.00  0.00    +0.000 C 
ENDBRANCH   3   2
ENDBRANCH   4   3
ENDBRANCH   5   4
ENDBRANCH   6   5
ENDBRANCH   7   6
ENDBRANCH   8   7
ENDBRANCH   9   8
ENDBRANCH  10   9
ENDBRANCH  11  10
BRANCH  14  15
ATOM     15  C   UNL     1      48.936   7.989  15.861  0.00  0.00    +0.000 C 
BRANCH  15  16
ATOM     16  N   UNL     1      49.903   7.045  16.364  0.00  0.00    +0.000 N 
ATOM     17  C   UNL     1      49.625   6.211  17.424  0.00  0.00    +0.000 C 
ATOM     18  O   UNL     1      48.548   6.197  17.995  0.00  0.00    +0.000 OA
ATOM     32  H   UNL     1      50.877   7.254  16.176  0.00  0.00    +0.000 HD
BRANCH  17  19
ATOM     19  C   UNL     1      50.709   5.288  17.788  0.00  0.00    +0.000 A 
ATOM     20  C   UNL     1      51.851   5.763  18.424  0.00  0.00    +0.000 A 
ATOM     21  S   UNL     1      53.005   4.547  18.749  0.00  0.00    +0.000 S 
ATOM     22  C   UNL     1      52.026   3.349  18.039  0.00  0.00    +0.000 A 
ATOM     23  N   UNL     1      52.447   2.058  17.950  0.00  0.00    +0.000 NA
ATOM     24  C   UNL     1      51.602   1.260  17.383  0.00  0.00    +0.000 A 
ATOM     25  N   UNL     1      50.369   1.635  16.907  0.00  0.00    +0.000 N 
ATOM     26  C   UNL     1      49.888   2.915  17.009  0.00  0.00    +0.000 A 
ATOM     27  O   UNL     1      48.764   3.195  16.638  0.00  0.00    +0.000 OA
ATOM     28  C   UNL     1      50.821   3.861  17.602  0.00  0.00    +0.000 A 
ATOM     33  H   UNL     1      49.739   0.952  16.515  0.00  0.00    +0.000 HD
ENDBRANCH  17  19
ENDBRANCH  15  16
ENDBRANCH  14  15
TORSDOF 12
ENDMDL
MODEL 8
REMARK VINA RESULT:    -5.808      1.894      2.642
REMARK INTER + INTRA:         -10.940
REMARK INTER:                  -9.670
REMARK INTRA:                  -1.270
REMARK UNBOUND:                -1.057
REMARK  Name = 
REMARK  13 active torsions:
REMARK  status: ('A' for Active; 'I' for Inactive)
REMARK    1  A    between atoms: C_1  and  C_2
REMARK    2  A    between atoms: C_2  and  O_3
REMARK    3  A    between atoms: O_3  and  C_4
REMARK    4  A    between atoms: C_4  and  C_5
REMARK    5  A    between atoms: C_5  and  O_6
REMARK    6  A    between atoms: O_6  and  C_7
REMARK    7  A    between atoms: C_7  and  C_8
REMARK    8  A    between atoms: C_8  and  N_9
REMARK    9  A    between atoms: N_9  and  C_10
REMARK   10  A    between atoms: C_10  and  C_11
REMARK   11  A    between atoms: C_14  and  C_15
REMARK   12  A    between atoms: C_15  and  N_16
REMARK   13  A    between atoms: C_17  and  C_19
REMARK                            x       y       z     vdW  Elec       q    Type
REMARK                         _______ _______ _______ _____ _____    ______ ____
ROOT
ATOM     11  C   UNL     1      45.521   7.030  12.188  0.00  0.00    +0.000 A 
ATOM     12  C   UNL     1      45.685   8.323  12.701  0.00  0.00    +0.000 A 
ATOM     13  C   UNL     1      46.895   8.717  13.272  0.00  0.00    +0.000 A 
ATOM     14  C   UNL     1      47.974   7.825  13.345  0.00  0.00    +0.000 A 
ATOM     29  C   UNL     1      47.804   6.529  12.831  0.00  0.00    +0.000 A 
ATOM     30  C   UNL     1      46.601   6.145  12.232  0.00  0.00    +0.000 A 
ENDROOT
BRANCH  11  10
ATOM     10  C   UNL     1      44.174   6.584  11.680  0.00  0.00    +0.000 C 
BRANCH  10   9
ATOM      9  N   UNL     1      43.392   6.032  12.779  0.00  0.00    +0.000 NA
ATOM     31  H   UNL     1      43.929   6.102  13.640  0.00  0.00    +0.000 HD
BRANCH   9   8
ATOM      8  C   UNL     1      43.036   4.639  12.544  0.00  0.00    +0.000 C 
BRANCH   8   7
ATOM      7  C   UNL     1      43.261   4.301  11.072  0.00  0.00    +0.000 C 
BRANCH   7   6
ATOM      6  O   UNL     1      43.904   3.033  10.987  0.00  0.00    +0.000 OA
BRANCH   6   5
ATOM      5  C   UNL     1      44.596   2.900   9.748  0.00  0.00    +0.000 C 
BRANCH   5   4
ATOM      4  C   UNL     1      44.442   4.190   8.961  0.00  0.00    +0.000 C 
BRANCH   4   3
ATOM      3  O   UNL     1      45.522   4.314   8.040  0.00  0.00    +0.000 OA
BRANCH   3   2
ATOM      1  C   UNL     1      46.701   3.187   6.296  0.00  0.00    +0.000 C 
ATOM      2  C   UNL     1      45.982   3.032   7.619  0.00  0.00    +0.000 C 
ENDBRANCH   3   2
ENDBRANCH   4   3
ENDBRANCH   5   4
ENDBRANCH   6   5
ENDBRANCH   7   6
ENDBRANCH   8   7
ENDBRANCH   9   8
ENDBRANCH  10   9
ENDBRANCH  11  10
BRANCH  14  15
ATOM     15  C   UNL     1      49.304   8.220  13.948  0.00  0.00    +0.000 C 
BRANCH  15  16
ATOM     16  N   UNL     1      49.448   7.803  15.320  0.00  0.00    +0.000 N 
ATOM     17  C   UNL     1      50.656   7.384  15.832  0.00  0.00    +0.000 C 
ATOM     18  O   UNL     1      51.682   7.353  15.175  0.00  0.00    +0.000 OA
ATOM     32  H   UNL     1      48.606   7.482  15.784  0.00  0.00    +0.000 HD
BRANCH  17  19
ATOM     19  C   UNL     1      50.635   7.025  17.257  0.00  0.00    +0.000 A 
ATOM     20  C   UNL     1      51.424   7.722  18.167  0.00  0.00    +0.000 A 
ATOM     21  S   UNL     1      51.281   7.149  19.770  0.00  0.00    +0.000 S 
ATOM     22  C   UNL     1      50.174   5.943  19.301  0.00  0.00    +0.000 A 
ATOM     23  N   UNL     1      49.673   5.058  20.205  0.00  0.00    +0.000 NA
ATOM     24  C   UNL     1      48.847   4.197  19.705  0.00  0.00    +0.000 A 
ATOM     25  N   UNL     1      48.471   4.148  18.386  0.00  0.00    +0.000 N 
ATOM     26  C   UNL     1      48.920   5.042  17.448  0.00  0.00    +0.000 A 
ATOM     27  O   UNL     1      48.511   5.010  16.302  0.00  0.00    +0.000 OA
ATOM     28  C   UNL     1      49.885   6.007  17.952  0.00  0.00    +0.000 A 
ATOM     33  H   UNL     1      47.787   3.478  18.070  0.00  0.00    +0.000 HD
ENDBRANCH  17  19
ENDBRANCH  15  16
ENDBRANCH  14  15
TORSDOF 12
ENDMDL
MODEL 9
REMARK VINA RESULT:    -5.684      2.585      3.790
REMARK INTER + INTRA:         -10.729
REMARK INTER:                  -8.839
REMARK INTRA:                  -1.890
REMARK UNBOUND:                -1.057
REMARK  Name = 
REMARK  13 active torsions:
REMARK  status: ('A' for Active; 'I' for Inactive)
REMARK    1  A    between atoms: C_1  and  C_2
REMARK    2  A    between atoms: C_2  and  O_3
REMARK    3  A    between atoms: O_3  and  C_4
REMARK    4  A    between atoms: C_4  and  C_5
REMARK    5  A    between atoms: C_5  and  O_6
REMARK    6  A    between atoms: O_6  and  C_7
REMARK    7  A    between atoms: C_7  and  C_8
REMARK    8  A    between atoms: C_8  and  N_9
REMARK    9  A    between atoms: N_9  and  C_10
REMARK   10  A    between atoms: C_10  and  C_11
REMARK   11  A    between atoms: C_14  and  C_15
REMARK   12  A    between atoms: C_15  and  N_16
REMARK   13  A    between atoms: C_17  and  C_19
REMARK                            x       y       z     vdW  Elec       q    Type
REMARK                         _______ _______ _______ _____ _____    ______ ____
ROOT
ATOM     11  C   UNL     1      45.765   6.863  11.397  0.00  0.00    +0.000 A 
ATOM     12  C   UNL     1      47.154   6.687  11.459  0.00  0.00    +0.000 A 
ATOM     13  C   UNL     1      47.919   7.365  12.406  0.00  0.00    +0.000 A 
ATOM     14  C   UNL     1      47.314   8.242  13.318  0.00  0.00    +0.000 A 
ATOM     29  C   UNL     1      45.922   8.417  13.252  0.00  0.00    +0.000 A 
ATOM     30  C   UNL     1      45.152   7.713  12.321  0.00  0.00    +0.000 A 
ENDROOT
BRANCH  11  10
ATOM     10  C   UNL     1      44.968   6.212  10.296  0.00  0.00    +0.000 C 
BRANCH  10   9
ATOM      9  N   UNL     1      45.564   4.929   9.951  0.00  0.00    +0.000 NA
ATOM     31  H   UNL     1      46.435   5.088   9.450  0.00  0.00    +0.000 HD
BRANCH   9   8
ATOM      8  C   UNL     1      44.674   4.122   9.128  0.00  0.00    +0.000 C 
BRANCH   8   7
ATOM      7  C   UNL     1      44.317   2.840   9.877  0.00  0.00    +0.000 C 
BRANCH   7   6
ATOM      6  O   UNL     1      43.273   3.127  10.804  0.00  0.00    +0.000 OA
BRANCH   6   5
ATOM      5  C   UNL     1      43.687   2.834  12.136  0.00  0.00    +0.000 C 
BRANCH   5   4
ATOM      4  C   UNL     1      43.516   4.081  12.986  0.00  0.00    +0.000 C 
BRANCH   4   3
ATOM      3  O   UNL     1      44.770   4.432  13.568  0.00  0.00    +0.000 OA
BRANCH   3   2
ATOM      1  C   UNL     1      47.082   3.908  13.850  0.00  0.00    +0.000 C 
ATOM      2  C   UNL     1      45.801   3.555  13.124  0.00  0.00    +0.000 C 
ENDBRANCH   3   2
ENDBRANCH   4   3
ENDBRANCH   5   4
ENDBRANCH   6   5
ENDBRANCH   7   6
ENDBRANCH   8   7
ENDBRANCH   9   8
ENDBRANCH  10   9
ENDBRANCH  11  10
BRANCH  14  15
ATOM     15  C   UNL     1      48.111   8.987  14.365  0.00  0.00    +0.000 C 
BRANCH  15  16
ATOM     16  N   UNL     1      48.004   8.403  15.678  0.00  0.00    +0.000 N 
ATOM     17  C   UNL     1      48.792   8.820  16.729  0.00  0.00    +0.000 C 
ATOM     18  O   UNL     1      49.612   9.716  16.630  0.00  0.00    +0.000 OA
ATOM     32  H   UNL     1      47.620   7.466  15.725  0.00  0.00    +0.000 HD
BRANCH  17  19
ATOM     19  C   UNL     1      48.532   8.144  18.007  0.00  0.00    +0.000 A 
ATOM     20  C   UNL     1      48.123   8.875  19.117  0.00  0.00    +0.000 A 
ATOM     21  S   UNL     1      47.890   7.918  20.514  0.00  0.00    +0.000 S 
ATOM     22  C   UNL     1      48.342   6.500  19.687  0.00  0.00    +0.000 A 
ATOM     23  N   UNL     1      48.395   5.300  20.326  0.00  0.00    +0.000 NA
ATOM     24  C   UNL     1      48.758   4.312  19.575  0.00  0.00    +0.000 A 
ATOM     25  N   UNL     1      49.062   4.415  18.239  0.00  0.00    +0.000 N 
ATOM     26  C   UNL     1      48.985   5.596  17.546  0.00  0.00    +0.000 A 
ATOM     27  O   UNL     1      49.196   5.636  16.348  0.00  0.00    +0.000 OA
ATOM     28  C   UNL     1      48.621   6.747  18.358  0.00  0.00    +0.000 A 
ATOM     33  H   UNL     1      49.295   3.596  17.700  0.00  0.00    +0.000 HD
ENDBRANCH  17  19
ENDBRANCH  15  16
ENDBRANCH  14  15
TORSDOF 12
ENDMDL
