MODEL 1
REMARK VINA RESULT:    -5.892      0.000      0.000
REMARK INTER + INTRA:          -6.273
REMARK INTER:                  -6.237
REMARK INTRA:                  -0.036
REMARK UNBOUND:                -0.036
REMARK  Name = 
REMARK  1 active torsions:
REMARK  status: ('A' for Active; 'I' for Inactive)
REMARK    1  A    between atoms: C_2  and  C_4
REMARK                            x       y       z     vdW  Elec       q    Type
REMARK                         _______ _______ _______ _____ _____    ______ ____
ROOT
ATOM      4  C   UNL     1      46.610   2.469   7.481  0.00  0.00    +0.000 A 
ATOM      5  C   UNL     1      45.806   1.812   8.411  0.00  0.00    +0.000 A 
ATOM      6  C   UNL     1      44.913   2.560   9.178  0.00  0.00    +0.000 A 
ATOM      7  C   UNL     1      44.858   3.937   9.002  0.00  0.00    +0.000 A 
ATOM      8  N   UNL     1      43.937   4.701   9.712  0.00  0.00    +0.000 N 
ATOM      9  N   UNL     1      45.632   4.590   8.121  0.00  0.00    +0.000 NA
ATOM     10  C   UNL     1      46.501   3.848   7.387  0.00  0.00    +0.000 A 
ATOM     13  H   UNL     1      43.996   4.542  10.710  0.00  0.00    +0.000 HD
ATOM     14  H   UNL     1      44.110   5.674   9.470  0.00  0.00    +0.000 HD
ENDROOT
BRANCH   4   2
ATOM      1  N   UNL     1      48.739   2.412   6.320  0.00  0.00    +0.000 N 
ATOM      2  C   UNL     1      47.570   1.763   6.610  0.00  0.00    +0.000 C 
ATOM      3  O   UNL     1      47.349   0.635   6.198  0.00  0.00    +0.000 OA
ATOM     11  H   UNL     1      49.436   1.873   5.822  0.00  0.00    +0.000 HD
ATOM     12  H   UNL     1      49.060   3.208   6.852  0.00  0.00    +0.000 HD
ENDBRANCH   4   2
TORSDOF 1
ENDMDL
MODEL 2
REMARK VINA RESULT:    -5.665      2.036      4.040
REMARK INTER + INTRA:          -6.033
REMARK INTER:                  -5.992
REMARK INTRA:                  -0.040
REMARK UNBOUND:                -0.036
REMARK  Name = 
REMARK  1 active torsions:
REMARK  status: ('A' for Active; 'I' for Inactive)
REMARK    1  A    between atoms: C_2  and  C_4
REMARK                            x       y       z     vdW  Elec       q    Type
REMARK                         _______ _______ _______ _____ _____    ______ ____
ROOT
ATOM      4  C   UNL     1      45.334   3.037   8.657  0.00  0.00    +0.000 A 
ATOM      5  C   UNL     1      45.816   1.742   8.480  0.00  0.00    +0.000 A 
ATOM      6  C   UNL     1      46.871   1.531   7.592  0.00  0.00    +0.000 A 
ATOM      7  C   UNL     1      47.404   2.613   6.904  0.00  0.00    +0.000 A 
ATOM      8  N   UNL     1      48.493   2.441   6.056  0.00  0.00    +0.000 N 
ATOM      9  N   UNL     1      46.945   3.867   7.051  0.00  0.00    +0.000 NA
ATOM     10  C   UNL     1      45.913   4.055   7.914  0.00  0.00    +0.000 A 
ATOM     13  H   UNL     1      48.333   1.715   5.369  0.00  0.00    +0.000 HD
ATOM     14  H   UNL     1      48.677   3.343   5.622  0.00  0.00    +0.000 HD
ENDROOT
BRANCH   4   2
ATOM      1  N   UNL     1      43.720   4.630   9.519  0.00  0.00    +0.000 N 
ATOM      2  C   UNL     1      44.236   3.364   9.587  0.00  0.00    +0.000 C 
ATOM      3  O   UNL     1      43.780   2.532  10.357  0.00  0.00    +0.000 OA
ATOM     11  H   UNL     1      42.892   4.804  10.076  0.00  0.00    +0.000 HD
ATOM     12  H   UNL     1      43.885   5.238   8.729  0.00  0.00    +0.000 HD
ENDBRANCH   4   2
TORSDOF 1
ENDMDL
MODEL 3
REMARK VINA RESULT:    -5.634      2.777      4.278
REMARK INTER + INTRA:          -5.999
REMARK INTER:                  -5.970
REMARK INTRA:                  -0.029
REMARK UNBOUND:                -0.036
REMARK  Name = 
REMARK  1 active torsions:
REMARK  status: ('A' for Active; 'I' for Inactive)
REMARK    1  A    between atoms: C_2  and  C_4
REMARK                            x       y       z     vdW  Elec       q    Type
REMARK                         _______ _______ _______ _____ _____    ______ ____
ROOT
ATOM      4  C   UNL     1      44.845   3.249   9.895  0.00  0.00    +0.000 A 
ATOM      5  C   UNL     1      45.241   2.130   9.166  0.00  0.00    +0.000 A 
ATOM      6  C   UNL     1      45.938   2.315   7.972  0.00  0.00    +0.000 A 
ATOM      7  C   UNL     1      46.207   3.607   7.539  0.00  0.00    +0.000 A 
ATOM      8  N   UNL     1      46.950   3.821   6.382  0.00  0.00    +0.000 N 
ATOM      9  N   UNL     1      45.824   4.699   8.220  0.00  0.00    +0.000 NA
ATOM     10  C   UNL     1      45.140   4.501   9.377  0.00  0.00    +0.000 A 
ATOM     13  H   UNL     1      46.570   3.325   5.586  0.00  0.00    +0.000 HD
ATOM     14  H   UNL     1      46.977   4.826   6.228  0.00  0.00    +0.000 HD
ENDROOT
BRANCH   4   2
ATOM      1  N   UNL     1      44.839   2.741  12.268  0.00  0.00    +0.000 N 
ATOM      2  C   UNL     1      44.122   3.157  11.179  0.00  0.00    +0.000 C 
ATOM      3  O   UNL     1      42.946   3.475  11.275  0.00  0.00    +0.000 OA
ATOM     11  H   UNL     1      44.364   2.795  13.160  0.00  0.00    +0.000 HD
ATOM     12  H   UNL     1      45.848   2.734  12.278  0.00  0.00    +0.000 HD
ENDBRANCH   4   2
TORSDOF 1
ENDMDL
MODEL 4
REMARK VINA RESULT:    -5.246      2.636      4.629
REMARK INTER + INTRA:          -5.589
REMARK INTER:                  -5.549
REMARK INTRA:                  -0.040
REMARK UNBOUND:                -0.036
REMARK  Name = 
REMARK  1 active torsions:
REMARK  status: ('A' for Active; 'I' for Inactive)
REMARK    1  A    between atoms: C_2  and  C_4
REMARK                            x       y       z     vdW  Elec       q    Type
REMARK                         _______ _______ _______ _____ _____    ______ ____
ROOT
ATOM      4  C   UNL     1      44.683   3.511   9.505  0.00  0.00    +0.000 A 
ATOM      5  C   UNL     1      45.381   4.315   8.607  0.00  0.00    +0.000 A 
ATOM      6  C   UNL     1      46.270   3.715   7.715  0.00  0.00    +0.000 A 
ATOM      7  C   UNL     1      46.441   2.338   7.754  0.00  0.00    +0.000 A 
ATOM      8  N   UNL     1      47.277   1.706   6.838  0.00  0.00    +0.000 N 
ATOM      9  N   UNL     1      45.787   1.546   8.619  0.00  0.00    +0.000 NA
ATOM     10  C   UNL     1      44.930   2.147   9.486  0.00  0.00    +0.000 A 
ATOM     13  H   UNL     1      48.205   2.109   6.825  0.00  0.00    +0.000 HD
ATOM     14  H   UNL     1      47.294   0.718   7.084  0.00  0.00    +0.000 HD
ENDROOT
BRANCH   4   2
ATOM      1  N   UNL     1      43.499   5.402  10.459  0.00  0.00    +0.000 N 
ATOM      2  C   UNL     1      43.707   4.050  10.473  0.00  0.00    +0.000 C 
ATOM      3  O   UNL     1      43.083   3.318  11.225  0.00  0.00    +0.000 OA
ATOM     11  H   UNL     1      42.744   5.743  11.042  0.00  0.00    +0.000 HD
ATOM     12  H   UNL     1      43.788   5.984   9.686  0.00  0.00    +0.000 HD
ENDBRANCH   4   2
TORSDOF 1
ENDMDL
MODEL 5
REMARK VINA RESULT:    -4.933      3.618      4.929
REMARK INTER + INTRA:          -5.258
REMARK INTER:                  -5.219
REMARK INTRA:                  -0.039
REMARK UNBOUND:                -0.036
REMARK  Name = 
REMARK  1 active torsions:
REMARK  status: ('A' for Active; 'I' for Inactive)
REMARK    1  A    between atoms: C_2  and  C_4
REMARK                            x       y       z     vdW  Elec       q    Type
REMARK                         _______ _______ _______ _____ _____    ______ ____
ROOT
ATOM      4  C   UNL     1      44.998   4.066  10.992  0.00  0.00    +0.000 A 
ATOM      5  C   UNL     1      45.449   5.381  11.091  0.00  0.00    +0.000 A 
ATOM      6  C   UNL     1      46.012   5.812  12.292  0.00  0.00    +0.000 A 
ATOM      7  C   UNL     1      46.098   4.924  13.356  0.00  0.00    +0.000 A 
ATOM      8  N   UNL     1      46.708   5.309  14.547  0.00  0.00    +0.000 N 
ATOM      9  N   UNL     1      45.659   3.657  13.286  0.00  0.00    +0.000 NA
ATOM     10  C   UNL     1      45.106   3.255  12.112  0.00  0.00    +0.000 A 
ATOM     13  H   UNL     1      46.315   6.165  14.918  0.00  0.00    +0.000 HD
ATOM     14  H   UNL     1      46.610   4.531  15.195  0.00  0.00    +0.000 HD
ENDROOT
BRANCH   4   2
ATOM      1  N   UNL     1      44.038   4.404   8.790  0.00  0.00    +0.000 N 
ATOM      2  C   UNL     1      44.406   3.511   9.760  0.00  0.00    +0.000 C 
ATOM      3  O   UNL     1      44.285   2.307   9.594  0.00  0.00    +0.000 OA
ATOM     11  H   UNL     1      43.745   4.006   7.906  0.00  0.00    +0.000 HD
ATOM     12  H   UNL     1      44.367   5.359   8.783  0.00  0.00    +0.000 HD
ENDBRANCH   4   2
TORSDOF 1
ENDMDL
MODEL 6
REMARK VINA RESULT:    -4.932      4.357      5.492
REMARK INTER + INTRA:          -5.257
REMARK INTER:                  -5.221
REMARK INTRA:                  -0.036
REMARK UNBOUND:                -0.036
REMARK  Name = 
REMARK  1 active torsions:
REMARK  status: ('A' for Active; 'I' for Inactive)
REMARK    1  A    between atoms: C_2  and  C_4
REMARK                            x       y       z     vdW  Elec       q    Type
REMARK                         _______ _______ _______ _____ _____    ______ ____
ROOT
ATOM      4  C   UNL     1      46.013   4.249  12.714  0.00  0.00    +0.000 A 
ATOM      5  C   UNL     1      45.247   3.169  12.281  0.00  0.00    +0.000 A 
ATOM      6  C   UNL     1      44.534   3.283  11.088  0.00  0.00    +0.000 A 
ATOM      7  C   UNL     1      44.599   4.471  10.372  0.00  0.00    +0.000 A 
ATOM      8  N   UNL     1      43.945   4.594   9.150  0.00  0.00    +0.000 N 
ATOM      9  N   UNL     1      45.321   5.528  10.778  0.00  0.00    +0.000 NA
ATOM     10  C   UNL     1      46.004   5.403  11.945  0.00  0.00    +0.000 A 
ATOM     13  H   UNL     1      42.964   4.351   9.214  0.00  0.00    +0.000 HD
ATOM     14  H   UNL     1      44.081   5.552   8.835  0.00  0.00    +0.000 HD
ENDROOT
BRANCH   4   2
ATOM      1  N   UNL     1      46.887   5.376  14.677  0.00  0.00    +0.000 N 
ATOM      2  C   UNL     1      46.817   4.217  13.952  0.00  0.00    +0.000 C 
ATOM      3  O   UNL     1      47.363   3.194  14.334  0.00  0.00    +0.000 OA
ATOM     11  H   UNL     1      47.341   5.309  15.579  0.00  0.00    +0.000 HD
ATOM     12  H   UNL     1      46.243   6.140  14.536  0.00  0.00    +0.000 HD
ENDBRANCH   4   2
TORSDOF 1
ENDMDL
MODEL 7
REMARK VINA RESULT:    -4.796      6.018      6.459
REMARK INTER + INTRA:          -5.113
REMARK INTER:                  -5.084
REMARK INTRA:                  -0.029
REMARK UNBOUND:                -0.036
REMARK  Name = 
REMARK  1 active torsions:
REMARK  status: ('A' for Active; 'I' for Inactive)
REMARK    1  A    between atoms: C_2  and  C_4
REMARK                            x       y       z     vdW  Elec       q    Type
REMARK                         _______ _______ _______ _____ _____    ______ ____
ROOT
ATOM      4  C   UNL     1      46.027   5.081  13.414  0.00  0.00    +0.000 A 
ATOM      5  C   UNL     1      46.472   6.138  12.622  0.00  0.00    +0.000 A 
ATOM      6  C   UNL     1      45.557   6.800  11.804  0.00  0.00    +0.000 A 
ATOM      7  C   UNL     1      44.232   6.383  11.795  0.00  0.00    +0.000 A 
ATOM      8  N   UNL     1      43.286   7.061  11.034  0.00  0.00    +0.000 N 
ATOM      9  N   UNL     1      43.786   5.359  12.541  0.00  0.00    +0.000 NA
ATOM     10  C   UNL     1      44.691   4.720  13.326  0.00  0.00    +0.000 A 
ATOM     13  H   UNL     1      43.565   7.149  10.065  0.00  0.00    +0.000 HD
ATOM     14  H   UNL     1      42.408   6.556  11.133  0.00  0.00    +0.000 HD
ENDROOT
BRANCH   4   2
ATOM      1  N   UNL     1      47.254   4.942  15.503  0.00  0.00    +0.000 N 
ATOM      2  C   UNL     1      46.915   4.332  14.325  0.00  0.00    +0.000 C 
ATOM      3  O   UNL     1      47.297   3.203  14.060  0.00  0.00    +0.000 OA
ATOM     11  H   UNL     1      47.763   4.373  16.168  0.00  0.00    +0.000 HD
ATOM     12  H   UNL     1      46.748   5.738  15.863  0.00  0.00    +0.000 HD
ENDBRANCH   4   2
TORSDOF 1
ENDMDL
MODEL 8
REMARK VINA RESULT:    -4.616      3.876      5.437
REMARK INTER + INTRA:          -4.922
REMARK INTER:                  -4.884
REMARK INTRA:                  -0.038
REMARK UNBOUND:                -0.036
REMARK  Name = 
REMARK  1 active torsions:
REMARK  status: ('A' for Active; 'I' for Inactive)
REMARK    1  A    between atoms: C_2  and  C_4
REMARK                            x       y       z     vdW  Elec       q    Type
REMARK                         _______ _______ _______ _____ _____    ______ ____
ROOT
ATOM      4  C   UNL     1      45.419   4.748  11.789  0.00  0.00    +0.000 A 
ATOM      5  C   UNL     1      45.777   5.526  10.690  0.00  0.00    +0.000 A 
ATOM      6  C   UNL     1      45.430   5.089   9.412  0.00  0.00    +0.000 A 
ATOM      7  C   UNL     1      44.748   3.888   9.269  0.00  0.00    +0.000 A 
ATOM      8  N   UNL     1      44.339   3.456   8.012  0.00  0.00    +0.000 N 
ATOM      9  N   UNL     1      44.405   3.117  10.314  0.00  0.00    +0.000 NA
ATOM     10  C   UNL     1      44.756   3.553  11.551  0.00  0.00    +0.000 A 
ATOM     13  H   UNL     1      45.102   3.432   7.348  0.00  0.00    +0.000 HD
ATOM     14  H   UNL     1      43.913   2.539   8.137  0.00  0.00    +0.000 HD
ENDROOT
BRANCH   4   2
ATOM      1  N   UNL     1      45.892   6.469  13.432  0.00  0.00    +0.000 N 
ATOM      2  C   UNL     1      45.724   5.135  13.180  0.00  0.00    +0.000 C 
ATOM      3  O   UNL     1      45.783   4.306  14.076  0.00  0.00    +0.000 OA
ATOM     11  H   UNL     1      45.982   6.731  14.406  0.00  0.00    +0.000 HD
ATOM     12  H   UNL     1      45.588   7.182  12.785  0.00  0.00    +0.000 HD
ENDBRANCH   4   2
TORSDOF 1
ENDMDL
MODEL 9
REMARK VINA RESULT:    -4.582      2.742      3.695
REMARK INTER + INTRA:          -4.886
REMARK INTER:                  -4.850
REMARK INTRA:                  -0.036
REMARK UNBOUND:                -0.036
REMARK  Name = 
REMARK  1 active torsions:
REMARK  status: ('A' for Active; 'I' for Inactive)
REMARK    1  A    between atoms: C_2  and  C_4
REMARK                            x       y       z     vdW  Elec       q    Type
REMARK                         _______ _______ _______ _____ _____    ______ ____
ROOT
ATOM      4  C   UNL     1      44.564   3.458  10.071  0.00  0.00    +0.000 A 
ATOM      5  C   UNL     1      44.713   2.981  11.372  0.00  0.00    +0.000 A 
ATOM      6  C   UNL     1      44.098   3.670  12.417  0.00  0.00    +0.000 A 
ATOM      7  C   UNL     1      43.365   4.815  12.134  0.00  0.00    +0.000 A 
ATOM      8  N   UNL     1      42.693   5.490  13.148  0.00  0.00    +0.000 N 
ATOM      9  N   UNL     1      43.220   5.298  10.889  0.00  0.00    +0.000 NA
ATOM     10  C   UNL     1      43.831   4.619   9.883  0.00  0.00    +0.000 A 
ATOM     13  H   UNL     1      43.303   5.724  13.921  0.00  0.00    +0.000 HD
ATOM     14  H   UNL     1      42.275   6.317  12.728  0.00  0.00    +0.000 HD
ENDROOT
BRANCH   4   2
ATOM      1  N   UNL     1      45.221   1.421   8.927  0.00  0.00    +0.000 N 
ATOM      2  C   UNL     1      45.159   2.788   8.898  0.00  0.00    +0.000 C 
ATOM      3  O   UNL     1      45.542   3.421   7.926  0.00  0.00    +0.000 OA
ATOM     11  H   UNL     1      45.520   0.970   8.071  0.00  0.00    +0.000 HD
ATOM     12  H   UNL     1      44.679   0.871   9.578  0.00  0.00    +0.000 HD
ENDBRANCH   4   2
TORSDOF 1
ENDMDL
