MODEL 1
REMARK VINA RESULT:    -6.781      0.000      0.000
REMARK INTER + INTRA:         -11.936
REMARK INTER:                 -10.944
REMARK INTRA:                  -0.992
REMARK UNBOUND:                -0.992
REMARK  Name = 
REMARK  11 active torsions:
REMARK  status: ('A' for Active; 'I' for Inactive)
REMARK    1  A    between atoms: C_2  and  C_19
REMARK    2  A    between atoms: N_3  and  C_4
REMARK    3  A    between atoms: C_4  and  C_5
REMARK    4  A    between atoms: C_8  and  C_9
REMARK    5  A    between atoms: C_9  and  N_10
REMARK    6  A    between atoms: N_10  and  C_11
REMARK    7  A    between atoms: C_11  and  C_12
REMARK    8  A    between atoms: C_12  and  O_13
REMARK    9  A    between atoms: O_13  and  C_14
REMARK   10  A    between atoms: C_14  and  C_15
REMARK   11  A    between atoms: C_15  and  O_16
REMARK                            x       y       z     vdW  Elec       q    Type
REMARK                         _______ _______ _______ _____ _____    ______ ____
ROOT
ATOM      4  C   UNL     1      47.304   7.695  13.383  0.00  0.00    +0.000 C 
ENDROOT
BRANCH   4   5
ATOM      5  C   UNL     1      46.512   6.706  12.567  0.00  0.00    +0.000 A 
ATOM      6  C   UNL     1      45.742   5.719  13.196  0.00  0.00    +0.000 A 
ATOM      7  C   UNL     1      44.997   4.807  12.442  0.00  0.00    +0.000 A 
ATOM      8  C   UNL     1      45.014   4.851  11.040  0.00  0.00    +0.000 A 
ATOM     17  C   UNL     1      45.816   5.813  10.412  0.00  0.00    +0.000 A 
ATOM     18  C   UNL     1      46.562   6.727  11.167  0.00  0.00    +0.000 A 
BRANCH   8   9
ATOM      9  C   UNL     1      44.198   3.870  10.225  0.00  0.00    +0.000 C 
BRANCH   9  10
ATOM     10  N   UNL     1      44.148   4.264   8.816  0.00  0.00    +0.000 NA
ATOM     30  H   UNL     1      44.533   5.205   8.732  0.00  0.00    +0.000 HD
BRANCH  10  11
ATOM     11  C   UNL     1      44.910   3.339   7.971  0.00  0.00    +0.000 C 
BRANCH  11  12
ATOM     12  C   UNL     1      45.297   2.078   8.757  0.00  0.00    +0.000 C 
BRANCH  12  13
ATOM     13  O   UNL     1      46.316   1.352   8.057  0.00  0.00    +0.000 OA
BRANCH  13  14
ATOM     14  C   UNL     1      47.075   2.237   7.217  0.00  0.00    +0.000 C 
BRANCH  14  15
ATOM     15  C   UNL     1      47.244   1.601   5.840  0.00  0.00    +0.000 C 
BRANCH  15  16
ATOM     16  O   UNL     1      48.620   1.592   5.469  0.00  0.00    +0.000 OA
ATOM     31  H   UNL     1      48.631   1.331   4.527  0.00  0.00    +0.000 HD
ENDBRANCH  15  16
ENDBRANCH  14  15
ENDBRANCH  13  14
ENDBRANCH  12  13
ENDBRANCH  11  12
ENDBRANCH  10  11
ENDBRANCH   9  10
ENDBRANCH   8   9
ENDBRANCH   4   5
BRANCH   4   3
ATOM      1  O   UNL     1      49.852   6.973  14.276  0.00  0.00    +0.000 OA
ATOM      2  C   UNL     1      48.908   6.898  15.060  0.00  0.00    +0.000 C 
ATOM      3  N   UNL     1      47.616   7.156  14.680  0.00  0.00    +0.000 N 
ATOM     29  H   UNL     1      46.910   7.285  15.396  0.00  0.00    +0.000 HD
BRANCH   2  19
ATOM     19  C   UNL     1      49.096   6.469  16.451  0.00  0.00    +0.000 A 
ATOM     20  C   UNL     1      49.687   7.324  17.373  0.00  0.00    +0.000 A 
ATOM     21  S   UNL     1      49.851   6.641  18.929  0.00  0.00    +0.000 S 
ATOM     22  C   UNL     1      49.090   5.200  18.436  0.00  0.00    +0.000 A 
ATOM     23  N   UNL     1      48.888   4.178  19.313  0.00  0.00    +0.000 NA
ATOM     24  C   UNL     1      48.271   3.161  18.812  0.00  0.00    +0.000 A 
ATOM     25  N   UNL     1      47.839   3.068  17.514  0.00  0.00    +0.000 N 
ATOM     26  C   UNL     1      48.050   4.061  16.589  0.00  0.00    +0.000 A 
ATOM     27  O   UNL     1      47.692   3.924  15.423  0.00  0.00    +0.000 OA
ATOM     28  C   UNL     1      48.731   5.231  17.102  0.00  0.00    +0.000 A 
ATOM     32  H   UNL     1      47.372   2.239  17.180  0.00  0.00    +0.000 HD
ENDBRANCH   2  19
ENDBRANCH   4   3
TORSDOF 11
ENDMDL
MODEL 2
REMARK VINA RESULT:    -6.590      1.830      2.537
REMARK INTER + INTRA:         -11.628
REMARK INTER:                 -10.734
REMARK INTRA:                  -0.893
REMARK UNBOUND:                -0.992
REMARK  Name = 
REMARK  11 active torsions:
REMARK  status: ('A' for Active; 'I' for Inactive)
REMARK    1  A    between atoms: C_2  and  C_19
REMARK    2  A    between atoms: N_3  and  C_4
REMARK    3  A    between atoms: C_4  and  C_5
REMARK    4  A    between atoms: C_8  and  C_9
REMARK    5  A    between atoms: C_9  and  N_10
REMARK    6  A    between atoms: N_10  and  C_11
REMARK    7  A    between atoms: C_11  and  C_12
REMARK    8  A    between atoms: C_12  and  O_13
REMARK    9  A    between atoms: O_13  and  C_14
REMARK   10  A    between atoms: C_14  and  C_15
REMARK   11  A    between atoms: C_15  and  O_16
REMARK                            x       y       z     vdW  Elec       q    Type
REMARK                         _______ _______ _______ _____ _____    ______ ____
ROOT
ATOM      4  C   UNL     1      47.876   7.029  13.660  0.00  0.00    +0.000 C 
ENDROOT
BRANCH   4   5
ATOM      5  C   UNL     1      46.867   6.265  12.842  0.00  0.00    +0.000 A 
ATOM      6  C   UNL     1      46.509   6.706  11.562  0.00  0.00    +0.000 A 
ATOM      7  C   UNL     1      45.581   5.993  10.795  0.00  0.00    +0.000 A 
ATOM      8  C   UNL     1      44.980   4.829  11.296  0.00  0.00    +0.000 A 
ATOM     17  C   UNL     1      45.309   4.413  12.593  0.00  0.00    +0.000 A 
ATOM     18  C   UNL     1      46.237   5.126  13.360  0.00  0.00    +0.000 A 
BRANCH   8   9
ATOM      9  C   UNL     1      43.984   4.053  10.461  0.00  0.00    +0.000 C 
BRANCH   9  10
ATOM     10  N   UNL     1      44.058   4.439   9.051  0.00  0.00    +0.000 NA
ATOM     30  H   UNL     1      44.498   5.358   8.993  0.00  0.00    +0.000 HD
BRANCH  10  11
ATOM     11  C   UNL     1      44.830   3.470   8.266  0.00  0.00    +0.000 C 
BRANCH  11  12
ATOM     12  C   UNL     1      44.848   2.101   8.960  0.00  0.00    +0.000 C 
BRANCH  12  13
ATOM     13  O   UNL     1      45.980   1.339   8.523  0.00  0.00    +0.000 OA
BRANCH  13  14
ATOM     14  C   UNL     1      46.710   2.059   7.516  0.00  0.00    +0.000 C 
BRANCH  14  15
ATOM     15  C   UNL     1      47.675   1.107   6.817  0.00  0.00    +0.000 C 
BRANCH  15  16
ATOM     16  O   UNL     1      48.407   1.801   5.810  0.00  0.00    +0.000 OA
ATOM     31  H   UNL     1      48.353   2.745   6.056  0.00  0.00    +0.000 HD
ENDBRANCH  15  16
ENDBRANCH  14  15
ENDBRANCH  13  14
ENDBRANCH  12  13
ENDBRANCH  11  12
ENDBRANCH  10  11
ENDBRANCH   9  10
ENDBRANCH   8   9
ENDBRANCH   4   5
BRANCH   4   3
ATOM      1  O   UNL     1      50.098   6.602  15.301  0.00  0.00    +0.000 OA
ATOM      2  C   UNL     1      48.975   6.505  15.791  0.00  0.00    +0.000 C 
ATOM      3  N   UNL     1      47.834   6.620  15.040  0.00  0.00    +0.000 N 
ATOM     29  H   UNL     1      46.945   6.742  15.512  0.00  0.00    +0.000 HD
BRANCH   2  19
ATOM     19  C   UNL     1      48.780   6.203  17.214  0.00  0.00    +0.000 A 
ATOM     20  C   UNL     1      49.090   4.944  17.711  0.00  0.00    +0.000 A 
ATOM     21  S   UNL     1      48.765   4.769  19.378  0.00  0.00    +0.000 S 
ATOM     22  C   UNL     1      48.248   6.386  19.502  0.00  0.00    +0.000 A 
ATOM     23  N   UNL     1      47.843   6.903  20.694  0.00  0.00    +0.000 NA
ATOM     24  C   UNL     1      47.510   8.150  20.649  0.00  0.00    +0.000 A 
ATOM     25  N   UNL     1      47.541   8.928  19.520  0.00  0.00    +0.000 N 
ATOM     26  C   UNL     1      47.913   8.439  18.292  0.00  0.00    +0.000 A 
ATOM     27  O   UNL     1      47.883   9.152  17.293  0.00  0.00    +0.000 OA
ATOM     28  C   UNL     1      48.306   7.046  18.289  0.00  0.00    +0.000 A 
ATOM     32  H   UNL     1      47.257   9.895  19.548  0.00  0.00    +0.000 HD
ENDBRANCH   2  19
ENDBRANCH   4   3
TORSDOF 11
ENDMDL
MODEL 3
REMARK VINA RESULT:    -6.463      4.413      9.198
REMARK INTER + INTRA:         -11.423
REMARK INTER:                 -10.569
REMARK INTRA:                  -0.853
REMARK UNBOUND:                -0.992
REMARK  Name = 
REMARK  11 active torsions:
REMARK  status: ('A' for Active; 'I' for Inactive)
REMARK    1  A    between atoms: C_2  and  C_19
REMARK    2  A    between atoms: N_3  and  C_4
REMARK    3  A    between atoms: C_4  and  C_5
REMARK    4  A    between atoms: C_8  and  C_9
REMARK    5  A    between atoms: C_9  and  N_10
REMARK    6  A    between atoms: N_10  and  C_11
REMARK    7  A    between atoms: C_11  and  C_12
REMARK    8  A    between atoms: C_12  and  O_13
REMARK    9  A    between atoms: O_13  and  C_14
REMARK   10  A    between atoms: C_14  and  C_15
REMARK   11  A    between atoms: C_15  and  O_16
REMARK                            x       y       z     vdW  Elec       q    Type
REMARK                         _______ _______ _______ _____ _____    ______ ____
ROOT
ATOM      4  C   UNL     1      47.209   3.419  16.830  0.00  0.00    +0.000 C 
ENDROOT
BRANCH   4   5
ATOM      5  C   UNL     1      48.681   3.414  17.150  0.00  0.00    +0.000 A 
ATOM      6  C   UNL     1      49.339   4.603  17.492  0.00  0.00    +0.000 A 
ATOM      7  C   UNL     1      50.703   4.601  17.800  0.00  0.00    +0.000 A 
ATOM      8  C   UNL     1      51.446   3.411  17.761  0.00  0.00    +0.000 A 
ATOM     17  C   UNL     1      50.795   2.230  17.379  0.00  0.00    +0.000 A 
ATOM     18  C   UNL     1      49.430   2.232  17.071  0.00  0.00    +0.000 A 
BRANCH   8   9
ATOM      9  C   UNL     1      52.920   3.408  18.106  0.00  0.00    +0.000 C 
BRANCH   9  10
ATOM     10  N   UNL     1      53.241   2.340  19.054  0.00  0.00    +0.000 NA
ATOM     30  H   UNL     1      52.849   1.467  18.699  0.00  0.00    +0.000 HD
BRANCH  10  11
ATOM     11  C   UNL     1      54.690   2.196  19.233  0.00  0.00    +0.000 C 
BRANCH  11  12
ATOM     12  C   UNL     1      55.146   0.780  18.852  0.00  0.00    +0.000 C 
BRANCH  12  13
ATOM     13  O   UNL     1      54.064  -0.146  19.006  0.00  0.00    +0.000 OA
BRANCH  13  14
ATOM     14  C   UNL     1      54.284  -1.313  18.197  0.00  0.00    +0.000 C 
BRANCH  14  15
ATOM     15  C   UNL     1      54.978  -0.903  16.902  0.00  0.00    +0.000 C 
BRANCH  15  16
ATOM     16  O   UNL     1      54.045  -0.902  15.824  0.00  0.00    +0.000 OA
ATOM     31  H   UNL     1      53.402  -1.606  16.038  0.00  0.00    +0.000 HD
ENDBRANCH  15  16
ENDBRANCH  14  15
ENDBRANCH  13  14
ENDBRANCH  12  13
ENDBRANCH  11  12
ENDBRANCH  10  11
ENDBRANCH   9  10
ENDBRANCH   8   9
ENDBRANCH   4   5
BRANCH   4   3
ATOM      1  O   UNL     1      47.219   3.052  14.060  0.00  0.00    +0.000 OA
ATOM      2  C   UNL     1      46.859   4.137  14.510  0.00  0.00    +0.000 C 
ATOM      3  N   UNL     1      46.900   4.426  15.850  0.00  0.00    +0.000 N 
ATOM     29  H   UNL     1      46.404   5.242  16.192  0.00  0.00    +0.000 HD
BRANCH   2  19
ATOM     19  C   UNL     1      46.409   5.224  13.632  0.00  0.00    +0.000 A 
ATOM     20  C   UNL     1      47.242   6.304  13.373  0.00  0.00    +0.000 A 
ATOM     21  S   UNL     1      46.537   7.483  12.360  0.00  0.00    +0.000 S 
ATOM     22  C   UNL     1      45.114   6.564  12.191  0.00  0.00    +0.000 A 
ATOM     23  N   UNL     1      44.083   7.002  11.416  0.00  0.00    +0.000 NA
ATOM     24  C   UNL     1      43.082   6.189  11.352  0.00  0.00    +0.000 A 
ATOM     25  N   UNL     1      43.013   4.979  11.994  0.00  0.00    +0.000 N 
ATOM     26  C   UNL     1      44.015   4.513  12.809  0.00  0.00    +0.000 A 
ATOM     27  O   UNL     1      43.898   3.447  13.406  0.00  0.00    +0.000 OA
ATOM     28  C   UNL     1      45.168   5.384  12.908  0.00  0.00    +0.000 A 
ATOM     32  H   UNL     1      42.196   4.394  11.912  0.00  0.00    +0.000 HD
ENDBRANCH   2  19
ENDBRANCH   4   3
TORSDOF 11
ENDMDL
MODEL 4
REMARK VINA RESULT:    -6.410      2.031      2.658
REMARK INTER + INTRA:         -11.337
REMARK INTER:                  -9.956
REMARK INTRA:                  -1.381
REMARK UNBOUND:                -0.992
REMARK  Name = 
REMARK  11 active torsions:
REMARK  status: ('A' for Active; 'I' for Inactive)
REMARK    1  A    between atoms: C_2  and  C_19
REMARK    2  A    between atoms: N_3  and  C_4
REMARK    3  A    between atoms: C_4  and  C_5
REMARK    4  A    between atoms: C_8  and  C_9
REMARK    5  A    between atoms: C_9  and  N_10
REMARK    6  A    between atoms: N_10  and  C_11
REMARK    7  A    between atoms: C_11  and  C_12
REMARK    8  A    between atoms: C_12  and  O_13
REMARK    9  A    between atoms: O_13  and  C_14
REMARK   10  A    between atoms: C_14  and  C_15
REMARK   11  A    between atoms: C_15  and  O_16
REMARK                            x       y       z     vdW  Elec       q    Type
REMARK                         _______ _______ _______ _____ _____    ______ ____
ROOT
ATOM      4  C   UNL     1      48.863   7.961  13.058  0.00  0.00    +0.000 C 
ENDROOT
BRANCH   4   5
ATOM      5  C   UNL     1      47.462   7.746  12.547  0.00  0.00    +0.000 A 
ATOM      6  C   UNL     1      46.442   8.650  12.869  0.00  0.00    +0.000 A 
ATOM      7  C   UNL     1      45.142   8.461  12.387  0.00  0.00    +0.000 A 
ATOM      8  C   UNL     1      44.829   7.355  11.583  0.00  0.00    +0.000 A 
ATOM     17  C   UNL     1      45.842   6.430  11.296  0.00  0.00    +0.000 A 
ATOM     18  C   UNL     1      47.143   6.619  11.778  0.00  0.00    +0.000 A 
BRANCH   8   9
ATOM      9  C   UNL     1      43.425   7.157  11.053  0.00  0.00    +0.000 C 
BRANCH   9  10
ATOM     10  N   UNL     1      43.143   5.740  10.815  0.00  0.00    +0.000 NA
ATOM     30  H   UNL     1      43.957   5.323  10.363  0.00  0.00    +0.000 HD
BRANCH  10  11
ATOM     11  C   UNL     1      42.853   5.031  12.066  0.00  0.00    +0.000 C 
BRANCH  11  12
ATOM     12  C   UNL     1      43.270   3.557  11.964  0.00  0.00    +0.000 C 
BRANCH  12  13
ATOM     13  O   UNL     1      43.386   3.170  10.590  0.00  0.00    +0.000 OA
BRANCH  13  14
ATOM     14  C   UNL     1      44.768   3.045  10.219  0.00  0.00    +0.000 C 
BRANCH  14  15
ATOM     15  C   UNL     1      44.910   3.279   8.718  0.00  0.00    +0.000 C 
BRANCH  15  16
ATOM     16  O   UNL     1      44.968   4.676   8.442  0.00  0.00    +0.000 OA
ATOM     31  H   UNL     1      44.039   4.957   8.335  0.00  0.00    +0.000 HD
ENDBRANCH  15  16
ENDBRANCH  14  15
ENDBRANCH  13  14
ENDBRANCH  12  13
ENDBRANCH  11  12
ENDBRANCH  10  11
ENDBRANCH   9  10
ENDBRANCH   8   9
ENDBRANCH   4   5
BRANCH   4   3
ATOM      1  O   UNL     1      48.533   8.726  15.726  0.00  0.00    +0.000 OA
ATOM      2  C   UNL     1      48.863   7.568  15.481  0.00  0.00    +0.000 C 
ATOM      3  N   UNL     1      49.123   7.133  14.207  0.00  0.00    +0.000 N 
ATOM     29  H   UNL     1      49.186   6.136  14.031  0.00  0.00    +0.000 HD
BRANCH   2  19
ATOM     19  C   UNL     1      49.056   6.580  16.549  0.00  0.00    +0.000 A 
ATOM     20  C   UNL     1      49.903   6.857  17.614  0.00  0.00    +0.000 A 
ATOM     21  S   UNL     1      50.028   5.579  18.738  0.00  0.00    +0.000 S 
ATOM     22  C   UNL     1      48.912   4.633  17.867  0.00  0.00    +0.000 A 
ATOM     23  N   UNL     1      48.547   3.397  18.306  0.00  0.00    +0.000 NA
ATOM     24  C   UNL     1      47.670   2.806  17.566  0.00  0.00    +0.000 A 
ATOM     25  N   UNL     1      47.125   3.335  16.424  0.00  0.00    +0.000 N 
ATOM     26  C   UNL     1      47.488   4.563  15.929  0.00  0.00    +0.000 A 
ATOM     27  O   UNL     1      47.015   4.984  14.877  0.00  0.00    +0.000 OA
ATOM     28  C   UNL     1      48.464   5.273  16.728  0.00  0.00    +0.000 A 
ATOM     32  H   UNL     1      46.450   2.817  15.882  0.00  0.00    +0.000 HD
ENDBRANCH   2  19
ENDBRANCH   4   3
TORSDOF 11
ENDMDL
MODEL 5
REMARK VINA RESULT:    -6.248      3.961      8.164
REMARK INTER + INTRA:         -11.075
REMARK INTER:                  -9.956
REMARK INTRA:                  -1.118
REMARK UNBOUND:                -0.992
REMARK  Name = 
REMARK  11 active torsions:
REMARK  status: ('A' for Active; 'I' for Inactive)
REMARK    1  A    between atoms: C_2  and  C_19
REMARK    2  A    between atoms: N_3  and  C_4
REMARK    3  A    between atoms: C_4  and  C_5
REMARK    4  A    between atoms: C_8  and  C_9
REMARK    5  A    between atoms: C_9  and  N_10
REMARK    6  A    between atoms: N_10  and  C_11
REMARK    7  A    between atoms: C_11  and  C_12
REMARK    8  A    between atoms: C_12  and  O_13
REMARK    9  A    between atoms: O_13  and  C_14
REMARK   10  A    between atoms: C_14  and  C_15
REMARK   11  A    between atoms: C_15  and  O_16
REMARK                            x       y       z     vdW  Elec       q    Type
REMARK                         _______ _______ _______ _____ _____    ______ ____
ROOT
ATOM      4  C   UNL     1      48.266   8.025  12.162  0.00  0.00    +0.000 C 
ENDROOT
BRANCH   4   5
ATOM      5  C   UNL     1      48.981   7.678  13.443  0.00  0.00    +0.000 A 
ATOM      6  C   UNL     1      50.285   8.136  13.676  0.00  0.00    +0.000 A 
ATOM      7  C   UNL     1      50.947   7.826  14.868  0.00  0.00    +0.000 A 
ATOM      8  C   UNL     1      50.327   7.040  15.850  0.00  0.00    +0.000 A 
ATOM     17  C   UNL     1      49.039   6.549  15.597  0.00  0.00    +0.000 A 
ATOM     18  C   UNL     1      48.375   6.859  14.404  0.00  0.00    +0.000 A 
BRANCH   8   9
ATOM      9  C   UNL     1      51.041   6.714  17.145  0.00  0.00    +0.000 C 
BRANCH   9  10
ATOM     10  N   UNL     1      51.654   5.385  17.093  0.00  0.00    +0.000 NA
ATOM     30  H   UNL     1      52.658   5.490  17.242  0.00  0.00    +0.000 HD
BRANCH  10  11
ATOM     11  C   UNL     1      51.092   4.492  18.110  0.00  0.00    +0.000 C 
BRANCH  11  12
ATOM     12  C   UNL     1      50.747   3.125  17.503  0.00  0.00    +0.000 C 
BRANCH  12  13
ATOM     13  O   UNL     1      49.410   2.749  17.856  0.00  0.00    +0.000 OA
BRANCH  13  14
ATOM     14  C   UNL     1      48.575   2.711  16.688  0.00  0.00    +0.000 C 
BRANCH  14  15
ATOM     15  C   UNL     1      47.314   3.532  16.944  0.00  0.00    +0.000 C 
BRANCH  15  16
ATOM     16  O   UNL     1      46.404   2.794  17.755  0.00  0.00    +0.000 OA
ATOM     31  H   UNL     1      45.522   3.167  17.557  0.00  0.00    +0.000 HD
ENDBRANCH  15  16
ENDBRANCH  14  15
ENDBRANCH  13  14
ENDBRANCH  12  13
ENDBRANCH  11  12
ENDBRANCH  10  11
ENDBRANCH   9  10
ENDBRANCH   8   9
ENDBRANCH   4   5
BRANCH   4   3
ATOM      1  O   UNL     1      45.497   7.853  11.825  0.00  0.00    +0.000 OA
ATOM      2  C   UNL     1      46.197   6.916  11.447  0.00  0.00    +0.000 C 
ATOM      3  N   UNL     1      47.553   6.885  11.647  0.00  0.00    +0.000 N 
ATOM     29  H   UNL     1      48.110   6.205  11.143  0.00  0.00    +0.000 HD
BRANCH   2  19
ATOM     19  C   UNL     1      45.616   5.732  10.802  0.00  0.00    +0.000 A 
ATOM     20  C   UNL     1      45.829   5.498   9.449  0.00  0.00    +0.000 A 
ATOM     21  S   UNL     1      45.049   4.095   8.869  0.00  0.00    +0.000 S 
ATOM     22  C   UNL     1      44.444   3.725  10.416  0.00  0.00    +0.000 A 
ATOM     23  N   UNL     1      43.691   2.611  10.628  0.00  0.00    +0.000 NA
ATOM     24  C   UNL     1      43.328   2.438  11.855  0.00  0.00    +0.000 A 
ATOM     25  N   UNL     1      43.646   3.278  12.891  0.00  0.00    +0.000 N 
ATOM     26  C   UNL     1      44.376   4.428  12.717  0.00  0.00    +0.000 A 
ATOM     27  O   UNL     1      44.600   5.181  13.660  0.00  0.00    +0.000 OA
ATOM     28  C   UNL     1      44.817   4.665  11.359  0.00  0.00    +0.000 A 
ATOM     32  H   UNL     1      43.321   3.092  13.828  0.00  0.00    +0.000 HD
ENDBRANCH   2  19
ENDBRANCH   4   3
TORSDOF 11
ENDMDL
MODEL 6
REMARK VINA RESULT:    -6.179      3.135      8.514
REMARK INTER + INTRA:         -10.964
REMARK INTER:                  -9.964
REMARK INTRA:                  -0.999
REMARK UNBOUND:                -0.992
REMARK  Name = 
REMARK  11 active torsions:
REMARK  status: ('A' for Active; 'I' for Inactive)
REMARK    1  A    between atoms: C_2  and  C_19
REMARK    2  A    between atoms: N_3  and  C_4
REMARK    3  A    between atoms: C_4  and  C_5
REMARK    4  A    between atoms: C_8  and  C_9
REMARK    5  A    between atoms: C_9  and  N_10
REMARK    6  A    between atoms: N_10  and  C_11
REMARK    7  A    between atoms: C_11  and  C_12
REMARK    8  A    between atoms: C_12  and  O_13
REMARK    9  A    between atoms: O_13  and  C_14
REMARK   10  A    between atoms: C_14  and  C_15
REMARK   11  A    between atoms: C_15  and  O_16
REMARK                            x       y       z     vdW  Elec       q    Type
REMARK                         _______ _______ _______ _____ _____    ______ ____
ROOT
ATOM      4  C   UNL     1      47.817   7.623  12.109  0.00  0.00    +0.000 C 
ENDROOT
BRANCH   4   5
ATOM      5  C   UNL     1      48.767   7.533  13.274  0.00  0.00    +0.000 A 
ATOM      6  C   UNL     1      48.377   6.904  14.464  0.00  0.00    +0.000 A 
ATOM      7  C   UNL     1      49.260   6.809  15.544  0.00  0.00    +0.000 A 
ATOM      8  C   UNL     1      50.551   7.352  15.466  0.00  0.00    +0.000 A 
ATOM     17  C   UNL     1      50.925   8.017  14.290  0.00  0.00    +0.000 A 
ATOM     18  C   UNL     1      50.041   8.112  13.209  0.00  0.00    +0.000 A 
BRANCH   8   9
ATOM      9  C   UNL     1      51.510   7.239  16.632  0.00  0.00    +0.000 C 
BRANCH   9  10
ATOM     10  N   UNL     1      51.965   5.859  16.812  0.00  0.00    +0.000 NA
ATOM     30  H   UNL     1      52.986   5.861  16.846  0.00  0.00    +0.000 HD
BRANCH  10  11
ATOM     11  C   UNL     1      51.430   5.272  18.045  0.00  0.00    +0.000 C 
BRANCH  11  12
ATOM     12  C   UNL     1      51.180   3.768  17.866  0.00  0.00    +0.000 C 
BRANCH  12  13
ATOM     13  O   UNL     1      50.070   3.553  16.986  0.00  0.00    +0.000 OA
BRANCH  13  14
ATOM     14  C   UNL     1      48.830   3.730  17.690  0.00  0.00    +0.000 C 
BRANCH  14  15
ATOM     15  C   UNL     1      47.689   3.163  16.850  0.00  0.00    +0.000 C 
BRANCH  15  16
ATOM     16  O   UNL     1      46.559   2.892  17.675  0.00  0.00    +0.000 OA
ATOM     31  H   UNL     1      46.109   2.134  17.255  0.00  0.00    +0.000 HD
ENDBRANCH  15  16
ENDBRANCH  14  15
ENDBRANCH  13  14
ENDBRANCH  12  13
ENDBRANCH  11  12
ENDBRANCH  10  11
ENDBRANCH   9  10
ENDBRANCH   8   9
ENDBRANCH   4   5
BRANCH   4   3
ATOM      1  O   UNL     1      45.088   7.551  11.509  0.00  0.00    +0.000 OA
ATOM      2  C   UNL     1      45.692   6.488  11.639  0.00  0.00    +0.000 C 
ATOM      3  N   UNL     1      47.011   6.434  12.011  0.00  0.00    +0.000 N 
ATOM     29  H   UNL     1      47.517   5.562  11.903  0.00  0.00    +0.000 HD
BRANCH   2  19
ATOM     19  C   UNL     1      45.022   5.195  11.458  0.00  0.00    +0.000 A 
ATOM     20  C   UNL     1      44.265   4.649  12.486  0.00  0.00    +0.000 A 
ATOM     21  S   UNL     1      43.592   3.127  12.105  0.00  0.00    +0.000 S 
ATOM     22  C   UNL     1      44.246   3.172  10.534  0.00  0.00    +0.000 A 
ATOM     23  N   UNL     1      44.025   2.157   9.653  0.00  0.00    +0.000 NA
ATOM     24  C   UNL     1      44.553   2.339   8.488  0.00  0.00    +0.000 A 
ATOM     25  N   UNL     1      45.285   3.439   8.123  0.00  0.00    +0.000 N 
ATOM     26  C   UNL     1      45.558   4.469   8.988  0.00  0.00    +0.000 A 
ATOM     27  O   UNL     1      46.257   5.416   8.641  0.00  0.00    +0.000 OA
ATOM     28  C   UNL     1      44.980   4.320  10.307  0.00  0.00    +0.000 A 
ATOM     32  H   UNL     1      45.680   3.516   7.198  0.00  0.00    +0.000 HD
ENDBRANCH   2  19
ENDBRANCH   4   3
TORSDOF 11
ENDMDL
MODEL 7
REMARK VINA RESULT:    -6.149      3.799      9.088
REMARK INTER + INTRA:         -10.916
REMARK INTER:                  -9.319
REMARK INTRA:                  -1.596
REMARK UNBOUND:                -0.992
REMARK  Name = 
REMARK  11 active torsions:
REMARK  status: ('A' for Active; 'I' for Inactive)
REMARK    1  A    between atoms: C_2  and  C_19
REMARK    2  A    between atoms: N_3  and  C_4
REMARK    3  A    between atoms: C_4  and  C_5
REMARK    4  A    between atoms: C_8  and  C_9
REMARK    5  A    between atoms: C_9  and  N_10
REMARK    6  A    between atoms: N_10  and  C_11
REMARK    7  A    between atoms: C_11  and  C_12
REMARK    8  A    between atoms: C_12  and  O_13
REMARK    9  A    between atoms: O_13  and  C_14
REMARK   10  A    between atoms: C_14  and  C_15
REMARK   11  A    between atoms: C_15  and  O_16
REMARK                            x       y       z     vdW  Elec       q    Type
REMARK                         _______ _______ _______ _____ _____    ______ ____
ROOT
ATOM      4  C   UNL     1      47.378   3.585  16.598  0.00  0.00    +0.000 C 
ENDROOT
BRANCH   4   5
ATOM      5  C   UNL     1      47.664   4.249  17.920  0.00  0.00    +0.000 A 
ATOM      6  C   UNL     1      46.990   5.421  18.288  0.00  0.00    +0.000 A 
ATOM      7  C   UNL     1      47.245   6.035  19.519  0.00  0.00    +0.000 A 
ATOM      8  C   UNL     1      48.189   5.497  20.406  0.00  0.00    +0.000 A 
ATOM     17  C   UNL     1      48.892   4.348  20.019  0.00  0.00    +0.000 A 
ATOM     18  C   UNL     1      48.637   3.735  18.787  0.00  0.00    +0.000 A 
BRANCH   8   9
ATOM      9  C   UNL     1      48.456   6.156  21.743  0.00  0.00    +0.000 C 
BRANCH   9  10
ATOM     10  N   UNL     1      48.837   7.560  21.577  0.00  0.00    +0.000 NA
ATOM     30  H   UNL     1      48.703   8.036  22.469  0.00  0.00    +0.000 HD
BRANCH  10  11
ATOM     11  C   UNL     1      50.233   7.692  21.148  0.00  0.00    +0.000 C 
BRANCH  11  12
ATOM     12  C   UNL     1      50.312   8.252  19.720  0.00  0.00    +0.000 C 
BRANCH  12  13
ATOM     13  O   UNL     1      50.646   7.207  18.798  0.00  0.00    +0.000 OA
BRANCH  13  14
ATOM     14  C   UNL     1      50.218   7.555  17.471  0.00  0.00    +0.000 C 
BRANCH  14  15
ATOM     15  C   UNL     1      50.575   6.421  16.514  0.00  0.00    +0.000 C 
BRANCH  15  16
ATOM     16  O   UNL     1      49.496   6.179  15.615  0.00  0.00    +0.000 OA
ATOM     31  H   UNL     1      49.033   5.397  15.974  0.00  0.00    +0.000 HD
ENDBRANCH  15  16
ENDBRANCH  14  15
ENDBRANCH  13  14
ENDBRANCH  12  13
ENDBRANCH  11  12
ENDBRANCH  10  11
ENDBRANCH   9  10
ENDBRANCH   8   9
ENDBRANCH   4   5
BRANCH   4   3
ATOM      1  O   UNL     1      47.251   3.214  13.831  0.00  0.00    +0.000 OA
ATOM      2  C   UNL     1      46.772   4.238  14.311  0.00  0.00    +0.000 C 
ATOM      3  N   UNL     1      46.862   4.535  15.647  0.00  0.00    +0.000 N 
ATOM     29  H   UNL     1      46.281   5.273  16.028  0.00  0.00    +0.000 HD
BRANCH   2  19
ATOM     19  C   UNL     1      46.113   5.247  13.473  0.00  0.00    +0.000 A 
ATOM     20  C   UNL     1      46.724   6.473  13.244  0.00  0.00    +0.000 A 
ATOM     21  S   UNL     1      45.795   7.528  12.276  0.00  0.00    +0.000 S 
ATOM     22  C   UNL     1      44.569   6.362  12.086  0.00  0.00    +0.000 A 
ATOM     23  N   UNL     1      43.465   6.621  11.334  0.00  0.00    +0.000 NA
ATOM     24  C   UNL     1      42.634   5.636  11.250  0.00  0.00    +0.000 A 
ATOM     25  N   UNL     1      42.803   4.415  11.852  0.00  0.00    +0.000 N 
ATOM     26  C   UNL     1      43.886   4.122  12.644  0.00  0.00    +0.000 A 
ATOM     27  O   UNL     1      43.981   3.036  13.207  0.00  0.00    +0.000 OA
ATOM     28  C   UNL     1      44.855   5.192  12.764  0.00  0.00    +0.000 A 
ATOM     32  H   UNL     1      42.110   3.689  11.757  0.00  0.00    +0.000 HD
ENDBRANCH   2  19
ENDBRANCH   4   3
TORSDOF 11
ENDMDL
MODEL 8
REMARK VINA RESULT:    -6.056      4.352      5.829
REMARK INTER + INTRA:         -10.766
REMARK INTER:                  -9.858
REMARK INTRA:                  -0.908
REMARK UNBOUND:                -0.992
REMARK  Name = 
REMARK  11 active torsions:
REMARK  status: ('A' for Active; 'I' for Inactive)
REMARK    1  A    between atoms: C_2  and  C_19
REMARK    2  A    between atoms: N_3  and  C_4
REMARK    3  A    between atoms: C_4  and  C_5
REMARK    4  A    between atoms: C_8  and  C_9
REMARK    5  A    between atoms: C_9  and  N_10
REMARK    6  A    between atoms: N_10  and  C_11
REMARK    7  A    between atoms: C_11  and  C_12
REMARK    8  A    between atoms: C_12  and  O_13
REMARK    9  A    between atoms: O_13  and  C_14
REMARK   10  A    between atoms: C_14  and  C_15
REMARK   11  A    between atoms: C_15  and  O_16
REMARK                            x       y       z     vdW  Elec       q    Type
REMARK                         _______ _______ _______ _____ _____    ______ ____
ROOT
ATOM      4  C   UNL     1      46.616   4.016  14.394  0.00  0.00    +0.000 C 
ENDROOT
BRANCH   4   5
ATOM      5  C   UNL     1      46.083   5.166  13.580  0.00  0.00    +0.000 A 
ATOM      6  C   UNL     1      44.775   5.137  13.079  0.00  0.00    +0.000 A 
ATOM      7  C   UNL     1      44.272   6.207  12.332  0.00  0.00    +0.000 A 
ATOM      8  C   UNL     1      45.070   7.328  12.059  0.00  0.00    +0.000 A 
ATOM     17  C   UNL     1      46.391   7.338  12.526  0.00  0.00    +0.000 A 
ATOM     18  C   UNL     1      46.894   6.267  13.273  0.00  0.00    +0.000 A 
BRANCH   8   9
ATOM      9  C   UNL     1      44.521   8.492  11.260  0.00  0.00    +0.000 C 
BRANCH   9  10
ATOM     10  N   UNL     1      44.140   9.603  12.134  0.00  0.00    +0.000 NA
ATOM     30  H   UNL     1      44.676   9.528  12.999  0.00  0.00    +0.000 HD
BRANCH  10  11
ATOM     11  C   UNL     1      44.397  10.900  11.501  0.00  0.00    +0.000 C 
BRANCH  11  12
ATOM     12  C   UNL     1      43.080  11.631  11.204  0.00  0.00    +0.000 C 
BRANCH  12  13
ATOM     13  O   UNL     1      42.302  10.884  10.260  0.00  0.00    +0.000 OA
BRANCH  13  14
ATOM     14  C   UNL     1      40.914  11.239  10.362  0.00  0.00    +0.000 C 
BRANCH  14  15
ATOM     15  C   UNL     1      40.208  10.247  11.283  0.00  0.00    +0.000 C 
BRANCH  15  16
ATOM     16  O   UNL     1      40.989   9.063  11.420  0.00  0.00    +0.000 OA
ATOM     31  H   UNL     1      40.386   8.401  11.811  0.00  0.00    +0.000 HD
ENDBRANCH  15  16
ENDBRANCH  14  15
ENDBRANCH  13  14
ENDBRANCH  12  13
ENDBRANCH  11  12
ENDBRANCH  10  11
ENDBRANCH   9  10
ENDBRANCH   8   9
ENDBRANCH   4   5
BRANCH   4   3
ATOM      1  O   UNL     1      46.619   3.200  17.067  0.00  0.00    +0.000 OA
ATOM      2  C   UNL     1      47.496   3.972  16.685  0.00  0.00    +0.000 C 
ATOM      3  N   UNL     1      47.520   4.483  15.412  0.00  0.00    +0.000 N 
ATOM     29  H   UNL     1      48.362   4.941  15.083  0.00  0.00    +0.000 HD
BRANCH   2  19
ATOM     19  C   UNL     1      48.551   4.446  17.588  0.00  0.00    +0.000 A 
ATOM     20  C   UNL     1      48.353   5.584  18.359  0.00  0.00    +0.000 A 
ATOM     21  S   UNL     1      49.701   6.000  19.320  0.00  0.00    +0.000 S 
ATOM     22  C   UNL     1      50.576   4.644  18.777  0.00  0.00    +0.000 A 
ATOM     23  N   UNL     1      51.831   4.388  19.236  0.00  0.00    +0.000 NA
ATOM     24  C   UNL     1      52.362   3.310  18.764  0.00  0.00    +0.000 A 
ATOM     25  N   UNL     1      51.755   2.463  17.873  0.00  0.00    +0.000 N 
ATOM     26  C   UNL     1      50.503   2.699  17.360  0.00  0.00    +0.000 A 
ATOM     27  O   UNL     1      50.010   1.945  16.526  0.00  0.00    +0.000 OA
ATOM     28  C   UNL     1      49.858   3.894  17.864  0.00  0.00    +0.000 A 
ATOM     32  H   UNL     1      52.229   1.641  17.533  0.00  0.00    +0.000 HD
ENDBRANCH   2  19
ENDBRANCH   4   3
TORSDOF 11
ENDMDL
MODEL 9
REMARK VINA RESULT:    -5.840      2.180      3.824
REMARK INTER + INTRA:         -10.417
REMARK INTER:                  -9.328
REMARK INTRA:                  -1.089
REMARK UNBOUND:                -0.992
REMARK  Name = 
REMARK  11 active torsions:
REMARK  status: ('A' for Active; 'I' for Inactive)
REMARK    1  A    between atoms: C_2  and  C_19
REMARK    2  A    between atoms: N_3  and  C_4
REMARK    3  A    between atoms: C_4  and  C_5
REMARK    4  A    between atoms: C_8  and  C_9
REMARK    5  A    between atoms: C_9  and  N_10
REMARK    6  A    between atoms: N_10  and  C_11
REMARK    7  A    between atoms: C_11  and  C_12
REMARK    8  A    between atoms: C_12  and  O_13
REMARK    9  A    between atoms: O_13  and  C_14
REMARK   10  A    between atoms: C_14  and  C_15
REMARK   11  A    between atoms: C_15  and  O_16
REMARK                            x       y       z     vdW  Elec       q    Type
REMARK                         _______ _______ _______ _____ _____    ______ ____
ROOT
ATOM      4  C   UNL     1      47.060   4.784  14.655  0.00  0.00    +0.000 C 
ENDROOT
BRANCH   4   5
ATOM      5  C   UNL     1      46.324   4.706  13.342  0.00  0.00    +0.000 A 
ATOM      6  C   UNL     1      45.775   3.493  12.906  0.00  0.00    +0.000 A 
ATOM      7  C   UNL     1      45.082   3.418  11.694  0.00  0.00    +0.000 A 
ATOM      8  C   UNL     1      44.933   4.553  10.882  0.00  0.00    +0.000 A 
ATOM     17  C   UNL     1      45.519   5.755  11.300  0.00  0.00    +0.000 A 
ATOM     18  C   UNL     1      46.212   5.829  12.513  0.00  0.00    +0.000 A 
BRANCH   8   9
ATOM      9  C   UNL     1      44.173   4.474   9.574  0.00  0.00    +0.000 C 
BRANCH   9  10
ATOM     10  N   UNL     1      45.078   4.579   8.428  0.00  0.00    +0.000 NA
ATOM     30  H   UNL     1      46.017   4.772   8.778  0.00  0.00    +0.000 HD
BRANCH  10  11
ATOM     11  C   UNL     1      45.088   3.346   7.634  0.00  0.00    +0.000 C 
BRANCH  11  12
ATOM     12  C   UNL     1      46.261   2.445   8.044  0.00  0.00    +0.000 C 
BRANCH  12  13
ATOM     13  O   UNL     1      47.388   2.683   7.192  0.00  0.00    +0.000 OA
BRANCH  13  14
ATOM     14  C   UNL     1      47.027   2.484   5.816  0.00  0.00    +0.000 C 
BRANCH  14  15
ATOM     15  C   UNL     1      47.450   1.084   5.382  0.00  0.00    +0.000 C 
BRANCH  15  16
ATOM     16  O   UNL     1      47.484   0.999   3.960  0.00  0.00    +0.000 OA
ATOM     31  H   UNL     1      46.590   1.263   3.665  0.00  0.00    +0.000 HD
ENDBRANCH  15  16
ENDBRANCH  14  15
ENDBRANCH  13  14
ENDBRANCH  12  13
ENDBRANCH  11  12
ENDBRANCH  10  11
ENDBRANCH   9  10
ENDBRANCH   8   9
ENDBRANCH   4   5
BRANCH   4   3
ATOM      1  O   UNL     1      49.219   5.378  16.328  0.00  0.00    +0.000 OA
ATOM      2  C   UNL     1      48.752   6.272  15.626  0.00  0.00    +0.000 C 
ATOM      3  N   UNL     1      47.645   6.086  14.839  0.00  0.00    +0.000 N 
ATOM     29  H   UNL     1      47.424   6.776  14.130  0.00  0.00    +0.000 HD
BRANCH   2  19
ATOM     19  C   UNL     1      49.319   7.626  15.627  0.00  0.00    +0.000 A 
ATOM     20  C   UNL     1      49.492   8.312  16.822  0.00  0.00    +0.000 A 
ATOM     21  S   UNL     1      50.131   9.882  16.622  0.00  0.00    +0.000 S 
ATOM     22  C   UNL     1      50.248   9.678  14.936  0.00  0.00    +0.000 A 
ATOM     23  N   UNL     1      50.749  10.665  14.143  0.00  0.00    +0.000 NA
ATOM     24  C   UNL     1      50.810  10.362  12.889  0.00  0.00    +0.000 A 
ATOM     25  N   UNL     1      50.413   9.164  12.353  0.00  0.00    +0.000 N 
ATOM     26  C   UNL     1      49.874   8.154  13.112  0.00  0.00    +0.000 A 
ATOM     27  O   UNL     1      49.485   7.113  12.591  0.00  0.00    +0.000 OA
ATOM     28  C   UNL     1      49.792   8.439  14.529  0.00  0.00    +0.000 A 
ATOM     32  H   UNL     1      50.476   8.992  11.362  0.00  0.00    +0.000 HD
ENDBRANCH   2  19
ENDBRANCH   4   3
TORSDOF 11
ENDMDL
