MODEL 1
REMARK VINA RESULT:    -6.434      0.000      0.000
REMARK INTER + INTRA:         -15.324
REMARK INTER:                 -13.204
REMARK INTRA:                  -2.120
REMARK UNBOUND:                -2.120
REMARK  Name = 
REMARK  20 active torsions:
REMARK  status: ('A' for Active; 'I' for Inactive)
REMARK    1  A    between atoms: C_1  and  C_2
REMARK    2  A    between atoms: C_2  and  C_3
REMARK    3  A    between atoms: C_3  and  C_4
REMARK    4  A    between atoms: C_4  and  C_5
REMARK    5  A    between atoms: C_5  and  C_6
REMARK    6  A    between atoms: C_6  and  C_7
REMARK    7  A    between atoms: C_7  and  C_8
REMARK    8  A    between atoms: C_8  and  N_9
REMARK    9  A    between atoms: N_9  and  C_10
REMARK   10  A    between atoms: C_10  and  C_11
REMARK   11  A    between atoms: C_14  and  C_15
REMARK   12  A    between atoms: C_15  and  N_16
REMARK   13  A    between atoms: C_17  and  C_19
REMARK   14  A    between atoms: C_26  and  O_27
REMARK   15  A    between atoms: O_27  and  C_28
REMARK   16  A    between atoms: C_28  and  C_29
REMARK   17  A    between atoms: C_29  and  C_30
REMARK   18  A    between atoms: C_30  and  C_31
REMARK   19  A    between atoms: C_31  and  C_32
REMARK   20  A    between atoms: C_32  and  C_33
REMARK                            x       y       z     vdW  Elec       q    Type
REMARK                         _______ _______ _______ _____ _____    ______ ____
ROOT
ATOM     16  N   UNL     1      48.166   7.198  14.881  0.00  0.00    +0.000 N 
ATOM     17  C   UNL     1      48.977   7.097  15.979  0.00  0.00    +0.000 C 
ATOM     18  O   UNL     1      50.012   6.435  15.969  0.00  0.00    +0.000 OA
ATOM     38  H   UNL     1      47.320   7.749  14.937  0.00  0.00    +0.000 HD
ENDROOT
BRANCH  17  19
ATOM     19  C   UNL     1      48.574   7.864  17.170  0.00  0.00    +0.000 A 
ATOM     20  C   UNL     1      48.515   9.249  17.122  0.00  0.00    +0.000 A 
ATOM     21  S   UNL     1      48.007   9.962  18.584  0.00  0.00    +0.000 S 
ATOM     22  C   UNL     1      47.892   8.446  19.344  0.00  0.00    +0.000 A 
ATOM     23  N   UNL     1      47.527   8.360  20.634  0.00  0.00    +0.000 NA
ATOM     24  C   UNL     1      47.512   7.100  21.078  0.00  0.00    +0.000 A 
ATOM     25  N   UNL     1      47.796   5.994  20.392  0.00  0.00    +0.000 NA
ATOM     26  C   UNL     1      48.136   6.129  19.099  0.00  0.00    +0.000 A 
ATOM     34  C   UNL     1      48.213   7.396  18.497  0.00  0.00    +0.000 A 
BRANCH  26  27
ATOM     27  O   UNL     1      48.488   5.026  18.374  0.00  0.00    +0.000 OA
BRANCH  27  28
ATOM     28  C   UNL     1      47.656   3.877  18.527  0.00  0.00    +0.000 C 
BRANCH  28  29
ATOM     29  C   UNL     1      47.329   3.332  17.149  0.00  0.00    +0.000 C 
BRANCH  29  30
ATOM     30  C   UNL     1      48.586   3.089  16.326  0.00  0.00    +0.000 C 
BRANCH  30  31
ATOM     31  C   UNL     1      49.386   1.920  16.883  0.00  0.00    +0.000 C 
BRANCH  31  32
ATOM     32  C   UNL     1      50.772   2.394  17.302  0.00  0.00    +0.000 C 
ATOM     33  C   UNL     1      51.744   1.234  17.396  0.00  0.00    +0.000 C 
ENDBRANCH  31  32
ENDBRANCH  30  31
ENDBRANCH  29  30
ENDBRANCH  28  29
ENDBRANCH  27  28
ENDBRANCH  26  27
ENDBRANCH  17  19
BRANCH  16  15
ATOM     15  C   UNL     1      48.434   6.517  13.638  0.00  0.00    +0.000 C 
BRANCH  15  14
ATOM     11  C   UNL     1      44.782   5.373  11.590  0.00  0.00    +0.000 A 
ATOM     12  C   UNL     1      45.076   4.860  12.862  0.00  0.00    +0.000 A 
ATOM     13  C   UNL     1      46.249   5.228  13.529  0.00  0.00    +0.000 A 
ATOM     14  C   UNL     1      47.168   6.101  12.927  0.00  0.00    +0.000 A 
ATOM     35  C   UNL     1      46.892   6.579  11.640  0.00  0.00    +0.000 A 
ATOM     36  C   UNL     1      45.704   6.234  10.986  0.00  0.00    +0.000 A 
BRANCH  11  10
ATOM     10  C   UNL     1      43.496   5.010  10.883  0.00  0.00    +0.000 C 
BRANCH  10   9
ATOM      9  N   UNL     1      43.783   4.335   9.622  0.00  0.00    +0.000 NA
ATOM     37  H   UNL     1      42.961   4.368   9.025  0.00  0.00    +0.000 HD
BRANCH   9   8
ATOM      8  C   UNL     1      44.176   2.950   9.838  0.00  0.00    +0.000 C 
BRANCH   8   7
ATOM      7  C   UNL     1      45.394   2.653   8.971  0.00  0.00    +0.000 C 
BRANCH   7   6
ATOM      6  C   UNL     1      45.350   3.486   7.697  0.00  0.00    +0.000 C 
BRANCH   6   5
ATOM      5  C   UNL     1      46.751   3.910   7.279  0.00  0.00    +0.000 C 
BRANCH   5   4
ATOM      4  C   UNL     1      47.564   2.698   6.840  0.00  0.00    +0.000 C 
BRANCH   4   3
ATOM      3  C   UNL     1      47.392   2.447   5.347  0.00  0.00    +0.000 C 
BRANCH   3   2
ATOM      1  C   UNL     1      46.975   0.716   3.585  0.00  0.00    +0.000 C 
ATOM      2  C   UNL     1      47.060   0.983   5.075  0.00  0.00    +0.000 C 
ENDBRANCH   3   2
ENDBRANCH   4   3
ENDBRANCH   5   4
ENDBRANCH   6   5
ENDBRANCH   7   6
ENDBRANCH   8   7
ENDBRANCH   9   8
ENDBRANCH  10   9
ENDBRANCH  11  10
ENDBRANCH  15  14
ENDBRANCH  16  15
TORSDOF 18
ENDMDL
MODEL 2
REMARK VINA RESULT:    -6.421      2.914     10.176
REMARK INTER + INTRA:         -15.298
REMARK INTER:                 -12.659
REMARK INTRA:                  -2.638
REMARK UNBOUND:                -2.120
REMARK  Name = 
REMARK  20 active torsions:
REMARK  status: ('A' for Active; 'I' for Inactive)
REMARK    1  A    between atoms: C_1  and  C_2
REMARK    2  A    between atoms: C_2  and  C_3
REMARK    3  A    between atoms: C_3  and  C_4
REMARK    4  A    between atoms: C_4  and  C_5
REMARK    5  A    between atoms: C_5  and  C_6
REMARK    6  A    between atoms: C_6  and  C_7
REMARK    7  A    between atoms: C_7  and  C_8
REMARK    8  A    between atoms: C_8  and  N_9
REMARK    9  A    between atoms: N_9  and  C_10
REMARK   10  A    between atoms: C_10  and  C_11
REMARK   11  A    between atoms: C_14  and  C_15
REMARK   12  A    between atoms: C_15  and  N_16
REMARK   13  A    between atoms: C_17  and  C_19
REMARK   14  A    between atoms: C_26  and  O_27
REMARK   15  A    between atoms: O_27  and  C_28
REMARK   16  A    between atoms: C_28  and  C_29
REMARK   17  A    between atoms: C_29  and  C_30
REMARK   18  A    between atoms: C_30  and  C_31
REMARK   19  A    between atoms: C_31  and  C_32
REMARK   20  A    between atoms: C_32  and  C_33
REMARK                            x       y       z     vdW  Elec       q    Type
REMARK                         _______ _______ _______ _____ _____    ______ ____
ROOT
ATOM     16  N   UNL     1      46.928   4.507  15.732  0.00  0.00    +0.000 N 
ATOM     17  C   UNL     1      46.944   4.389  14.369  0.00  0.00    +0.000 C 
ATOM     18  O   UNL     1      47.191   3.324  13.807  0.00  0.00    +0.000 OA
ATOM     38  H   UNL     1      46.728   5.405  16.150  0.00  0.00    +0.000 HD
ENDROOT
BRANCH  17  19
ATOM     19  C   UNL     1      46.604   5.596  13.596  0.00  0.00    +0.000 A 
ATOM     20  C   UNL     1      47.481   6.672  13.561  0.00  0.00    +0.000 A 
ATOM     21  S   UNL     1      46.931   7.968  12.600  0.00  0.00    +0.000 S 
ATOM     22  C   UNL     1      45.485   7.152  12.236  0.00  0.00    +0.000 A 
ATOM     23  N   UNL     1      44.553   7.738  11.464  0.00  0.00    +0.000 NA
ATOM     24  C   UNL     1      43.471   6.971  11.299  0.00  0.00    +0.000 A 
ATOM     25  N   UNL     1      43.258   5.751  11.792  0.00  0.00    +0.000 NA
ATOM     26  C   UNL     1      44.227   5.200  12.541  0.00  0.00    +0.000 A 
ATOM     34  C   UNL     1      45.417   5.895  12.816  0.00  0.00    +0.000 A 
BRANCH  26  27
ATOM     27  O   UNL     1      44.028   3.974  13.110  0.00  0.00    +0.000 OA
BRANCH  27  28
ATOM     28  C   UNL     1      43.724   2.904  12.216  0.00  0.00    +0.000 C 
BRANCH  28  29
ATOM     29  C   UNL     1      44.831   2.811  11.182  0.00  0.00    +0.000 C 
BRANCH  29  30
ATOM     30  C   UNL     1      44.292   2.427   9.812  0.00  0.00    +0.000 C 
BRANCH  30  31
ATOM     31  C   UNL     1      45.418   2.320   8.793  0.00  0.00    +0.000 C 
BRANCH  31  32
ATOM     32  C   UNL     1      45.387   3.522   7.858  0.00  0.00    +0.000 C 
ATOM     33  C   UNL     1      46.507   3.452   6.837  0.00  0.00    +0.000 C 
ENDBRANCH  31  32
ENDBRANCH  30  31
ENDBRANCH  29  30
ENDBRANCH  28  29
ENDBRANCH  27  28
ENDBRANCH  26  27
ENDBRANCH  17  19
BRANCH  16  15
ATOM     15  C   UNL     1      47.228   3.412  16.622  0.00  0.00    +0.000 C 
BRANCH  15  14
ATOM     11  C   UNL     1      51.416   3.373  17.758  0.00  0.00    +0.000 A 
ATOM     12  C   UNL     1      50.760   2.182  17.415  0.00  0.00    +0.000 A 
ATOM     13  C   UNL     1      49.411   2.189  17.045  0.00  0.00    +0.000 A 
ATOM     14  C   UNL     1      48.681   3.386  17.030  0.00  0.00    +0.000 A 
ATOM     35  C   UNL     1      49.328   4.568  17.413  0.00  0.00    +0.000 A 
ATOM     36  C   UNL     1      50.685   4.565  17.756  0.00  0.00    +0.000 A 
BRANCH  11  10
ATOM     10  C   UNL     1      52.884   3.377  18.120  0.00  0.00    +0.000 C 
BRANCH  10   9
ATOM      9  N   UNL     1      53.276   4.682  18.640  0.00  0.00    +0.000 NA
ATOM     37  H   UNL     1      53.993   5.085  18.042  0.00  0.00    +0.000 HD
BRANCH   9   8
ATOM      8  C   UNL     1      53.774   4.583  20.005  0.00  0.00    +0.000 C 
BRANCH   8   7
ATOM      7  C   UNL     1      52.909   5.463  20.900  0.00  0.00    +0.000 C 
BRANCH   7   6
ATOM      6  C   UNL     1      51.654   4.712  21.325  0.00  0.00    +0.000 C 
BRANCH   6   5
ATOM      5  C   UNL     1      50.423   5.597  21.190  0.00  0.00    +0.000 C 
BRANCH   5   4
ATOM      4  C   UNL     1      49.156   4.750  21.203  0.00  0.00    +0.000 C 
BRANCH   4   3
ATOM      3  C   UNL     1      47.916   5.635  21.203  0.00  0.00    +0.000 C 
BRANCH   3   2
ATOM      1  C   UNL     1      47.573   8.083  20.800  0.00  0.00    +0.000 C 
ATOM      2  C   UNL     1      48.061   6.777  20.203  0.00  0.00    +0.000 C 
ENDBRANCH   3   2
ENDBRANCH   4   3
ENDBRANCH   5   4
ENDBRANCH   6   5
ENDBRANCH   7   6
ENDBRANCH   8   7
ENDBRANCH   9   8
ENDBRANCH  10   9
ENDBRANCH  11  10
ENDBRANCH  15  14
ENDBRANCH  16  15
TORSDOF 18
ENDMDL
MODEL 3
REMARK VINA RESULT:    -6.208      2.558      4.029
REMARK INTER + INTRA:         -14.860
REMARK INTER:                 -11.946
REMARK INTRA:                  -2.915
REMARK UNBOUND:                -2.120
REMARK  Name = 
REMARK  20 active torsions:
REMARK  status: ('A' for Active; 'I' for Inactive)
REMARK    1  A    between atoms: C_1  and  C_2
REMARK    2  A    between atoms: C_2  and  C_3
REMARK    3  A    between atoms: C_3  and  C_4
REMARK    4  A    between atoms: C_4  and  C_5
REMARK    5  A    between atoms: C_5  and  C_6
REMARK    6  A    between atoms: C_6  and  C_7
REMARK    7  A    between atoms: C_7  and  C_8
REMARK    8  A    between atoms: C_8  and  N_9
REMARK    9  A    between atoms: N_9  and  C_10
REMARK   10  A    between atoms: C_10  and  C_11
REMARK   11  A    between atoms: C_14  and  C_15
REMARK   12  A    between atoms: C_15  and  N_16
REMARK   13  A    between atoms: C_17  and  C_19
REMARK   14  A    between atoms: C_26  and  O_27
REMARK   15  A    between atoms: O_27  and  C_28
REMARK   16  A    between atoms: C_28  and  C_29
REMARK   17  A    between atoms: C_29  and  C_30
REMARK   18  A    between atoms: C_30  and  C_31
REMARK   19  A    between atoms: C_31  and  C_32
REMARK   20  A    between atoms: C_32  and  C_33
REMARK                            x       y       z     vdW  Elec       q    Type
REMARK                         _______ _______ _______ _____ _____    ______ ____
ROOT
ATOM     16  N   UNL     1      50.177   6.508  16.004  0.00  0.00    +0.000 N 
ATOM     17  C   UNL     1      50.715   6.484  17.262  0.00  0.00    +0.000 C 
ATOM     18  O   UNL     1      50.447   7.337  18.105  0.00  0.00    +0.000 OA
ATOM     38  H   UNL     1      50.432   5.789  15.341  0.00  0.00    +0.000 HD
ENDROOT
BRANCH  17  19
ATOM     19  C   UNL     1      51.602   5.352  17.580  0.00  0.00    +0.000 A 
ATOM     20  C   UNL     1      52.878   5.583  18.075  0.00  0.00    +0.000 A 
ATOM     21  S   UNL     1      53.749   4.156  18.407  0.00  0.00    +0.000 S 
ATOM     22  C   UNL     1      52.466   3.184  17.859  0.00  0.00    +0.000 A 
ATOM     23  N   UNL     1      52.585   1.844  17.854  0.00  0.00    +0.000 NA
ATOM     24  C   UNL     1      51.498   1.237  17.370  0.00  0.00    +0.000 A 
ATOM     25  N   UNL     1      50.376   1.808  16.933  0.00  0.00    +0.000 NA
ATOM     26  C   UNL     1      50.297   3.148  16.976  0.00  0.00    +0.000 A 
ATOM     34  C   UNL     1      51.370   3.924  17.445  0.00  0.00    +0.000 A 
BRANCH  26  27
ATOM     27  O   UNL     1      49.186   3.777  16.488  0.00  0.00    +0.000 OA
BRANCH  27  28
ATOM     28  C   UNL     1      47.952   3.076  16.626  0.00  0.00    +0.000 C 
BRANCH  28  29
ATOM     29  C   UNL     1      47.217   3.626  17.835  0.00  0.00    +0.000 C 
BRANCH  29  30
ATOM     30  C   UNL     1      47.262   5.146  17.878  0.00  0.00    +0.000 C 
BRANCH  30  31
ATOM     31  C   UNL     1      47.617   5.642  19.273  0.00  0.00    +0.000 C 
BRANCH  31  32
ATOM     32  C   UNL     1      48.609   4.688  19.925  0.00  0.00    +0.000 C 
ATOM     33  C   UNL     1      48.562   4.796  21.437  0.00  0.00    +0.000 C 
ENDBRANCH  31  32
ENDBRANCH  30  31
ENDBRANCH  29  30
ENDBRANCH  28  29
ENDBRANCH  27  28
ENDBRANCH  26  27
ENDBRANCH  17  19
BRANCH  16  15
ATOM     15  C   UNL     1      49.282   7.544  15.549  0.00  0.00    +0.000 C 
BRANCH  15  14
ATOM     11  C   UNL     1      46.898   6.346  12.126  0.00  0.00    +0.000 A 
ATOM     12  C   UNL     1      46.948   5.544  13.275  0.00  0.00    +0.000 A 
ATOM     13  C   UNL     1      47.711   5.927  14.383  0.00  0.00    +0.000 A 
ATOM     14  C   UNL     1      48.462   7.111  14.357  0.00  0.00    +0.000 A 
ATOM     35  C   UNL     1      48.444   7.889  13.193  0.00  0.00    +0.000 A 
ATOM     36  C   UNL     1      47.657   7.521  12.095  0.00  0.00    +0.000 A 
BRANCH  11  10
ATOM     10  C   UNL     1      46.043   5.957  10.942  0.00  0.00    +0.000 C 
BRANCH  10   9
ATOM      9  N   UNL     1      44.628   6.015  11.296  0.00  0.00    +0.000 NA
ATOM     37  H   UNL     1      44.535   6.131  12.302  0.00  0.00    +0.000 HD
BRANCH   9   8
ATOM      8  C   UNL     1      43.925   4.813  10.873  0.00  0.00    +0.000 C 
BRANCH   8   7
ATOM      7  C   UNL     1      44.957   3.737  10.552  0.00  0.00    +0.000 C 
BRANCH   7   6
ATOM      6  C   UNL     1      44.323   2.630   9.720  0.00  0.00    +0.000 C 
BRANCH   6   5
ATOM      5  C   UNL     1      45.128   2.377   8.453  0.00  0.00    +0.000 C 
BRANCH   5   4
ATOM      4  C   UNL     1      45.827   3.655   8.005  0.00  0.00    +0.000 C 
BRANCH   4   3
ATOM      3  C   UNL     1      46.429   3.481   6.616  0.00  0.00    +0.000 C 
BRANCH   3   2
ATOM      1  C   UNL     1      47.377   1.779   5.041  0.00  0.00    +0.000 C 
ATOM      2  C   UNL     1      47.142   2.138   6.495  0.00  0.00    +0.000 C 
ENDBRANCH   3   2
ENDBRANCH   4   3
ENDBRANCH   5   4
ENDBRANCH   6   5
ENDBRANCH   7   6
ENDBRANCH   8   7
ENDBRANCH   9   8
ENDBRANCH  10   9
ENDBRANCH  11  10
ENDBRANCH  15  14
ENDBRANCH  16  15
TORSDOF 18
ENDMDL
MODEL 4
REMARK VINA RESULT:    -6.026      2.684      3.552
REMARK INTER + INTRA:         -14.486
REMARK INTER:                 -12.194
REMARK INTRA:                  -2.292
REMARK UNBOUND:                -2.120
REMARK  Name = 
REMARK  20 active torsions:
REMARK  status: ('A' for Active; 'I' for Inactive)
REMARK    1  A    between atoms: C_1  and  C_2
REMARK    2  A    between atoms: C_2  and  C_3
REMARK    3  A    between atoms: C_3  and  C_4
REMARK    4  A    between atoms: C_4  and  C_5
REMARK    5  A    between atoms: C_5  and  C_6
REMARK    6  A    between atoms: C_6  and  C_7
REMARK    7  A    between atoms: C_7  and  C_8
REMARK    8  A    between atoms: C_8  and  N_9
REMARK    9  A    between atoms: N_9  and  C_10
REMARK   10  A    between atoms: C_10  and  C_11
REMARK   11  A    between atoms: C_14  and  C_15
REMARK   12  A    between atoms: C_15  and  N_16
REMARK   13  A    between atoms: C_17  and  C_19
REMARK   14  A    between atoms: C_26  and  O_27
REMARK   15  A    between atoms: O_27  and  C_28
REMARK   16  A    between atoms: C_28  and  C_29
REMARK   17  A    between atoms: C_29  and  C_30
REMARK   18  A    between atoms: C_30  and  C_31
REMARK   19  A    between atoms: C_31  and  C_32
REMARK   20  A    between atoms: C_32  and  C_33
REMARK                            x       y       z     vdW  Elec       q    Type
REMARK                         _______ _______ _______ _____ _____    ______ ____
ROOT
ATOM     16  N   UNL     1      50.021   8.317  12.887  0.00  0.00    +0.000 N 
ATOM     17  C   UNL     1      50.412   8.881  14.072  0.00  0.00    +0.000 C 
ATOM     18  O   UNL     1      49.791   9.804  14.595  0.00  0.00    +0.000 OA
ATOM     38  H   UNL     1      50.568   7.565  12.491  0.00  0.00    +0.000 HD
ENDROOT
BRANCH  17  19
ATOM     19  C   UNL     1      51.596   8.294  14.724  0.00  0.00    +0.000 A 
ATOM     20  C   UNL     1      52.862   8.790  14.447  0.00  0.00    +0.000 A 
ATOM     21  S   UNL     1      54.106   8.006  15.310  0.00  0.00    +0.000 S 
ATOM     22  C   UNL     1      52.997   6.948  16.047  0.00  0.00    +0.000 A 
ATOM     23  N   UNL     1      53.429   5.998  16.895  0.00  0.00    +0.000 NA
ATOM     24  C   UNL     1      52.432   5.241  17.363  0.00  0.00    +0.000 A 
ATOM     25  N   UNL     1      51.132   5.350  17.089  0.00  0.00    +0.000 NA
ATOM     26  C   UNL     1      50.748   6.328  16.253  0.00  0.00    +0.000 A 
ATOM     34  C   UNL     1      51.687   7.193  15.667  0.00  0.00    +0.000 A 
BRANCH  26  27
ATOM     27  O   UNL     1      49.432   6.441  15.903  0.00  0.00    +0.000 OA
BRANCH  27  28
ATOM     28  C   UNL     1      48.489   5.844  16.791  0.00  0.00    +0.000 C 
BRANCH  28  29
ATOM     29  C   UNL     1      47.844   4.664  16.087  0.00  0.00    +0.000 C 
BRANCH  29  30
ATOM     30  C   UNL     1      47.121   3.751  17.066  0.00  0.00    +0.000 C 
BRANCH  30  31
ATOM     31  C   UNL     1      48.096   2.798  17.745  0.00  0.00    +0.000 C 
BRANCH  31  32
ATOM     32  C   UNL     1      48.966   2.114  16.698  0.00  0.00    +0.000 C 
ATOM     33  C   UNL     1      50.417   2.072  17.135  0.00  0.00    +0.000 C 
ENDBRANCH  31  32
ENDBRANCH  30  31
ENDBRANCH  29  30
ENDBRANCH  28  29
ENDBRANCH  27  28
ENDBRANCH  26  27
ENDBRANCH  17  19
BRANCH  16  15
ATOM     15  C   UNL     1      48.877   8.774  12.138  0.00  0.00    +0.000 C 
BRANCH  15  14
ATOM     11  C   UNL     1      45.402   6.242  12.729  0.00  0.00    +0.000 A 
ATOM     12  C   UNL     1      46.692   5.691  12.720  0.00  0.00    +0.000 A 
ATOM     13  C   UNL     1      47.816   6.502  12.534  0.00  0.00    +0.000 A 
ATOM     14  C   UNL     1      47.673   7.882  12.329  0.00  0.00    +0.000 A 
ATOM     35  C   UNL     1      46.382   8.423  12.297  0.00  0.00    +0.000 A 
ATOM     36  C   UNL     1      45.259   7.616  12.512  0.00  0.00    +0.000 A 
BRANCH  11  10
ATOM     10  C   UNL     1      44.187   5.375  12.970  0.00  0.00    +0.000 C 
BRANCH  10   9
ATOM      9  N   UNL     1      44.587   3.987  13.178  0.00  0.00    +0.000 NA
ATOM     37  H   UNL     1      45.552   3.864  12.882  0.00  0.00    +0.000 HD
BRANCH   9   8
ATOM      8  C   UNL     1      43.728   3.071  12.442  0.00  0.00    +0.000 C 
BRANCH   8   7
ATOM      7  C   UNL     1      43.522   3.625  11.037  0.00  0.00    +0.000 C 
BRANCH   7   6
ATOM      6  C   UNL     1      44.767   3.393  10.191  0.00  0.00    +0.000 C 
BRANCH   6   5
ATOM      5  C   UNL     1      44.587   3.971   8.794  0.00  0.00    +0.000 C 
BRANCH   5   4
ATOM      4  C   UNL     1      45.828   3.711   7.948  0.00  0.00    +0.000 C 
BRANCH   4   3
ATOM      3  C   UNL     1      46.226   2.242   8.014  0.00  0.00    +0.000 C 
BRANCH   3   2
ATOM      1  C   UNL     1      46.950   2.904   5.709  0.00  0.00    +0.000 C 
ATOM      2  C   UNL     1      47.042   1.843   6.788  0.00  0.00    +0.000 C 
ENDBRANCH   3   2
ENDBRANCH   4   3
ENDBRANCH   5   4
ENDBRANCH   6   5
ENDBRANCH   7   6
ENDBRANCH   8   7
ENDBRANCH   9   8
ENDBRANCH  10   9
ENDBRANCH  11  10
ENDBRANCH  15  14
ENDBRANCH  16  15
TORSDOF 18
ENDMDL
MODEL 5
REMARK VINA RESULT:    -5.844      2.482      3.780
REMARK INTER + INTRA:         -14.113
REMARK INTER:                 -11.981
REMARK INTRA:                  -2.132
REMARK UNBOUND:                -2.120
REMARK  Name = 
REMARK  20 active torsions:
REMARK  status: ('A' for Active; 'I' for Inactive)
REMARK    1  A    between atoms: C_1  and  C_2
REMARK    2  A    between atoms: C_2  and  C_3
REMARK    3  A    between atoms: C_3  and  C_4
REMARK    4  A    between atoms: C_4  and  C_5
REMARK    5  A    between atoms: C_5  and  C_6
REMARK    6  A    between atoms: C_6  and  C_7
REMARK    7  A    between atoms: C_7  and  C_8
REMARK    8  A    between atoms: C_8  and  N_9
REMARK    9  A    between atoms: N_9  and  C_10
REMARK   10  A    between atoms: C_10  and  C_11
REMARK   11  A    between atoms: C_14  and  C_15
REMARK   12  A    between atoms: C_15  and  N_16
REMARK   13  A    between atoms: C_17  and  C_19
REMARK   14  A    between atoms: C_26  and  O_27
REMARK   15  A    between atoms: O_27  and  C_28
REMARK   16  A    between atoms: C_28  and  C_29
REMARK   17  A    between atoms: C_29  and  C_30
REMARK   18  A    between atoms: C_30  and  C_31
REMARK   19  A    between atoms: C_31  and  C_32
REMARK   20  A    between atoms: C_32  and  C_33
REMARK                            x       y       z     vdW  Elec       q    Type
REMARK                         _______ _______ _______ _____ _____    ______ ____
ROOT
ATOM     16  N   UNL     1      50.364   7.489  13.604  0.00  0.00    +0.000 N 
ATOM     17  C   UNL     1      50.562   7.848  14.910  0.00  0.00    +0.000 C 
ATOM     18  O   UNL     1      49.804   8.616  15.500  0.00  0.00    +0.000 OA
ATOM     38  H   UNL     1      51.017   6.860  13.157  0.00  0.00    +0.000 HD
ENDROOT
BRANCH  17  19
ATOM     19  C   UNL     1      51.709   7.231  15.598  0.00  0.00    +0.000 A 
ATOM     20  C   UNL     1      52.992   7.718  15.389  0.00  0.00    +0.000 A 
ATOM     21  S   UNL     1      54.186   6.897  16.286  0.00  0.00    +0.000 S 
ATOM     22  C   UNL     1      53.034   5.837  16.949  0.00  0.00    +0.000 A 
ATOM     23  N   UNL     1      53.416   4.861  17.791  0.00  0.00    +0.000 NA
ATOM     24  C   UNL     1      52.392   4.106  18.196  0.00  0.00    +0.000 A 
ATOM     25  N   UNL     1      51.107   4.239  17.869  0.00  0.00    +0.000 NA
ATOM     26  C   UNL     1      50.771   5.241  17.040  0.00  0.00    +0.000 A 
ATOM     34  C   UNL     1      51.745   6.107  16.517  0.00  0.00    +0.000 A 
BRANCH  26  27
ATOM     27  O   UNL     1      49.473   5.379  16.636  0.00  0.00    +0.000 OA
BRANCH  27  28
ATOM     28  C   UNL     1      48.576   4.340  17.026  0.00  0.00    +0.000 C 
BRANCH  28  29
ATOM     29  C   UNL     1      47.435   4.959  17.813  0.00  0.00    +0.000 C 
BRANCH  29  30
ATOM     30  C   UNL     1      47.866   5.345  19.221  0.00  0.00    +0.000 C 
BRANCH  30  31
ATOM     31  C   UNL     1      47.750   6.848  19.434  0.00  0.00    +0.000 C 
BRANCH  31  32
ATOM     32  C   UNL     1      47.513   7.145  20.909  0.00  0.00    +0.000 C 
ATOM     33  C   UNL     1      47.451   5.867  21.723  0.00  0.00    +0.000 C 
ENDBRANCH  31  32
ENDBRANCH  30  31
ENDBRANCH  29  30
ENDBRANCH  28  29
ENDBRANCH  27  28
ENDBRANCH  26  27
ENDBRANCH  17  19
BRANCH  16  15
ATOM     15  C   UNL     1      49.279   7.999  12.802  0.00  0.00    +0.000 C 
BRANCH  15  14
ATOM     11  C   UNL     1      45.898   5.278  12.751  0.00  0.00    +0.000 A 
ATOM     12  C   UNL     1      45.994   6.312  11.809  0.00  0.00    +0.000 A 
ATOM     13  C   UNL     1      47.083   7.190  11.817  0.00  0.00    +0.000 A 
ATOM     14  C   UNL     1      48.091   7.067  12.785  0.00  0.00    +0.000 A 
ATOM     35  C   UNL     1      47.971   6.059  13.751  0.00  0.00    +0.000 A 
ATOM     36  C   UNL     1      46.896   5.163  13.724  0.00  0.00    +0.000 A 
BRANCH  11  10
ATOM     10  C   UNL     1      44.744   4.302  12.721  0.00  0.00    +0.000 C 
BRANCH  10   9
ATOM      9  N   UNL     1      44.004   4.430  11.470  0.00  0.00    +0.000 NA
ATOM     37  H   UNL     1      43.147   4.953  11.634  0.00  0.00    +0.000 HD
BRANCH   9   8
ATOM      8  C   UNL     1      43.682   3.126  10.907  0.00  0.00    +0.000 C 
BRANCH   8   7
ATOM      7  C   UNL     1      44.751   2.765   9.882  0.00  0.00    +0.000 C 
BRANCH   7   6
ATOM      6  C   UNL     1      44.978   3.928   8.925  0.00  0.00    +0.000 C 
BRANCH   6   5
ATOM      5  C   UNL     1      45.712   3.464   7.674  0.00  0.00    +0.000 C 
BRANCH   5   4
ATOM      4  C   UNL     1      46.378   2.115   7.920  0.00  0.00    +0.000 C 
BRANCH   4   3
ATOM      3  C   UNL     1      47.375   1.798   6.813  0.00  0.00    +0.000 C 
BRANCH   3   2
ATOM      1  C   UNL     1      46.970   1.466   4.363  0.00  0.00    +0.000 C 
ATOM      2  C   UNL     1      46.968   2.466   5.504  0.00  0.00    +0.000 C 
ENDBRANCH   3   2
ENDBRANCH   4   3
ENDBRANCH   5   4
ENDBRANCH   6   5
ENDBRANCH   7   6
ENDBRANCH   8   7
ENDBRANCH   9   8
ENDBRANCH  10   9
ENDBRANCH  11  10
ENDBRANCH  15  14
ENDBRANCH  16  15
TORSDOF 18
ENDMDL
MODEL 6
REMARK VINA RESULT:    -5.770      2.163      3.022
REMARK INTER + INTRA:         -13.962
REMARK INTER:                 -11.818
REMARK INTRA:                  -2.143
REMARK UNBOUND:                -2.120
REMARK  Name = 
REMARK  20 active torsions:
REMARK  status: ('A' for Active; 'I' for Inactive)
REMARK    1  A    between atoms: C_1  and  C_2
REMARK    2  A    between atoms: C_2  and  C_3
REMARK    3  A    between atoms: C_3  and  C_4
REMARK    4  A    between atoms: C_4  and  C_5
REMARK    5  A    between atoms: C_5  and  C_6
REMARK    6  A    between atoms: C_6  and  C_7
REMARK    7  A    between atoms: C_7  and  C_8
REMARK    8  A    between atoms: C_8  and  N_9
REMARK    9  A    between atoms: N_9  and  C_10
REMARK   10  A    between atoms: C_10  and  C_11
REMARK   11  A    between atoms: C_14  and  C_15
REMARK   12  A    between atoms: C_15  and  N_16
REMARK   13  A    between atoms: C_17  and  C_19
REMARK   14  A    between atoms: C_26  and  O_27
REMARK   15  A    between atoms: O_27  and  C_28
REMARK   16  A    between atoms: C_28  and  C_29
REMARK   17  A    between atoms: C_29  and  C_30
REMARK   18  A    between atoms: C_30  and  C_31
REMARK   19  A    between atoms: C_31  and  C_32
REMARK   20  A    between atoms: C_32  and  C_33
REMARK                            x       y       z     vdW  Elec       q    Type
REMARK                         _______ _______ _______ _____ _____    ______ ____
ROOT
ATOM     16  N   UNL     1      48.926   7.667  13.938  0.00  0.00    +0.000 N 
ATOM     17  C   UNL     1      49.357   8.917  13.583  0.00  0.00    +0.000 C 
ATOM     18  O   UNL     1      49.561   9.231  12.413  0.00  0.00    +0.000 OA
ATOM     38  H   UNL     1      48.778   7.452  14.915  0.00  0.00    +0.000 HD
ENDROOT
BRANCH  17  19
ATOM     19  C   UNL     1      49.521   9.894  14.674  0.00  0.00    +0.000 A 
ATOM     20  C   UNL     1      49.117  11.210  14.498  0.00  0.00    +0.000 A 
ATOM     21  S   UNL     1      49.362  12.188  15.873  0.00  0.00    +0.000 S 
ATOM     22  C   UNL     1      50.057  10.896  16.732  0.00  0.00    +0.000 A 
ATOM     23  N   UNL     1      50.510  11.080  17.984  0.00  0.00    +0.000 NA
ATOM     24  C   UNL     1      51.047   9.971  18.501  0.00  0.00    +0.000 A 
ATOM     25  N   UNL     1      51.152   8.775  17.924  0.00  0.00    +0.000 NA
ATOM     26  C   UNL     1      50.667   8.635  16.679  0.00  0.00    +0.000 A 
ATOM     34  C   UNL     1      50.088   9.719  15.999  0.00  0.00    +0.000 A 
BRANCH  26  27
ATOM     27  O   UNL     1      50.803   7.440  16.031  0.00  0.00    +0.000 OA
BRANCH  27  28
ATOM     28  C   UNL     1      50.652   6.267  16.829  0.00  0.00    +0.000 C 
BRANCH  28  29
ATOM     29  C   UNL     1      49.229   6.222  17.355  0.00  0.00    +0.000 C 
BRANCH  29  30
ATOM     30  C   UNL     1      48.388   5.189  16.619  0.00  0.00    +0.000 C 
BRANCH  30  31
ATOM     31  C   UNL     1      47.400   4.517  17.562  0.00  0.00    +0.000 C 
BRANCH  31  32
ATOM     32  C   UNL     1      47.383   3.015  17.310  0.00  0.00    +0.000 C 
ATOM     33  C   UNL     1      48.744   2.519  16.863  0.00  0.00    +0.000 C 
ENDBRANCH  31  32
ENDBRANCH  30  31
ENDBRANCH  29  30
ENDBRANCH  28  29
ENDBRANCH  27  28
ENDBRANCH  26  27
ENDBRANCH  17  19
BRANCH  16  15
ATOM     15  C   UNL     1      48.707   6.609  12.984  0.00  0.00    +0.000 C 
BRANCH  15  14
ATOM     11  C   UNL     1      44.554   5.350  12.911  0.00  0.00    +0.000 A 
ATOM     12  C   UNL     1      45.533   4.543  13.510  0.00  0.00    +0.000 A 
ATOM     13  C   UNL     1      46.872   4.945  13.541  0.00  0.00    +0.000 A 
ATOM     14  C   UNL     1      47.267   6.155  12.951  0.00  0.00    +0.000 A 
ATOM     35  C   UNL     1      46.295   6.938  12.316  0.00  0.00    +0.000 A 
ATOM     36  C   UNL     1      44.951   6.550  12.312  0.00  0.00    +0.000 A 
BRANCH  11  10
ATOM     10  C   UNL     1      43.100   4.939  12.912  0.00  0.00    +0.000 C 
BRANCH  10   9
ATOM      9  N   UNL     1      42.656   4.640  11.554  0.00  0.00    +0.000 NA
ATOM     37  H   UNL     1      41.743   4.192  11.587  0.00  0.00    +0.000 HD
BRANCH   9   8
ATOM      8  C   UNL     1      43.602   3.777  10.863  0.00  0.00    +0.000 C 
BRANCH   8   7
ATOM      7  C   UNL     1      43.968   4.428   9.534  0.00  0.00    +0.000 C 
BRANCH   7   6
ATOM      6  C   UNL     1      45.245   3.811   8.979  0.00  0.00    +0.000 C 
BRANCH   6   5
ATOM      5  C   UNL     1      45.075   2.312   8.772  0.00  0.00    +0.000 C 
BRANCH   5   4
ATOM      4  C   UNL     1      46.303   1.729   8.082  0.00  0.00    +0.000 C 
BRANCH   4   3
ATOM      3  C   UNL     1      47.046   2.808   7.303  0.00  0.00    +0.000 C 
BRANCH   3   2
ATOM      1  C   UNL     1      47.553   1.813   5.061  0.00  0.00    +0.000 C 
ATOM      2  C   UNL     1      46.664   2.775   5.827  0.00  0.00    +0.000 C 
ENDBRANCH   3   2
ENDBRANCH   4   3
ENDBRANCH   5   4
ENDBRANCH   6   5
ENDBRANCH   7   6
ENDBRANCH   8   7
ENDBRANCH   9   8
ENDBRANCH  10   9
ENDBRANCH  11  10
ENDBRANCH  15  14
ENDBRANCH  16  15
TORSDOF 18
ENDMDL
MODEL 7
REMARK VINA RESULT:    -5.620      4.199      7.359
REMARK INTER + INTRA:         -13.653
REMARK INTER:                 -11.870
REMARK INTRA:                  -1.783
REMARK UNBOUND:                -2.120
REMARK  Name = 
REMARK  20 active torsions:
REMARK  status: ('A' for Active; 'I' for Inactive)
REMARK    1  A    between atoms: C_1  and  C_2
REMARK    2  A    between atoms: C_2  and  C_3
REMARK    3  A    between atoms: C_3  and  C_4
REMARK    4  A    between atoms: C_4  and  C_5
REMARK    5  A    between atoms: C_5  and  C_6
REMARK    6  A    between atoms: C_6  and  C_7
REMARK    7  A    between atoms: C_7  and  C_8
REMARK    8  A    between atoms: C_8  and  N_9
REMARK    9  A    between atoms: N_9  and  C_10
REMARK   10  A    between atoms: C_10  and  C_11
REMARK   11  A    between atoms: C_14  and  C_15
REMARK   12  A    between atoms: C_15  and  N_16
REMARK   13  A    between atoms: C_17  and  C_19
REMARK   14  A    between atoms: C_26  and  O_27
REMARK   15  A    between atoms: O_27  and  C_28
REMARK   16  A    between atoms: C_28  and  C_29
REMARK   17  A    between atoms: C_29  and  C_30
REMARK   18  A    between atoms: C_30  and  C_31
REMARK   19  A    between atoms: C_31  and  C_32
REMARK   20  A    between atoms: C_32  and  C_33
REMARK                            x       y       z     vdW  Elec       q    Type
REMARK                         _______ _______ _______ _____ _____    ______ ____
ROOT
ATOM     16  N   UNL     1      49.377   6.885  13.947  0.00  0.00    +0.000 N 
ATOM     17  C   UNL     1      49.229   7.449  15.185  0.00  0.00    +0.000 C 
ATOM     18  O   UNL     1      49.061   8.656  15.339  0.00  0.00    +0.000 OA
ATOM     38  H   UNL     1      49.520   5.887  13.869  0.00  0.00    +0.000 HD
ENDROOT
BRANCH  17  19
ATOM     19  C   UNL     1      49.233   6.528  16.335  0.00  0.00    +0.000 A 
ATOM     20  C   UNL     1      50.082   6.756  17.409  0.00  0.00    +0.000 A 
ATOM     21  S   UNL     1      49.931   5.603  18.655  0.00  0.00    +0.000 S 
ATOM     22  C   UNL     1      48.759   4.736  17.781  0.00  0.00    +0.000 A 
ATOM     23  N   UNL     1      48.231   3.608  18.289  0.00  0.00    +0.000 NA
ATOM     24  C   UNL     1      47.347   3.042  17.463  0.00  0.00    +0.000 A 
ATOM     25  N   UNL     1      46.959   3.478  16.265  0.00  0.00    +0.000 NA
ATOM     26  C   UNL     1      47.500   4.620  15.809  0.00  0.00    +0.000 A 
ATOM     34  C   UNL     1      48.459   5.320  16.560  0.00  0.00    +0.000 A 
BRANCH  26  27
ATOM     27  O   UNL     1      47.171   5.074  14.563  0.00  0.00    +0.000 OA
BRANCH  27  28
ATOM     28  C   UNL     1      46.844   4.079  13.594  0.00  0.00    +0.000 C 
BRANCH  28  29
ATOM     29  C   UNL     1      45.406   4.289  13.154  0.00  0.00    +0.000 C 
BRANCH  29  30
ATOM     30  C   UNL     1      45.302   4.493  11.650  0.00  0.00    +0.000 C 
BRANCH  30  31
ATOM     31  C   UNL     1      44.144   3.692  11.069  0.00  0.00    +0.000 C 
BRANCH  31  32
ATOM     32  C   UNL     1      44.322   3.541   9.564  0.00  0.00    +0.000 C 
ATOM     33  C   UNL     1      44.729   2.126   9.199  0.00  0.00    +0.000 C 
ENDBRANCH  31  32
ENDBRANCH  30  31
ENDBRANCH  29  30
ENDBRANCH  28  29
ENDBRANCH  27  28
ENDBRANCH  26  27
ENDBRANCH  17  19
BRANCH  16  15
ATOM     15  C   UNL     1      49.382   7.654  12.726  0.00  0.00    +0.000 C 
BRANCH  15  14
ATOM     11  C   UNL     1      45.563   9.565  11.950  0.00  0.00    +0.000 A 
ATOM     12  C   UNL     1      46.751  10.310  11.922  0.00  0.00    +0.000 A 
ATOM     13  C   UNL     1      47.985   9.699  12.168  0.00  0.00    +0.000 A 
ATOM     14  C   UNL     1      48.057   8.331  12.470  0.00  0.00    +0.000 A 
ATOM     35  C   UNL     1      46.865   7.598  12.538  0.00  0.00    +0.000 A 
ATOM     36  C   UNL     1      45.633   8.204  12.264  0.00  0.00    +0.000 A 
BRANCH  11  10
ATOM     10  C   UNL     1      44.232  10.212  11.646  0.00  0.00    +0.000 C 
BRANCH  10   9
ATOM      9  N   UNL     1      43.398   9.313  10.855  0.00  0.00    +0.000 NA
ATOM     37  H   UNL     1      43.837   9.149   9.953  0.00  0.00    +0.000 HD
BRANCH   9   8
ATOM      8  C   UNL     1      42.063   9.860  10.659  0.00  0.00    +0.000 C 
BRANCH   8   7
ATOM      7  C   UNL     1      41.932  11.126  11.498  0.00  0.00    +0.000 C 
BRANCH   7   6
ATOM      6  C   UNL     1      40.539  11.213  12.108  0.00  0.00    +0.000 C 
BRANCH   6   5
ATOM      5  C   UNL     1      39.538  10.413  11.285  0.00  0.00    +0.000 C 
BRANCH   5   4
ATOM      4  C   UNL     1      38.188  10.366  11.990  0.00  0.00    +0.000 C 
BRANCH   4   3
ATOM      3  C   UNL     1      37.366   9.179  11.502  0.00  0.00    +0.000 C 
BRANCH   3   2
ATOM      1  C   UNL     1      35.595  10.884  11.980  0.00  0.00    +0.000 C 
ATOM      2  C   UNL     1      35.877   9.415  11.736  0.00  0.00    +0.000 C 
ENDBRANCH   3   2
ENDBRANCH   4   3
ENDBRANCH   5   4
ENDBRANCH   6   5
ENDBRANCH   7   6
ENDBRANCH   8   7
ENDBRANCH   9   8
ENDBRANCH  10   9
ENDBRANCH  11  10
ENDBRANCH  15  14
ENDBRANCH  16  15
TORSDOF 18
ENDMDL
MODEL 8
REMARK VINA RESULT:    -5.545      3.631      9.463
REMARK INTER + INTRA:         -13.499
REMARK INTER:                  -9.933
REMARK INTRA:                  -3.566
REMARK UNBOUND:                -2.120
REMARK  Name = 
REMARK  20 active torsions:
REMARK  status: ('A' for Active; 'I' for Inactive)
REMARK    1  A    between atoms: C_1  and  C_2
REMARK    2  A    between atoms: C_2  and  C_3
REMARK    3  A    between atoms: C_3  and  C_4
REMARK    4  A    between atoms: C_4  and  C_5
REMARK    5  A    between atoms: C_5  and  C_6
REMARK    6  A    between atoms: C_6  and  C_7
REMARK    7  A    between atoms: C_7  and  C_8
REMARK    8  A    between atoms: C_8  and  N_9
REMARK    9  A    between atoms: N_9  and  C_10
REMARK   10  A    between atoms: C_10  and  C_11
REMARK   11  A    between atoms: C_14  and  C_15
REMARK   12  A    between atoms: C_15  and  N_16
REMARK   13  A    between atoms: C_17  and  C_19
REMARK   14  A    between atoms: C_26  and  O_27
REMARK   15  A    between atoms: O_27  and  C_28
REMARK   16  A    between atoms: C_28  and  C_29
REMARK   17  A    between atoms: C_29  and  C_30
REMARK   18  A    between atoms: C_30  and  C_31
REMARK   19  A    between atoms: C_31  and  C_32
REMARK   20  A    between atoms: C_32  and  C_33
REMARK                            x       y       z     vdW  Elec       q    Type
REMARK                         _______ _______ _______ _____ _____    ______ ____
ROOT
ATOM     16  N   UNL     1      48.408   6.913  15.873  0.00  0.00    +0.000 N 
ATOM     17  C   UNL     1      48.704   6.913  14.537  0.00  0.00    +0.000 C 
ATOM     18  O   UNL     1      49.857   7.012  14.122  0.00  0.00    +0.000 OA
ATOM     38  H   UNL     1      47.444   6.837  16.168  0.00  0.00    +0.000 HD
ENDROOT
BRANCH  17  19
ATOM     19  C   UNL     1      47.573   6.741  13.609  0.00  0.00    +0.000 A 
ATOM     20  C   UNL     1      47.099   7.822  12.879  0.00  0.00    +0.000 A 
ATOM     21  S   UNL     1      45.804   7.429  11.842  0.00  0.00    +0.000 S 
ATOM     22  C   UNL     1      45.805   5.812  12.369  0.00  0.00    +0.000 A 
ATOM     23  N   UNL     1      44.907   4.940  11.879  0.00  0.00    +0.000 NA
ATOM     24  C   UNL     1      45.032   3.723  12.417  0.00  0.00    +0.000 A 
ATOM     25  N   UNL     1      45.921   3.325  13.327  0.00  0.00    +0.000 NA
ATOM     26  C   UNL     1      46.811   4.228  13.770  0.00  0.00    +0.000 A 
ATOM     34  C   UNL     1      46.791   5.554  13.308  0.00  0.00    +0.000 A 
BRANCH  26  27
ATOM     27  O   UNL     1      47.705   3.876  14.742  0.00  0.00    +0.000 OA
BRANCH  27  28
ATOM     28  C   UNL     1      47.244   3.972  16.088  0.00  0.00    +0.000 C 
BRANCH  28  29
ATOM     29  C   UNL     1      47.643   2.707  16.826  0.00  0.00    +0.000 C 
BRANCH  29  30
ATOM     30  C   UNL     1      49.127   2.409  16.671  0.00  0.00    +0.000 C 
BRANCH  30  31
ATOM     31  C   UNL     1      49.930   3.025  17.809  0.00  0.00    +0.000 C 
BRANCH  31  32
ATOM     32  C   UNL     1      51.418   2.796  17.577  0.00  0.00    +0.000 C 
ATOM     33  C   UNL     1      51.739   1.316  17.501  0.00  0.00    +0.000 C 
ENDBRANCH  31  32
ENDBRANCH  30  31
ENDBRANCH  29  30
ENDBRANCH  28  29
ENDBRANCH  27  28
ENDBRANCH  26  27
ENDBRANCH  17  19
BRANCH  16  15
ATOM     15  C   UNL     1      49.408   7.060  16.902  0.00  0.00    +0.000 C 
BRANCH  15  14
ATOM     11  C   UNL     1      48.662  10.534  19.394  0.00  0.00    +0.000 A 
ATOM     12  C   UNL     1      49.854   9.806  19.525  0.00  0.00    +0.000 A 
ATOM     13  C   UNL     1      50.102   8.688  18.722  0.00  0.00    +0.000 A 
ATOM     14  C   UNL     1      49.151   8.258  17.784  0.00  0.00    +0.000 A 
ATOM     35  C   UNL     1      47.944   8.962  17.685  0.00  0.00    +0.000 A 
ATOM     36  C   UNL     1      47.709  10.098  18.468  0.00  0.00    +0.000 A 
BRANCH  11  10
ATOM     10  C   UNL     1      48.407  11.766  20.232  0.00  0.00    +0.000 C 
BRANCH  10   9
ATOM      9  N   UNL     1      47.127  11.655  20.923  0.00  0.00    +0.000 NA
ATOM     37  H   UNL     1      46.764  12.585  21.117  0.00  0.00    +0.000 HD
BRANCH   9   8
ATOM      8  C   UNL     1      47.257  10.911  22.167  0.00  0.00    +0.000 C 
BRANCH   8   7
ATOM      7  C   UNL     1      46.443   9.627  22.050  0.00  0.00    +0.000 C 
BRANCH   7   6
ATOM      6  C   UNL     1      47.335   8.414  22.285  0.00  0.00    +0.000 C 
BRANCH   6   5
ATOM      5  C   UNL     1      47.321   7.491  21.074  0.00  0.00    +0.000 C 
BRANCH   5   4
ATOM      4  C   UNL     1      47.867   6.118  21.448  0.00  0.00    +0.000 C 
BRANCH   4   3
ATOM      3  C   UNL     1      48.944   5.680  20.463  0.00  0.00    +0.000 C 
BRANCH   3   2
ATOM      1  C   UNL     1      51.417   5.454  20.131  0.00  0.00    +0.000 C 
ATOM      2  C   UNL     1      50.302   5.578  21.152  0.00  0.00    +0.000 C 
ENDBRANCH   3   2
ENDBRANCH   4   3
ENDBRANCH   5   4
ENDBRANCH   6   5
ENDBRANCH   7   6
ENDBRANCH   8   7
ENDBRANCH   9   8
ENDBRANCH  10   9
ENDBRANCH  11  10
ENDBRANCH  15  14
ENDBRANCH  16  15
TORSDOF 18
ENDMDL
MODEL 9
REMARK VINA RESULT:    -5.360      3.796      8.904
REMARK INTER + INTRA:         -13.121
REMARK INTER:                  -8.564
REMARK INTRA:                  -4.557
REMARK UNBOUND:                -2.120
REMARK  Name = 
REMARK  20 active torsions:
REMARK  status: ('A' for Active; 'I' for Inactive)
REMARK    1  A    between atoms: C_1  and  C_2
REMARK    2  A    between atoms: C_2  and  C_3
REMARK    3  A    between atoms: C_3  and  C_4
REMARK    4  A    between atoms: C_4  and  C_5
REMARK    5  A    between atoms: C_5  and  C_6
REMARK    6  A    between atoms: C_6  and  C_7
REMARK    7  A    between atoms: C_7  and  C_8
REMARK    8  A    between atoms: C_8  and  N_9
REMARK    9  A    between atoms: N_9  and  C_10
REMARK   10  A    between atoms: C_10  and  C_11
REMARK   11  A    between atoms: C_14  and  C_15
REMARK   12  A    between atoms: C_15  and  N_16
REMARK   13  A    between atoms: C_17  and  C_19
REMARK   14  A    between atoms: C_26  and  O_27
REMARK   15  A    between atoms: O_27  and  C_28
REMARK   16  A    between atoms: C_28  and  C_29
REMARK   17  A    between atoms: C_29  and  C_30
REMARK   18  A    between atoms: C_30  and  C_31
REMARK   19  A    between atoms: C_31  and  C_32
REMARK   20  A    between atoms: C_32  and  C_33
REMARK                            x       y       z     vdW  Elec       q    Type
REMARK                         _______ _______ _______ _____ _____    ______ ____
ROOT
ATOM     16  N   UNL     1      48.671   6.997  13.811  0.00  0.00    +0.000 N 
ATOM     17  C   UNL     1      47.669   7.924  13.712  0.00  0.00    +0.000 C 
ATOM     18  O   UNL     1      47.778   9.058  14.173  0.00  0.00    +0.000 OA
ATOM     38  H   UNL     1      48.533   6.074  13.424  0.00  0.00    +0.000 HD
ENDROOT
BRANCH  17  19
ATOM     19  C   UNL     1      46.459   7.513  12.980  0.00  0.00    +0.000 A 
ATOM     20  C   UNL     1      45.775   8.430  12.193  0.00  0.00    +0.000 A 
ATOM     21  S   UNL     1      44.415   7.770  11.404  0.00  0.00    +0.000 S 
ATOM     22  C   UNL     1      44.671   6.251  12.122  0.00  0.00    +0.000 A 
ATOM     23  N   UNL     1      43.827   5.234  11.875  0.00  0.00    +0.000 NA
ATOM     24  C   UNL     1      44.159   4.122  12.538  0.00  0.00    +0.000 A 
ATOM     25  N   UNL     1      45.195   3.945  13.357  0.00  0.00    +0.000 NA
ATOM     26  C   UNL     1      46.022   4.984  13.557  0.00  0.00    +0.000 A 
ATOM     34  C   UNL     1      45.790   6.225  12.940  0.00  0.00    +0.000 A 
BRANCH  26  27
ATOM     27  O   UNL     1      47.065   4.861  14.431  0.00  0.00    +0.000 OA
BRANCH  27  28
ATOM     28  C   UNL     1      47.416   3.532  14.812  0.00  0.00    +0.000 C 
BRANCH  28  29
ATOM     29  C   UNL     1      47.604   3.496  16.318  0.00  0.00    +0.000 C 
BRANCH  29  30
ATOM     30  C   UNL     1      48.687   2.510  16.728  0.00  0.00    +0.000 C 
BRANCH  30  31
ATOM     31  C   UNL     1      49.549   3.080  17.846  0.00  0.00    +0.000 C 
BRANCH  31  32
ATOM     32  C   UNL     1      50.982   3.252  17.359  0.00  0.00    +0.000 C 
ATOM     33  C   UNL     1      51.923   3.541  18.514  0.00  0.00    +0.000 C 
ENDBRANCH  31  32
ENDBRANCH  30  31
ENDBRANCH  29  30
ENDBRANCH  28  29
ENDBRANCH  27  28
ENDBRANCH  26  27
ENDBRANCH  17  19
BRANCH  16  15
ATOM     15  C   UNL     1      49.919   7.255  14.487  0.00  0.00    +0.000 C 
BRANCH  15  14
ATOM     11  C   UNL     1      49.602   6.645  18.773  0.00  0.00    +0.000 A 
ATOM     12  C   UNL     1      50.849   6.884  18.177  0.00  0.00    +0.000 A 
ATOM     13  C   UNL     1      50.958   7.086  16.797  0.00  0.00    +0.000 A 
ATOM     14  C   UNL     1      49.821   7.029  15.977  0.00  0.00    +0.000 A 
ATOM     35  C   UNL     1      48.583   6.748  16.569  0.00  0.00    +0.000 A 
ATOM     36  C   UNL     1      48.471   6.576  17.953  0.00  0.00    +0.000 A 
BRANCH  11  10
ATOM     10  C   UNL     1      49.475   6.467  20.268  0.00  0.00    +0.000 C 
BRANCH  10   9
ATOM      9  N   UNL     1      48.071   6.365  20.651  0.00  0.00    +0.000 NA
ATOM     37  H   UNL     1      47.485   6.515  19.833  0.00  0.00    +0.000 HD
BRANCH   9   8
ATOM      8  C   UNL     1      47.729   7.332  21.684  0.00  0.00    +0.000 C 
BRANCH   8   7
ATOM      7  C   UNL     1      47.265   8.617  21.007  0.00  0.00    +0.000 C 
BRANCH   7   6
ATOM      6  C   UNL     1      48.295   9.721  21.209  0.00  0.00    +0.000 C 
BRANCH   6   5
ATOM      5  C   UNL     1      48.817  10.224  19.870  0.00  0.00    +0.000 C 
BRANCH   5   4
ATOM      4  C   UNL     1      47.685  10.298  18.853  0.00  0.00    +0.000 C 
BRANCH   4   3
ATOM      3  C   UNL     1      48.234  10.257  17.432  0.00  0.00    +0.000 C 
BRANCH   3   2
ATOM      1  C   UNL     1      50.228  10.751  15.999  0.00  0.00    +0.000 C 
ATOM      2  C   UNL     1      49.731  10.549  17.418  0.00  0.00    +0.000 C 
ENDBRANCH   3   2
ENDBRANCH   4   3
ENDBRANCH   5   4
ENDBRANCH   6   5
ENDBRANCH   7   6
ENDBRANCH   8   7
ENDBRANCH   9   8
ENDBRANCH  10   9
ENDBRANCH  11  10
ENDBRANCH  15  14
ENDBRANCH  16  15
TORSDOF 18
ENDMDL
