MODEL 1
REMARK VINA RESULT:    -6.540      0.000      0.000
REMARK INTER + INTRA:          -8.151
REMARK INTER:                  -7.687
REMARK INTRA:                  -0.464
REMARK UNBOUND:                -0.464
REMARK  Name = 
REMARK  4 active torsions:
REMARK  status: ('A' for Active; 'I' for Inactive)
REMARK    1  A    between atoms: C_1  and  N_2
REMARK    2  A    between atoms: C_3  and  C_5
REMARK    3  A    between atoms: C_5  and  N_6
REMARK    4  A    between atoms: C_11  and  C_12
REMARK                            x       y       z     vdW  Elec       q    Type
REMARK                         _______ _______ _______ _____ _____    ______ ____
ROOT
ATOM      6  N   UNL     1      44.312   4.415  10.460  0.00  0.00    +0.000 N 
ATOM      7  C   UNL     1      43.756   3.270  10.977  0.00  0.00    +0.000 A 
ATOM      8  C   UNL     1      44.183   2.209  10.208  0.00  0.00    +0.000 A 
ATOM      9  C   UNL     1      45.036   2.725   9.197  0.00  0.00    +0.000 A 
ATOM     10  C   UNL     1      45.751   2.174   8.118  0.00  0.00    +0.000 A 
ATOM     11  C   UNL     1      46.503   3.044   7.320  0.00  0.00    +0.000 A 
ATOM     15  C   UNL     1      46.522   4.398   7.655  0.00  0.00    +0.000 A 
ATOM     16  N   UNL     1      45.859   4.982   8.692  0.00  0.00    +0.000 NA
ATOM     17  C   UNL     1      45.125   4.100   9.400  0.00  0.00    +0.000 A 
ENDROOT
BRANCH  11  12
ATOM     12  C   UNL     1      47.276   2.606   6.132  0.00  0.00    +0.000 C 
ATOM     13  N   UNL     1      48.630   2.455   6.245  0.00  0.00    +0.000 N 
ATOM     14  O   UNL     1      46.720   2.376   5.064  0.00  0.00    +0.000 OA
ATOM     19  H   UNL     1      49.167   2.588   7.087  0.00  0.00    +0.000 HD
ATOM     20  H   UNL     1      49.123   2.136   5.421  0.00  0.00    +0.000 HD
ENDBRANCH  11  12
BRANCH   6   5
ATOM      5  C   UNL     1      44.037   5.763  10.921  0.00  0.00    +0.000 C 
BRANCH   5   3
ATOM      1  C   UNL     1      47.282   7.138  12.327  0.00  0.00    +0.000 C 
ATOM      2  N   UNL     1      46.232   6.686  11.452  0.00  0.00    +0.000 N 
ATOM      3  C   UNL     1      45.035   6.225  11.958  0.00  0.00    +0.000 C 
ATOM      4  O   UNL     1      44.773   6.221  13.159  0.00  0.00    +0.000 OA
ATOM     18  H   UNL     1      46.402   6.632  10.450  0.00  0.00    +0.000 HD
ENDBRANCH   5   3
ENDBRANCH   6   5
TORSDOF 3
ENDMDL
MODEL 2
REMARK VINA RESULT:    -6.158      1.826      2.430
REMARK INTER + INTRA:          -7.702
REMARK INTER:                  -7.461
REMARK INTRA:                  -0.241
REMARK UNBOUND:                -0.464
REMARK  Name = 
REMARK  4 active torsions:
REMARK  status: ('A' for Active; 'I' for Inactive)
REMARK    1  A    between atoms: C_1  and  N_2
REMARK    2  A    between atoms: C_3  and  C_5
REMARK    3  A    between atoms: C_5  and  N_6
REMARK    4  A    between atoms: C_11  and  C_12
REMARK                            x       y       z     vdW  Elec       q    Type
REMARK                         _______ _______ _______ _____ _____    ______ ____
ROOT
ATOM      6  N   UNL     1      44.679   3.639  10.332  0.00  0.00    +0.000 N 
ATOM      7  C   UNL     1      44.739   4.998  10.148  0.00  0.00    +0.000 A 
ATOM      8  C   UNL     1      45.444   5.237   8.988  0.00  0.00    +0.000 A 
ATOM      9  C   UNL     1      45.816   3.980   8.443  0.00  0.00    +0.000 A 
ATOM     10  C   UNL     1      46.545   3.558   7.317  0.00  0.00    +0.000 A 
ATOM     11  C   UNL     1      46.700   2.181   7.118  0.00  0.00    +0.000 A 
ATOM     15  C   UNL     1      46.103   1.310   8.029  0.00  0.00    +0.000 A 
ATOM     16  N   UNL     1      45.378   1.664   9.127  0.00  0.00    +0.000 NA
ATOM     17  C   UNL     1      45.296   3.000   9.285  0.00  0.00    +0.000 A 
ENDROOT
BRANCH  11  12
ATOM     12  C   UNL     1      47.473   1.596   5.995  0.00  0.00    +0.000 C 
ATOM     13  N   UNL     1      48.397   2.374   5.355  0.00  0.00    +0.000 N 
ATOM     14  O   UNL     1      47.298   0.436   5.642  0.00  0.00    +0.000 OA
ATOM     19  H   UNL     1      48.633   3.324   5.595  0.00  0.00    +0.000 HD
ATOM     20  H   UNL     1      48.921   1.937   4.606  0.00  0.00    +0.000 HD
ENDBRANCH  11  12
BRANCH   6   5
ATOM      5  C   UNL     1      44.107   2.973  11.487  0.00  0.00    +0.000 C 
BRANCH   5   3
ATOM      1  C   UNL     1      46.513   4.105  14.194  0.00  0.00    +0.000 C 
ATOM      2  N   UNL     1      45.934   3.571  12.989  0.00  0.00    +0.000 N 
ATOM      3  C   UNL     1      44.571   3.588  12.788  0.00  0.00    +0.000 C 
ATOM      4  O   UNL     1      43.783   4.097  13.582  0.00  0.00    +0.000 OA
ATOM     18  H   UNL     1      46.532   3.104  12.310  0.00  0.00    +0.000 HD
ENDBRANCH   5   3
ENDBRANCH   6   5
TORSDOF 3
ENDMDL
MODEL 3
REMARK VINA RESULT:    -6.156      2.051      5.734
REMARK INTER + INTRA:          -7.700
REMARK INTER:                  -7.433
REMARK INTRA:                  -0.267
REMARK UNBOUND:                -0.464
REMARK  Name = 
REMARK  4 active torsions:
REMARK  status: ('A' for Active; 'I' for Inactive)
REMARK    1  A    between atoms: C_1  and  N_2
REMARK    2  A    between atoms: C_3  and  C_5
REMARK    3  A    between atoms: C_5  and  N_6
REMARK    4  A    between atoms: C_11  and  C_12
REMARK                            x       y       z     vdW  Elec       q    Type
REMARK                         _______ _______ _______ _____ _____    ______ ____
ROOT
ATOM      6  N   UNL     1      44.448   4.150  10.422  0.00  0.00    +0.000 N 
ATOM      7  C   UNL     1      43.820   3.216  11.208  0.00  0.00    +0.000 A 
ATOM      8  C   UNL     1      44.282   3.370  12.498  0.00  0.00    +0.000 A 
ATOM      9  C   UNL     1      45.214   4.441  12.497  0.00  0.00    +0.000 A 
ATOM     10  C   UNL     1      46.026   5.057  13.467  0.00  0.00    +0.000 A 
ATOM     11  C   UNL     1      46.839   6.119  13.057  0.00  0.00    +0.000 A 
ATOM     15  C   UNL     1      46.778   6.524  11.723  0.00  0.00    +0.000 A 
ATOM     16  N   UNL     1      46.004   5.971  10.748  0.00  0.00    +0.000 NA
ATOM     17  C   UNL     1      45.272   4.930  11.195  0.00  0.00    +0.000 A 
ENDROOT
BRANCH  11  12
ATOM     12  C   UNL     1      47.770   6.837  13.963  0.00  0.00    +0.000 C 
ATOM     13  N   UNL     1      47.467   8.115  14.341  0.00  0.00    +0.000 N 
ATOM     14  O   UNL     1      48.792   6.301  14.376  0.00  0.00    +0.000 OA
ATOM     19  H   UNL     1      46.637   8.624  14.081  0.00  0.00    +0.000 HD
ATOM     20  H   UNL     1      48.113   8.568  14.976  0.00  0.00    +0.000 HD
ENDBRANCH  11  12
BRANCH   6   5
ATOM      5  C   UNL     1      44.314   4.261   8.982  0.00  0.00    +0.000 C 
BRANCH   5   3
ATOM      1  C   UNL     1      46.756   1.657   7.698  0.00  0.00    +0.000 C 
ATOM      2  N   UNL     1      45.649   2.327   8.329  0.00  0.00    +0.000 N 
ATOM      3  C   UNL     1      45.511   3.696   8.252  0.00  0.00    +0.000 C 
ATOM      4  O   UNL     1      46.277   4.411   7.610  0.00  0.00    +0.000 OA
ATOM     18  H   UNL     1      45.002   1.793   8.906  0.00  0.00    +0.000 HD
ENDBRANCH   5   3
ENDBRANCH   6   5
TORSDOF 3
ENDMDL
MODEL 4
REMARK VINA RESULT:    -5.941      2.371      6.084
REMARK INTER + INTRA:          -7.447
REMARK INTER:                  -7.112
REMARK INTRA:                  -0.336
REMARK UNBOUND:                -0.464
REMARK  Name = 
REMARK  4 active torsions:
REMARK  status: ('A' for Active; 'I' for Inactive)
REMARK    1  A    between atoms: C_1  and  N_2
REMARK    2  A    between atoms: C_3  and  C_5
REMARK    3  A    between atoms: C_5  and  N_6
REMARK    4  A    between atoms: C_11  and  C_12
REMARK                            x       y       z     vdW  Elec       q    Type
REMARK                         _______ _______ _______ _____ _____    ______ ____
ROOT
ATOM      6  N   UNL     1      44.750   3.790  11.655  0.00  0.00    +0.000 N 
ATOM      7  C   UNL     1      45.589   3.173  12.551  0.00  0.00    +0.000 A 
ATOM      8  C   UNL     1      46.248   4.155  13.258  0.00  0.00    +0.000 A 
ATOM      9  C   UNL     1      45.787   5.411  12.783  0.00  0.00    +0.000 A 
ATOM     10  C   UNL     1      46.080   6.756  13.074  0.00  0.00    +0.000 A 
ATOM     11  C   UNL     1      45.389   7.743  12.363  0.00  0.00    +0.000 A 
ATOM     15  C   UNL     1      44.433   7.340  11.429  0.00  0.00    +0.000 A 
ATOM     16  N   UNL     1      44.103   6.055  11.117  0.00  0.00    +0.000 NA
ATOM     17  C   UNL     1      44.828   5.152  11.807  0.00  0.00    +0.000 A 
ENDROOT
BRANCH  11  12
ATOM     12  C   UNL     1      45.621   9.198  12.541  0.00  0.00    +0.000 C 
ATOM     13  N   UNL     1      44.544  10.040  12.559  0.00  0.00    +0.000 N 
ATOM     14  O   UNL     1      46.753   9.647  12.678  0.00  0.00    +0.000 OA
ATOM     19  H   UNL     1      43.579   9.760  12.489  0.00  0.00    +0.000 HD
ATOM     20  H   UNL     1      44.737  11.023  12.704  0.00  0.00    +0.000 HD
ENDBRANCH  11  12
BRANCH   6   5
ATOM      5  C   UNL     1      43.947   3.112  10.654  0.00  0.00    +0.000 C 
BRANCH   5   3
ATOM      1  C   UNL     1      46.217   1.595   8.019  0.00  0.00    +0.000 C 
ATOM      2  N   UNL     1      45.452   1.843   9.214  0.00  0.00    +0.000 N 
ATOM      3  C   UNL     1      44.675   2.975   9.337  0.00  0.00    +0.000 C 
ATOM      4  O   UNL     1      44.546   3.800   8.435  0.00  0.00    +0.000 OA
ATOM     18  H   UNL     1      45.546   1.215  10.009  0.00  0.00    +0.000 HD
ENDBRANCH   5   3
ENDBRANCH   6   5
TORSDOF 3
ENDMDL
MODEL 5
REMARK VINA RESULT:    -5.791      2.975      6.297
REMARK INTER + INTRA:          -7.271
REMARK INTER:                  -6.810
REMARK INTRA:                  -0.461
REMARK UNBOUND:                -0.464
REMARK  Name = 
REMARK  4 active torsions:
REMARK  status: ('A' for Active; 'I' for Inactive)
REMARK    1  A    between atoms: C_1  and  N_2
REMARK    2  A    between atoms: C_3  and  C_5
REMARK    3  A    between atoms: C_5  and  N_6
REMARK    4  A    between atoms: C_11  and  C_12
REMARK                            x       y       z     vdW  Elec       q    Type
REMARK                         _______ _______ _______ _____ _____    ______ ____
ROOT
ATOM      6  N   UNL     1      44.823   5.257  11.019  0.00  0.00    +0.000 N 
ATOM      7  C   UNL     1      44.999   6.612  10.880  0.00  0.00    +0.000 A 
ATOM      8  C   UNL     1      45.775   7.048  11.933  0.00  0.00    +0.000 A 
ATOM      9  C   UNL     1      46.091   5.917  12.732  0.00  0.00    +0.000 A 
ATOM     10  C   UNL     1      46.812   5.708  13.922  0.00  0.00    +0.000 A 
ATOM     11  C   UNL     1      46.897   4.400  14.411  0.00  0.00    +0.000 A 
ATOM     15  C   UNL     1      46.290   3.379  13.680  0.00  0.00    +0.000 A 
ATOM     16  N   UNL     1      45.591   3.524  12.519  0.00  0.00    +0.000 NA
ATOM     17  C   UNL     1      45.512   4.809  12.119  0.00  0.00    +0.000 A 
ENDROOT
BRANCH  11  12
ATOM     12  C   UNL     1      47.593   4.039  15.671  0.00  0.00    +0.000 C 
ATOM     13  N   UNL     1      47.533   4.903  16.728  0.00  0.00    +0.000 N 
ATOM     14  O   UNL     1      48.209   2.984  15.774  0.00  0.00    +0.000 OA
ATOM     19  H   UNL     1      47.025   5.773  16.747  0.00  0.00    +0.000 HD
ATOM     20  H   UNL     1      48.002   4.616  17.579  0.00  0.00    +0.000 HD
ENDBRANCH  11  12
BRANCH   6   5
ATOM      5  C   UNL     1      43.988   4.428  10.171  0.00  0.00    +0.000 C 
BRANCH   5   3
ATOM      1  C   UNL     1      45.894   1.640   8.442  0.00  0.00    +0.000 C 
ATOM      2  N   UNL     1      45.119   2.420   9.371  0.00  0.00    +0.000 N 
ATOM      3  C   UNL     1      44.785   3.728   9.095  0.00  0.00    +0.000 C 
ATOM      4  O   UNL     1      45.075   4.284   8.038  0.00  0.00    +0.000 OA
ATOM     18  H   UNL     1      44.879   2.027  10.279  0.00  0.00    +0.000 HD
ENDBRANCH   5   3
ENDBRANCH   6   5
TORSDOF 3
ENDMDL
MODEL 6
REMARK VINA RESULT:    -5.380      4.343      5.967
REMARK INTER + INTRA:          -6.788
REMARK INTER:                  -6.325
REMARK INTRA:                  -0.463
REMARK UNBOUND:                -0.464
REMARK  Name = 
REMARK  4 active torsions:
REMARK  status: ('A' for Active; 'I' for Inactive)
REMARK    1  A    between atoms: C_1  and  N_2
REMARK    2  A    between atoms: C_3  and  C_5
REMARK    3  A    between atoms: C_5  and  N_6
REMARK    4  A    between atoms: C_11  and  C_12
REMARK                            x       y       z     vdW  Elec       q    Type
REMARK                         _______ _______ _______ _____ _____    ______ ____
ROOT
ATOM      6  N   UNL     1      47.478   7.265  13.625  0.00  0.00    +0.000 N 
ATOM      7  C   UNL     1      46.900   8.473  13.322  0.00  0.00    +0.000 A 
ATOM      8  C   UNL     1      45.669   8.221  12.755  0.00  0.00    +0.000 A 
ATOM      9  C   UNL     1      45.489   6.813  12.722  0.00  0.00    +0.000 A 
ATOM     10  C   UNL     1      44.482   5.947  12.258  0.00  0.00    +0.000 A 
ATOM     11  C   UNL     1      44.685   4.571  12.410  0.00  0.00    +0.000 A 
ATOM     15  C   UNL     1      45.855   4.139  13.035  0.00  0.00    +0.000 A 
ATOM     16  N   UNL     1      46.855   4.933  13.511  0.00  0.00    +0.000 NA
ATOM     17  C   UNL     1      46.619   6.244  13.303  0.00  0.00    +0.000 A 
ENDROOT
BRANCH  11  12
ATOM     12  C   UNL     1      43.725   3.543  11.936  0.00  0.00    +0.000 C 
ATOM     13  N   UNL     1      43.775   2.292  12.485  0.00  0.00    +0.000 N 
ATOM     14  O   UNL     1      42.894   3.802  11.073  0.00  0.00    +0.000 OA
ATOM     19  H   UNL     1      44.398   1.998  13.220  0.00  0.00    +0.000 HD
ATOM     20  H   UNL     1      43.093   1.622  12.153  0.00  0.00    +0.000 HD
ENDBRANCH  11  12
BRANCH   6   5
ATOM      5  C   UNL     1      48.819   7.085  14.149  0.00  0.00    +0.000 C 
BRANCH   5   3
ATOM      1  C   UNL     1      48.354   5.841  17.704  0.00  0.00    +0.000 C 
ATOM      2  N   UNL     1      48.401   5.952  16.269  0.00  0.00    +0.000 N 
ATOM      3  C   UNL     1      48.848   7.106  15.661  0.00  0.00    +0.000 C 
ATOM      4  O   UNL     1      49.275   8.072  16.289  0.00  0.00    +0.000 OA
ATOM     18  H   UNL     1      48.027   5.200  15.695  0.00  0.00    +0.000 HD
ENDBRANCH   5   3
ENDBRANCH   6   5
TORSDOF 3
ENDMDL
MODEL 7
REMARK VINA RESULT:    -5.331      3.356      5.049
REMARK INTER + INTRA:          -6.730
REMARK INTER:                  -6.259
REMARK INTRA:                  -0.471
REMARK UNBOUND:                -0.464
REMARK  Name = 
REMARK  4 active torsions:
REMARK  status: ('A' for Active; 'I' for Inactive)
REMARK    1  A    between atoms: C_1  and  N_2
REMARK    2  A    between atoms: C_3  and  C_5
REMARK    3  A    between atoms: C_5  and  N_6
REMARK    4  A    between atoms: C_11  and  C_12
REMARK                            x       y       z     vdW  Elec       q    Type
REMARK                         _______ _______ _______ _____ _____    ______ ____
ROOT
ATOM      6  N   UNL     1      47.610   6.352  13.930  0.00  0.00    +0.000 N 
ATOM      7  C   UNL     1      47.751   5.440  14.948  0.00  0.00    +0.000 A 
ATOM      8  C   UNL     1      46.968   4.346  14.647  0.00  0.00    +0.000 A 
ATOM      9  C   UNL     1      46.340   4.597  13.398  0.00  0.00    +0.000 A 
ATOM     10  C   UNL     1      45.430   3.899  12.583  0.00  0.00    +0.000 A 
ATOM     11  C   UNL     1      45.033   4.503  11.385  0.00  0.00    +0.000 A 
ATOM     15  C   UNL     1      45.580   5.744  11.056  0.00  0.00    +0.000 A 
ATOM     16  N   UNL     1      46.470   6.456  11.802  0.00  0.00    +0.000 NA
ATOM     17  C   UNL     1      46.785   5.841  12.960  0.00  0.00    +0.000 A 
ENDROOT
BRANCH  11  12
ATOM     12  C   UNL     1      44.055   3.899  10.446  0.00  0.00    +0.000 C 
ATOM     13  N   UNL     1      43.973   4.391   9.173  0.00  0.00    +0.000 N 
ATOM     14  O   UNL     1      43.333   2.972  10.793  0.00  0.00    +0.000 OA
ATOM     19  H   UNL     1      44.547   5.125   8.789  0.00  0.00    +0.000 HD
ATOM     20  H   UNL     1      43.310   3.942   8.553  0.00  0.00    +0.000 HD
ENDBRANCH  11  12
BRANCH   6   5
ATOM      5  C   UNL     1      48.192   7.680  13.907  0.00  0.00    +0.000 C 
BRANCH   5   3
ATOM      1  C   UNL     1      50.800   7.653  11.152  0.00  0.00    +0.000 C 
ATOM      2  N   UNL     1      49.565   7.667  11.891  0.00  0.00    +0.000 N 
ATOM      3  C   UNL     1      49.562   7.691  13.269  0.00  0.00    +0.000 C 
ATOM      4  O   UNL     1      50.590   7.756  13.939  0.00  0.00    +0.000 OA
ATOM     18  H   UNL     1      48.681   7.578  11.393  0.00  0.00    +0.000 HD
ENDBRANCH   5   3
ENDBRANCH   6   5
TORSDOF 3
ENDMDL
MODEL 8
REMARK VINA RESULT:    -5.271      3.659      4.977
REMARK INTER + INTRA:          -6.659
REMARK INTER:                  -6.349
REMARK INTRA:                  -0.310
REMARK UNBOUND:                -0.464
REMARK  Name = 
REMARK  4 active torsions:
REMARK  status: ('A' for Active; 'I' for Inactive)
REMARK    1  A    between atoms: C_1  and  N_2
REMARK    2  A    between atoms: C_3  and  C_5
REMARK    3  A    between atoms: C_5  and  N_6
REMARK    4  A    between atoms: C_11  and  C_12
REMARK                            x       y       z     vdW  Elec       q    Type
REMARK                         _______ _______ _______ _____ _____    ______ ____
ROOT
ATOM      6  N   UNL     1      46.275   7.556  12.851  0.00  0.00    +0.000 N 
ATOM      7  C   UNL     1      45.567   8.542  12.210  0.00  0.00    +0.000 A 
ATOM      8  C   UNL     1      44.607   7.934  11.429  0.00  0.00    +0.000 A 
ATOM      9  C   UNL     1      44.729   6.531  11.611  0.00  0.00    +0.000 A 
ATOM     10  C   UNL     1      44.076   5.398  11.092  0.00  0.00    +0.000 A 
ATOM     11  C   UNL     1      44.504   4.141  11.533  0.00  0.00    +0.000 A 
ATOM     15  C   UNL     1      45.528   4.083  12.478  0.00  0.00    +0.000 A 
ATOM     16  N   UNL     1      46.185   5.146  13.021  0.00  0.00    +0.000 NA
ATOM     17  C   UNL     1      45.755   6.327  12.530  0.00  0.00    +0.000 A 
ENDROOT
BRANCH  11  12
ATOM     12  C   UNL     1      43.930   2.862  11.045  0.00  0.00    +0.000 C 
ATOM     13  N   UNL     1      44.484   2.269   9.945  0.00  0.00    +0.000 N 
ATOM     14  O   UNL     1      42.982   2.335  11.614  0.00  0.00    +0.000 OA
ATOM     19  H   UNL     1      45.283   2.609   9.434  0.00  0.00    +0.000 HD
ATOM     20  H   UNL     1      44.082   1.387   9.651  0.00  0.00    +0.000 HD
ENDBRANCH  11  12
BRANCH   6   5
ATOM      5  C   UNL     1      47.436   7.769  13.694  0.00  0.00    +0.000 C 
BRANCH   5   3
ATOM      1  C   UNL     1      50.467   8.722  11.618  0.00  0.00    +0.000 C 
ATOM      2  N   UNL     1      49.248   8.747  12.385  0.00  0.00    +0.000 N 
ATOM      3  C   UNL     1      48.731   7.593  12.935  0.00  0.00    +0.000 C 
ATOM      4  O   UNL     1      49.293   6.503  12.853  0.00  0.00    +0.000 OA
ATOM     18  H   UNL     1      48.719   9.613  12.458  0.00  0.00    +0.000 HD
ENDBRANCH   5   3
ENDBRANCH   6   5
TORSDOF 3
ENDMDL
MODEL 9
REMARK VINA RESULT:    -5.075      2.723      6.377
REMARK INTER + INTRA:          -6.429
REMARK INTER:                  -6.124
REMARK INTRA:                  -0.305
REMARK UNBOUND:                -0.464
REMARK  Name = 
REMARK  4 active torsions:
REMARK  status: ('A' for Active; 'I' for Inactive)
REMARK    1  A    between atoms: C_1  and  N_2
REMARK    2  A    between atoms: C_3  and  C_5
REMARK    3  A    between atoms: C_5  and  N_6
REMARK    4  A    between atoms: C_11  and  C_12
REMARK                            x       y       z     vdW  Elec       q    Type
REMARK                         _______ _______ _______ _____ _____    ______ ____
ROOT
ATOM      6  N   UNL     1      44.868   5.273  12.256  0.00  0.00    +0.000 N 
ATOM      7  C   UNL     1      45.489   4.250  12.929  0.00  0.00    +0.000 A 
ATOM      8  C   UNL     1      46.601   4.770  13.556  0.00  0.00    +0.000 A 
ATOM      9  C   UNL     1      46.651   6.158  13.262  0.00  0.00    +0.000 A 
ATOM     10  C   UNL     1      47.527   7.213  13.578  0.00  0.00    +0.000 A 
ATOM     11  C   UNL     1      47.223   8.485  13.080  0.00  0.00    +0.000 A 
ATOM     15  C   UNL     1      46.059   8.639  12.327  0.00  0.00    +0.000 A 
ATOM     16  N   UNL     1      45.172   7.657  12.002  0.00  0.00    +0.000 NA
ATOM     17  C   UNL     1      45.539   6.450  12.478  0.00  0.00    +0.000 A 
ENDROOT
BRANCH  11  12
ATOM     12  C   UNL     1      48.074   9.679  13.304  0.00  0.00    +0.000 C 
ATOM     13  N   UNL     1      47.615  10.901  12.898  0.00  0.00    +0.000 N 
ATOM     14  O   UNL     1      49.168   9.584  13.848  0.00  0.00    +0.000 OA
ATOM     19  H   UNL     1      46.719  11.081  12.475  0.00  0.00    +0.000 HD
ATOM     20  H   UNL     1      48.213  11.697  13.085  0.00  0.00    +0.000 HD
ENDBRANCH  11  12
BRANCH   6   5
ATOM      5  C   UNL     1      43.714   5.128  11.389  0.00  0.00    +0.000 C 
BRANCH   5   3
ATOM      1  C   UNL     1      44.944   3.826   8.043  0.00  0.00    +0.000 C 
ATOM      2  N   UNL     1      44.655   4.648   9.190  0.00  0.00    +0.000 N 
ATOM      3  C   UNL     1      43.962   4.143  10.269  0.00  0.00    +0.000 C 
ATOM      4  O   UNL     1      43.601   2.971  10.344  0.00  0.00    +0.000 OA
ATOM     18  H   UNL     1      44.897   5.636   9.172  0.00  0.00    +0.000 HD
ENDBRANCH   5   3
ENDBRANCH   6   5
TORSDOF 3
ENDMDL
