MODEL 1
REMARK VINA RESULT:    -6.605      0.000      0.000
REMARK INTER + INTRA:         -14.486
REMARK INTER:                 -11.239
REMARK INTRA:                  -3.247
REMARK UNBOUND:                -3.247
REMARK  Name = 
REMARK  13 active torsions:
REMARK  status: ('A' for Active; 'I' for Inactive)
REMARK    1  A    between atoms: C_1  and  C_2
REMARK    2  A    between atoms: C_2  and  C_3
REMARK    3  A    between atoms: C_3  and  C_4
REMARK    4  A    between atoms: C_4  and  C_5
REMARK    5  A    between atoms: C_5  and  C_6
REMARK    6  A    between atoms: C_6  and  N_7
REMARK    7  A    between atoms: N_7  and  C_8
REMARK    8  A    between atoms: N_7  and  C_15
REMARK    9  A    between atoms: C_8  and  C_9
REMARK   10  A    between atoms: C_15  and  C_16
REMARK   11  A    between atoms: C_19  and  C_20
REMARK   12  A    between atoms: C_20  and  N_21
REMARK   13  A    between atoms: C_22  and  C_24
REMARK                            x       y       z     vdW  Elec       q    Type
REMARK                         _______ _______ _______ _____ _____    ______ ____
ROOT
ATOM     16  C   UNL     1      45.494   6.814  11.419  0.00  0.00    +0.000 A 
ATOM     17  C   UNL     1      45.165   7.668  12.480  0.00  0.00    +0.000 A 
ATOM     18  C   UNL     1      46.164   8.218  13.287  0.00  0.00    +0.000 A 
ATOM     19  C   UNL     1      47.512   7.926  13.042  0.00  0.00    +0.000 A 
ATOM     34  C   UNL     1      47.841   7.088  11.968  0.00  0.00    +0.000 A 
ATOM     35  C   UNL     1      46.844   6.542  11.161  0.00  0.00    +0.000 A 
ENDROOT
BRANCH  16  15
ATOM     15  C   UNL     1      44.412   6.129  10.609  0.00  0.00    +0.000 C 
BRANCH  15   7
ATOM      7  N   UNL     1      44.597   4.667  10.446  0.00  0.00    +0.000 NA
BRANCH   7   6
ATOM      6  C   UNL     1      43.702   3.960  11.387  0.00  0.00    +0.000 C 
BRANCH   6   5
ATOM      5  C   UNL     1      44.363   3.001  12.379  0.00  0.00    +0.000 C 
BRANCH   5   4
ATOM      4  C   UNL     1      45.819   3.336  12.711  0.00  0.00    +0.000 C 
BRANCH   4   3
ATOM      3  C   UNL     1      45.850   4.314  13.888  0.00  0.00    +0.000 C 
BRANCH   3   2
ATOM      1  C   UNL     1      47.129   4.151  16.033  0.00  0.00    +0.000 C 
ATOM      2  C   UNL     1      47.226   4.412  14.537  0.00  0.00    +0.000 C 
ENDBRANCH   3   2
ENDBRANCH   4   3
ENDBRANCH   5   4
ENDBRANCH   6   5
ENDBRANCH   7   6
BRANCH   7   8
ATOM      8  C   UNL     1      44.334   4.282   9.039  0.00  0.00    +0.000 C 
BRANCH   8   9
ATOM      9  C   UNL     1      45.398   3.371   8.449  0.00  0.00    +0.000 A 
ATOM     10  C   UNL     1      46.357   3.879   7.559  0.00  0.00    +0.000 A 
ATOM     11  C   UNL     1      47.267   3.023   6.933  0.00  0.00    +0.000 A 
ATOM     12  C   UNL     1      47.237   1.656   7.199  0.00  0.00    +0.000 A 
ATOM     13  C   UNL     1      46.314   1.144   8.110  0.00  0.00    +0.000 A 
ATOM     14  C   UNL     1      45.403   1.998   8.737  0.00  0.00    +0.000 A 
ENDBRANCH   8   9
ENDBRANCH   7   8
ENDBRANCH  15   7
ENDBRANCH  16  15
BRANCH  19  20
ATOM     20  C   UNL     1      48.597   8.426  13.960  0.00  0.00    +0.000 C 
BRANCH  20  21
ATOM     21  N   UNL     1      48.583   7.696  15.204  0.00  0.00    +0.000 N 
ATOM     22  C   UNL     1      49.742   7.267  15.795  0.00  0.00    +0.000 C 
ATOM     23  O   UNL     1      50.845   7.499  15.308  0.00  0.00    +0.000 OA
ATOM     36  H   UNL     1      47.695   7.297  15.494  0.00  0.00    +0.000 HD
BRANCH  22  24
ATOM     24  C   UNL     1      49.603   6.575  17.081  0.00  0.00    +0.000 A 
ATOM     25  C   UNL     1      50.236   5.356  17.278  0.00  0.00    +0.000 A 
ATOM     26  S   UNL     1      50.018   4.714  18.843  0.00  0.00    +0.000 S 
ATOM     27  C   UNL     1      49.023   6.017  19.296  0.00  0.00    +0.000 A 
ATOM     28  N   UNL     1      48.464   6.073  20.535  0.00  0.00    +0.000 NA
ATOM     29  C   UNL     1      47.705   7.096  20.734  0.00  0.00    +0.000 A 
ATOM     30  N   UNL     1      47.458   8.076  19.808  0.00  0.00    +0.000 N 
ATOM     31  C   UNL     1      48.022   8.077  18.555  0.00  0.00    +0.000 A 
ATOM     32  O   UNL     1      47.809   8.990  17.759  0.00  0.00    +0.000 OA
ATOM     33  C   UNL     1      48.876   6.937  18.276  0.00  0.00    +0.000 A 
ATOM     37  H   UNL     1      46.860   8.859  20.028  0.00  0.00    +0.000 HD
ENDBRANCH  22  24
ENDBRANCH  20  21
ENDBRANCH  19  20
TORSDOF 12
ENDMDL
MODEL 2
REMARK VINA RESULT:    -6.455      1.237      2.079
REMARK INTER + INTRA:         -14.230
REMARK INTER:                 -11.303
REMARK INTRA:                  -2.927
REMARK UNBOUND:                -3.247
REMARK  Name = 
REMARK  13 active torsions:
REMARK  status: ('A' for Active; 'I' for Inactive)
REMARK    1  A    between atoms: C_1  and  C_2
REMARK    2  A    between atoms: C_2  and  C_3
REMARK    3  A    between atoms: C_3  and  C_4
REMARK    4  A    between atoms: C_4  and  C_5
REMARK    5  A    between atoms: C_5  and  C_6
REMARK    6  A    between atoms: C_6  and  N_7
REMARK    7  A    between atoms: N_7  and  C_8
REMARK    8  A    between atoms: N_7  and  C_15
REMARK    9  A    between atoms: C_8  and  C_9
REMARK   10  A    between atoms: C_15  and  C_16
REMARK   11  A    between atoms: C_19  and  C_20
REMARK   12  A    between atoms: C_20  and  N_21
REMARK   13  A    between atoms: C_22  and  C_24
REMARK                            x       y       z     vdW  Elec       q    Type
REMARK                         _______ _______ _______ _____ _____    ______ ____
ROOT
ATOM     16  C   UNL     1      45.807   6.997  11.457  0.00  0.00    +0.000 A 
ATOM     17  C   UNL     1      45.252   7.872  12.401  0.00  0.00    +0.000 A 
ATOM     18  C   UNL     1      46.071   8.563  13.298  0.00  0.00    +0.000 A 
ATOM     19  C   UNL     1      47.462   8.394  13.261  0.00  0.00    +0.000 A 
ATOM     34  C   UNL     1      48.016   7.534  12.303  0.00  0.00    +0.000 A 
ATOM     35  C   UNL     1      47.199   6.847  11.406  0.00  0.00    +0.000 A 
ENDROOT
BRANCH  16  15
ATOM     15  C   UNL     1      44.919   6.163  10.556  0.00  0.00    +0.000 C 
BRANCH  15   7
ATOM      7  N   UNL     1      45.144   4.700  10.652  0.00  0.00    +0.000 NA
BRANCH   7   6
ATOM      6  C   UNL     1      44.708   4.234  11.986  0.00  0.00    +0.000 C 
BRANCH   6   5
ATOM      5  C   UNL     1      45.535   3.118  12.630  0.00  0.00    +0.000 C 
BRANCH   5   4
ATOM      4  C   UNL     1      46.822   3.594  13.308  0.00  0.00    +0.000 C 
BRANCH   4   3
ATOM      3  C   UNL     1      46.484   4.723  14.283  0.00  0.00    +0.000 C 
BRANCH   3   2
ATOM      1  C   UNL     1      47.861   3.201  15.715  0.00  0.00    +0.000 C 
ATOM      2  C   UNL     1      47.034   4.477  15.684  0.00  0.00    +0.000 C 
ENDBRANCH   3   2
ENDBRANCH   4   3
ENDBRANCH   5   4
ENDBRANCH   6   5
ENDBRANCH   7   6
BRANCH   7   8
ATOM      8  C   UNL     1      44.417   4.009   9.562  0.00  0.00    +0.000 C 
BRANCH   8   9
ATOM      9  C   UNL     1      45.323   3.214   8.636  0.00  0.00    +0.000 A 
ATOM     10  C   UNL     1      45.460   1.826   8.790  0.00  0.00    +0.000 A 
ATOM     11  C   UNL     1      46.373   1.112   8.010  0.00  0.00    +0.000 A 
ATOM     12  C   UNL     1      47.149   1.774   7.061  0.00  0.00    +0.000 A 
ATOM     13  C   UNL     1      46.996   3.146   6.872  0.00  0.00    +0.000 A 
ATOM     14  C   UNL     1      46.083   3.862   7.650  0.00  0.00    +0.000 A 
ENDBRANCH   8   9
ENDBRANCH   7   8
ENDBRANCH  15   7
ENDBRANCH  16  15
BRANCH  19  20
ATOM     20  C   UNL     1      48.353   9.050  14.283  0.00  0.00    +0.000 C 
BRANCH  20  21
ATOM     21  N   UNL     1      48.290   8.342  15.538  0.00  0.00    +0.000 N 
ATOM     22  C   UNL     1      48.751   8.903  16.700  0.00  0.00    +0.000 C 
ATOM     23  O   UNL     1      49.221  10.037  16.733  0.00  0.00    +0.000 OA
ATOM     36  H   UNL     1      48.129   7.341  15.494  0.00  0.00    +0.000 HD
BRANCH  22  24
ATOM     24  C   UNL     1      48.590   8.104  17.920  0.00  0.00    +0.000 A 
ATOM     25  C   UNL     1      47.893   8.630  19.000  0.00  0.00    +0.000 A 
ATOM     26  S   UNL     1      47.753   7.554  20.315  0.00  0.00    +0.000 S 
ATOM     27  C   UNL     1      48.666   6.367  19.510  0.00  0.00    +0.000 A 
ATOM     28  N   UNL     1      48.949   5.177  20.107  0.00  0.00    +0.000 NA
ATOM     29  C   UNL     1      49.677   4.383  19.399  0.00  0.00    +0.000 A 
ATOM     30  N   UNL     1      50.147   4.667  18.143  0.00  0.00    +0.000 N 
ATOM     31  C   UNL     1      49.864   5.842  17.489  0.00  0.00    +0.000 A 
ATOM     32  O   UNL     1      50.269   6.051  16.348  0.00  0.00    +0.000 OA
ATOM     33  C   UNL     1      49.056   6.776  18.250  0.00  0.00    +0.000 A 
ATOM     37  H   UNL     1      50.707   3.998  17.635  0.00  0.00    +0.000 HD
ENDBRANCH  22  24
ENDBRANCH  20  21
ENDBRANCH  19  20
TORSDOF 12
ENDMDL
MODEL 3
REMARK VINA RESULT:    -6.170      2.940      9.205
REMARK INTER + INTRA:         -13.745
REMARK INTER:                 -10.562
REMARK INTRA:                  -3.183
REMARK UNBOUND:                -3.247
REMARK  Name = 
REMARK  13 active torsions:
REMARK  status: ('A' for Active; 'I' for Inactive)
REMARK    1  A    between atoms: C_1  and  C_2
REMARK    2  A    between atoms: C_2  and  C_3
REMARK    3  A    between atoms: C_3  and  C_4
REMARK    4  A    between atoms: C_4  and  C_5
REMARK    5  A    between atoms: C_5  and  C_6
REMARK    6  A    between atoms: C_6  and  N_7
REMARK    7  A    between atoms: N_7  and  C_8
REMARK    8  A    between atoms: N_7  and  C_15
REMARK    9  A    between atoms: C_8  and  C_9
REMARK   10  A    between atoms: C_15  and  C_16
REMARK   11  A    between atoms: C_19  and  C_20
REMARK   12  A    between atoms: C_20  and  N_21
REMARK   13  A    between atoms: C_22  and  C_24
REMARK                            x       y       z     vdW  Elec       q    Type
REMARK                         _______ _______ _______ _____ _____    ______ ____
ROOT
ATOM     16  C   UNL     1      50.490   7.240  15.553  0.00  0.00    +0.000 A 
ATOM     17  C   UNL     1      50.884   8.028  14.463  0.00  0.00    +0.000 A 
ATOM     18  C   UNL     1      50.026   8.220  13.377  0.00  0.00    +0.000 A 
ATOM     19  C   UNL     1      48.756   7.630  13.365  0.00  0.00    +0.000 A 
ATOM     34  C   UNL     1      48.356   6.858  14.464  0.00  0.00    +0.000 A 
ATOM     35  C   UNL     1      49.210   6.670  15.550  0.00  0.00    +0.000 A 
ENDROOT
BRANCH  16  15
ATOM     15  C   UNL     1      51.453   6.938  16.682  0.00  0.00    +0.000 C 
BRANCH  15   7
ATOM      7  N   UNL     1      50.981   5.906  17.636  0.00  0.00    +0.000 NA
BRANCH   7   6
ATOM      6  C   UNL     1      51.801   4.687  17.471  0.00  0.00    +0.000 C 
BRANCH   6   5
ATOM      5  C   UNL     1      51.149   3.358  17.865  0.00  0.00    +0.000 C 
BRANCH   5   4
ATOM      4  C   UNL     1      49.818   3.075  17.166  0.00  0.00    +0.000 C 
BRANCH   4   3
ATOM      3  C   UNL     1      48.685   3.185  18.188  0.00  0.00    +0.000 C 
BRANCH   3   2
ATOM      1  C   UNL     1      47.452   3.589  16.047  0.00  0.00    +0.000 C 
ATOM      2  C   UNL     1      47.371   3.647  17.565  0.00  0.00    +0.000 C 
ENDBRANCH   3   2
ENDBRANCH   4   3
ENDBRANCH   5   4
ENDBRANCH   6   5
ENDBRANCH   7   6
BRANCH   7   8
ATOM      8  C   UNL     1      51.049   6.433  19.020  0.00  0.00    +0.000 C 
BRANCH   8   9
ATOM      9  C   UNL     1      49.733   6.332  19.774  0.00  0.00    +0.000 A 
ATOM     10  C   UNL     1      49.667   5.667  21.008  0.00  0.00    +0.000 A 
ATOM     11  C   UNL     1      48.439   5.481  21.648  0.00  0.00    +0.000 A 
ATOM     12  C   UNL     1      47.268   5.969  21.070  0.00  0.00    +0.000 A 
ATOM     13  C   UNL     1      47.325   6.665  19.864  0.00  0.00    +0.000 A 
ATOM     14  C   UNL     1      48.551   6.851  19.221  0.00  0.00    +0.000 A 
ENDBRANCH   8   9
ENDBRANCH   7   8
ENDBRANCH  15   7
ENDBRANCH  16  15
BRANCH  19  20
ATOM     20  C   UNL     1      47.856   7.740  12.161  0.00  0.00    +0.000 C 
BRANCH  20  21
ATOM     21  N   UNL     1      47.102   6.524  11.980  0.00  0.00    +0.000 N 
ATOM     22  C   UNL     1      45.733   6.532  11.929  0.00  0.00    +0.000 C 
ATOM     23  O   UNL     1      45.085   7.571  12.015  0.00  0.00    +0.000 OA
ATOM     36  H   UNL     1      47.593   5.650  12.141  0.00  0.00    +0.000 HD
BRANCH  22  24
ATOM     24  C   UNL     1      45.080   5.239  11.695  0.00  0.00    +0.000 A 
ATOM     25  C   UNL     1      44.400   4.614  12.731  0.00  0.00    +0.000 A 
ATOM     26  S   UNL     1      43.654   3.150  12.277  0.00  0.00    +0.000 S 
ATOM     27  C   UNL     1      44.259   3.271  10.692  0.00  0.00    +0.000 A 
ATOM     28  N   UNL     1      44.007   2.302   9.770  0.00  0.00    +0.000 NA
ATOM     29  C   UNL     1      44.554   2.503   8.621  0.00  0.00    +0.000 A 
ATOM     30  N   UNL     1      45.328   3.589   8.303  0.00  0.00    +0.000 N 
ATOM     31  C   UNL     1      45.586   4.605   9.191  0.00  0.00    +0.000 A 
ATOM     32  O   UNL     1      46.254   5.584   8.864  0.00  0.00    +0.000 OA
ATOM     33  C   UNL     1      45.002   4.421  10.506  0.00  0.00    +0.000 A 
ATOM     37  H   UNL     1      45.722   3.693   7.380  0.00  0.00    +0.000 HD
ENDBRANCH  22  24
ENDBRANCH  20  21
ENDBRANCH  19  20
TORSDOF 12
ENDMDL
MODEL 4
REMARK VINA RESULT:    -6.017      1.473      2.169
REMARK INTER + INTRA:         -13.486
REMARK INTER:                 -10.953
REMARK INTRA:                  -2.533
REMARK UNBOUND:                -3.247
REMARK  Name = 
REMARK  13 active torsions:
REMARK  status: ('A' for Active; 'I' for Inactive)
REMARK    1  A    between atoms: C_1  and  C_2
REMARK    2  A    between atoms: C_2  and  C_3
REMARK    3  A    between atoms: C_3  and  C_4
REMARK    4  A    between atoms: C_4  and  C_5
REMARK    5  A    between atoms: C_5  and  C_6
REMARK    6  A    between atoms: C_6  and  N_7
REMARK    7  A    between atoms: N_7  and  C_8
REMARK    8  A    between atoms: N_7  and  C_15
REMARK    9  A    between atoms: C_8  and  C_9
REMARK   10  A    between atoms: C_15  and  C_16
REMARK   11  A    between atoms: C_19  and  C_20
REMARK   12  A    between atoms: C_20  and  N_21
REMARK   13  A    between atoms: C_22  and  C_24
REMARK                            x       y       z     vdW  Elec       q    Type
REMARK                         _______ _______ _______ _____ _____    ______ ____
ROOT
ATOM     16  C   UNL     1      45.852   6.764  10.998  0.00  0.00    +0.000 A 
ATOM     17  C   UNL     1      47.194   6.493  11.300  0.00  0.00    +0.000 A 
ATOM     18  C   UNL     1      47.820   7.118  12.381  0.00  0.00    +0.000 A 
ATOM     19  C   UNL     1      47.111   8.022  13.184  0.00  0.00    +0.000 A 
ATOM     34  C   UNL     1      45.764   8.276  12.893  0.00  0.00    +0.000 A 
ATOM     35  C   UNL     1      45.139   7.650  11.816  0.00  0.00    +0.000 A 
ENDROOT
BRANCH  16  15
ATOM     15  C   UNL     1      45.199   6.175   9.765  0.00  0.00    +0.000 C 
BRANCH  15   7
ATOM      7  N   UNL     1      44.982   4.709   9.823  0.00  0.00    +0.000 NA
BRANCH   7   6
ATOM      6  C   UNL     1      43.845   4.426  10.724  0.00  0.00    +0.000 C 
BRANCH   6   5
ATOM      5  C   UNL     1      43.849   3.071  11.436  0.00  0.00    +0.000 C 
BRANCH   5   4
ATOM      4  C   UNL     1      43.760   3.156  12.961  0.00  0.00    +0.000 C 
BRANCH   4   3
ATOM      3  C   UNL     1      44.220   4.544  13.411  0.00  0.00    +0.000 C 
BRANCH   3   2
ATOM      1  C   UNL     1      46.469   3.454  13.267  0.00  0.00    +0.000 C 
ATOM      2  C   UNL     1      45.652   4.551  13.934  0.00  0.00    +0.000 C 
ENDBRANCH   3   2
ENDBRANCH   4   3
ENDBRANCH   5   4
ENDBRANCH   6   5
ENDBRANCH   7   6
BRANCH   7   8
ATOM      8  C   UNL     1      44.747   4.183   8.457  0.00  0.00    +0.000 C 
BRANCH   8   9
ATOM      9  C   UNL     1      45.802   3.188   8.000  0.00  0.00    +0.000 A 
ATOM     10  C   UNL     1      46.819   3.583   7.117  0.00  0.00    +0.000 A 
ATOM     11  C   UNL     1      47.723   2.644   6.612  0.00  0.00    +0.000 A 
ATOM     12  C   UNL     1      47.629   1.308   6.994  0.00  0.00    +0.000 A 
ATOM     13  C   UNL     1      46.647   0.910   7.900  0.00  0.00    +0.000 A 
ATOM     14  C   UNL     1      45.742   1.846   8.406  0.00  0.00    +0.000 A 
ENDBRANCH   8   9
ENDBRANCH   7   8
ENDBRANCH  15   7
ENDBRANCH  16  15
BRANCH  19  20
ATOM     20  C   UNL     1      47.795   8.781  14.291  0.00  0.00    +0.000 C 
BRANCH  20  21
ATOM     21  N   UNL     1      47.911   7.960  15.471  0.00  0.00    +0.000 N 
ATOM     22  C   UNL     1      48.893   8.178  16.401  0.00  0.00    +0.000 C 
ATOM     23  O   UNL     1      49.707   9.090  16.286  0.00  0.00    +0.000 OA
ATOM     36  H   UNL     1      47.411   7.076  15.468  0.00  0.00    +0.000 HD
BRANCH  22  24
ATOM     24  C   UNL     1      48.881   7.307  17.582  0.00  0.00    +0.000 A 
ATOM     25  C   UNL     1      49.067   7.856  18.843  0.00  0.00    +0.000 A 
ATOM     26  S   UNL     1      48.970   6.716  20.108  0.00  0.00    +0.000 S 
ATOM     27  C   UNL     1      48.732   5.439  19.010  0.00  0.00    +0.000 A 
ATOM     28  N   UNL     1      48.600   4.157  19.447  0.00  0.00    +0.000 NA
ATOM     29  C   UNL     1      48.459   3.285  18.508  0.00  0.00    +0.000 A 
ATOM     30  N   UNL     1      48.432   3.576  17.168  0.00  0.00    +0.000 N 
ATOM     31  C   UNL     1      48.533   4.858  16.683  0.00  0.00    +0.000 A 
ATOM     32  O   UNL     1      48.469   5.091  15.478  0.00  0.00    +0.000 OA
ATOM     33  C   UNL     1      48.706   5.877  17.701  0.00  0.00    +0.000 A 
ATOM     37  H   UNL     1      48.310   2.847  16.481  0.00  0.00    +0.000 HD
ENDBRANCH  22  24
ENDBRANCH  20  21
ENDBRANCH  19  20
TORSDOF 12
ENDMDL
MODEL 5
REMARK VINA RESULT:    -5.926      3.235      8.868
REMARK INTER + INTRA:         -13.331
REMARK INTER:                 -10.791
REMARK INTRA:                  -2.540
REMARK UNBOUND:                -3.247
REMARK  Name = 
REMARK  13 active torsions:
REMARK  status: ('A' for Active; 'I' for Inactive)
REMARK    1  A    between atoms: C_1  and  C_2
REMARK    2  A    between atoms: C_2  and  C_3
REMARK    3  A    between atoms: C_3  and  C_4
REMARK    4  A    between atoms: C_4  and  C_5
REMARK    5  A    between atoms: C_5  and  C_6
REMARK    6  A    between atoms: C_6  and  N_7
REMARK    7  A    between atoms: N_7  and  C_8
REMARK    8  A    between atoms: N_7  and  C_15
REMARK    9  A    between atoms: C_8  and  C_9
REMARK   10  A    between atoms: C_15  and  C_16
REMARK   11  A    between atoms: C_19  and  C_20
REMARK   12  A    between atoms: C_20  and  N_21
REMARK   13  A    between atoms: C_22  and  C_24
REMARK                            x       y       z     vdW  Elec       q    Type
REMARK                         _______ _______ _______ _____ _____    ______ ____
ROOT
ATOM     16  C   UNL     1      50.291   6.870  15.713  0.00  0.00    +0.000 A 
ATOM     17  C   UNL     1      50.941   7.689  14.779  0.00  0.00    +0.000 A 
ATOM     18  C   UNL     1      50.273   8.132  13.634  0.00  0.00    +0.000 A 
ATOM     19  C   UNL     1      48.939   7.765  13.407  0.00  0.00    +0.000 A 
ATOM     34  C   UNL     1      48.286   6.962  14.351  0.00  0.00    +0.000 A 
ATOM     35  C   UNL     1      48.951   6.524  15.495  0.00  0.00    +0.000 A 
ENDROOT
BRANCH  16  15
ATOM     15  C   UNL     1      51.040   6.298  16.899  0.00  0.00    +0.000 C 
BRANCH  15   7
ATOM      7  N   UNL     1      50.190   5.990  18.074  0.00  0.00    +0.000 NA
BRANCH   7   6
ATOM      6  C   UNL     1      50.540   4.646  18.581  0.00  0.00    +0.000 C 
BRANCH   6   5
ATOM      5  C   UNL     1      50.953   3.602  17.541  0.00  0.00    +0.000 C 
BRANCH   5   4
ATOM      4  C   UNL     1      50.020   2.392  17.452  0.00  0.00    +0.000 C 
BRANCH   4   3
ATOM      3  C   UNL     1      48.782   2.775  16.640  0.00  0.00    +0.000 C 
BRANCH   3   2
ATOM      1  C   UNL     1      47.011   4.318  17.506  0.00  0.00    +0.000 C 
ATOM      2  C   UNL     1      47.526   2.886  17.497  0.00  0.00    +0.000 C 
ENDBRANCH   3   2
ENDBRANCH   4   3
ENDBRANCH   5   4
ENDBRANCH   6   5
ENDBRANCH   7   6
BRANCH   7   8
ATOM      8  C   UNL     1      50.370   7.034  19.111  0.00  0.00    +0.000 C 
BRANCH   8   9
ATOM      9  C   UNL     1      49.132   7.888  19.334  0.00  0.00    +0.000 A 
ATOM     10  C   UNL     1      48.716   8.809  18.360  0.00  0.00    +0.000 A 
ATOM     11  C   UNL     1      47.644   9.669  18.610  0.00  0.00    +0.000 A 
ATOM     12  C   UNL     1      46.969   9.609  19.827  0.00  0.00    +0.000 A 
ATOM     13  C   UNL     1      47.348   8.673  20.788  0.00  0.00    +0.000 A 
ATOM     14  C   UNL     1      48.420   7.812  20.541  0.00  0.00    +0.000 A 
ENDBRANCH   8   9
ENDBRANCH   7   8
ENDBRANCH  15   7
ENDBRANCH  16  15
BRANCH  19  20
ATOM     20  C   UNL     1      48.234   8.147  12.131  0.00  0.00    +0.000 C 
BRANCH  20  21
ATOM     21  N   UNL     1      47.557   7.005  11.567  0.00  0.00    +0.000 N 
ATOM     22  C   UNL     1      46.190   6.946  11.498  0.00  0.00    +0.000 C 
ATOM     23  O   UNL     1      45.478   7.865  11.892  0.00  0.00    +0.000 OA
ATOM     36  H   UNL     1      48.102   6.155  11.455  0.00  0.00    +0.000 HD
BRANCH  22  24
ATOM     24  C   UNL     1      45.618   5.754  10.861  0.00  0.00    +0.000 A 
ATOM     25  C   UNL     1      45.805   5.544   9.501  0.00  0.00    +0.000 A 
ATOM     26  S   UNL     1      45.123   4.089   8.933  0.00  0.00    +0.000 S 
ATOM     27  C   UNL     1      44.506   3.714  10.472  0.00  0.00    +0.000 A 
ATOM     28  N   UNL     1      43.776   2.583  10.677  0.00  0.00    +0.000 NA
ATOM     29  C   UNL     1      43.341   2.440  11.883  0.00  0.00    +0.000 A 
ATOM     30  N   UNL     1      43.574   3.320  12.907  0.00  0.00    +0.000 N 
ATOM     31  C   UNL     1      44.329   4.459  12.754  0.00  0.00    +0.000 A 
ATOM     32  O   UNL     1      44.550   5.210  13.702  0.00  0.00    +0.000 OA
ATOM     33  C   UNL     1      44.832   4.674  11.411  0.00  0.00    +0.000 A 
ATOM     37  H   UNL     1      43.212   3.146  13.833  0.00  0.00    +0.000 HD
ENDBRANCH  22  24
ENDBRANCH  20  21
ENDBRANCH  19  20
TORSDOF 12
ENDMDL
MODEL 6
REMARK VINA RESULT:    -5.823      3.101      8.683
REMARK INTER + INTRA:         -13.155
REMARK INTER:                 -10.348
REMARK INTRA:                  -2.806
REMARK UNBOUND:                -3.247
REMARK  Name = 
REMARK  13 active torsions:
REMARK  status: ('A' for Active; 'I' for Inactive)
REMARK    1  A    between atoms: C_1  and  C_2
REMARK    2  A    between atoms: C_2  and  C_3
REMARK    3  A    between atoms: C_3  and  C_4
REMARK    4  A    between atoms: C_4  and  C_5
REMARK    5  A    between atoms: C_5  and  C_6
REMARK    6  A    between atoms: C_6  and  N_7
REMARK    7  A    between atoms: N_7  and  C_8
REMARK    8  A    between atoms: N_7  and  C_15
REMARK    9  A    between atoms: C_8  and  C_9
REMARK   10  A    between atoms: C_15  and  C_16
REMARK   11  A    between atoms: C_19  and  C_20
REMARK   12  A    between atoms: C_20  and  N_21
REMARK   13  A    between atoms: C_22  and  C_24
REMARK                            x       y       z     vdW  Elec       q    Type
REMARK                         _______ _______ _______ _____ _____    ______ ____
ROOT
ATOM     16  C   UNL     1      49.744   8.350  16.026  0.00  0.00    +0.000 A 
ATOM     17  C   UNL     1      50.310   7.605  14.982  0.00  0.00    +0.000 A 
ATOM     18  C   UNL     1      49.692   7.550  13.730  0.00  0.00    +0.000 A 
ATOM     19  C   UNL     1      48.498   8.245  13.499  0.00  0.00    +0.000 A 
ATOM     34  C   UNL     1      47.944   9.005  14.538  0.00  0.00    +0.000 A 
ATOM     35  C   UNL     1      48.562   9.063  15.786  0.00  0.00    +0.000 A 
ENDROOT
BRANCH  16  15
ATOM     15  C   UNL     1      50.348   8.326  17.415  0.00  0.00    +0.000 C 
BRANCH  15   7
ATOM      7  N   UNL     1      50.418   6.980  18.033  0.00  0.00    +0.000 NA
BRANCH   7   6
ATOM      6  C   UNL     1      51.494   6.972  19.047  0.00  0.00    +0.000 C 
BRANCH   6   5
ATOM      5  C   UNL     1      51.997   5.602  19.509  0.00  0.00    +0.000 C 
BRANCH   5   4
ATOM      4  C   UNL     1      52.816   4.843  18.463  0.00  0.00    +0.000 C 
BRANCH   4   3
ATOM      3  C   UNL     1      51.900   3.866  17.725  0.00  0.00    +0.000 C 
BRANCH   3   2
ATOM      1  C   UNL     1      51.270   1.464  17.408  0.00  0.00    +0.000 C 
ATOM      2  C   UNL     1      52.379   2.421  17.819  0.00  0.00    +0.000 C 
ENDBRANCH   3   2
ENDBRANCH   4   3
ENDBRANCH   5   4
ENDBRANCH   6   5
ENDBRANCH   7   6
BRANCH   7   8
ATOM      8  C   UNL     1      49.104   6.629  18.621  0.00  0.00    +0.000 C 
BRANCH   8   9
ATOM      9  C   UNL     1      48.552   5.301  18.127  0.00  0.00    +0.000 A 
ATOM     10  C   UNL     1      48.533   4.180  18.970  0.00  0.00    +0.000 A 
ATOM     11  C   UNL     1      48.126   2.934  18.483  0.00  0.00    +0.000 A 
ATOM     12  C   UNL     1      47.724   2.800  17.156  0.00  0.00    +0.000 A 
ATOM     13  C   UNL     1      47.702   3.915  16.319  0.00  0.00    +0.000 A 
ATOM     14  C   UNL     1      48.108   5.161  16.803  0.00  0.00    +0.000 A 
ENDBRANCH   8   9
ENDBRANCH   7   8
ENDBRANCH  15   7
ENDBRANCH  16  15
BRANCH  19  20
ATOM     20  C   UNL     1      47.764   8.118  12.190  0.00  0.00    +0.000 C 
BRANCH  20  21
ATOM     21  N   UNL     1      47.009   6.889  12.151  0.00  0.00    +0.000 N 
ATOM     22  C   UNL     1      45.698   6.867  11.754  0.00  0.00    +0.000 C 
ATOM     23  O   UNL     1      45.110   7.883  11.395  0.00  0.00    +0.000 OA
ATOM     36  H   UNL     1      47.393   6.096  12.656  0.00  0.00    +0.000 HD
BRANCH  22  24
ATOM     24  C   UNL     1      45.050   5.551  11.711  0.00  0.00    +0.000 A 
ATOM     25  C   UNL     1      44.406   5.064  12.841  0.00  0.00    +0.000 A 
ATOM     26  S   UNL     1      43.660   3.549  12.606  0.00  0.00    +0.000 S 
ATOM     27  C   UNL     1      44.218   3.464  11.002  0.00  0.00    +0.000 A 
ATOM     28  N   UNL     1      43.947   2.381  10.223  0.00  0.00    +0.000 NA
ATOM     29  C   UNL     1      44.459   2.431   9.041  0.00  0.00    +0.000 A 
ATOM     30  N   UNL     1      45.213   3.470   8.560  0.00  0.00    +0.000 N 
ATOM     31  C   UNL     1      45.488   4.595   9.299  0.00  0.00    +0.000 A 
ATOM     32  O   UNL     1      46.138   5.526   8.826  0.00  0.00    +0.000 OA
ATOM     33  C   UNL     1      44.945   4.583  10.644  0.00  0.00    +0.000 A 
ATOM     37  H   UNL     1      45.579   3.453   7.619  0.00  0.00    +0.000 HD
ENDBRANCH  22  24
ENDBRANCH  20  21
ENDBRANCH  19  20
TORSDOF 12
ENDMDL
MODEL 7
REMARK VINA RESULT:    -5.777      3.789      9.282
REMARK INTER + INTRA:         -13.077
REMARK INTER:                  -9.789
REMARK INTRA:                  -3.287
REMARK UNBOUND:                -3.247
REMARK  Name = 
REMARK  13 active torsions:
REMARK  status: ('A' for Active; 'I' for Inactive)
REMARK    1  A    between atoms: C_1  and  C_2
REMARK    2  A    between atoms: C_2  and  C_3
REMARK    3  A    between atoms: C_3  and  C_4
REMARK    4  A    between atoms: C_4  and  C_5
REMARK    5  A    between atoms: C_5  and  C_6
REMARK    6  A    between atoms: C_6  and  N_7
REMARK    7  A    between atoms: N_7  and  C_8
REMARK    8  A    between atoms: N_7  and  C_15
REMARK    9  A    between atoms: C_8  and  C_9
REMARK   10  A    between atoms: C_15  and  C_16
REMARK   11  A    between atoms: C_19  and  C_20
REMARK   12  A    between atoms: C_20  and  N_21
REMARK   13  A    between atoms: C_22  and  C_24
REMARK                            x       y       z     vdW  Elec       q    Type
REMARK                         _______ _______ _______ _____ _____    ______ ____
ROOT
ATOM     16  C   UNL     1      51.416   4.373  17.768  0.00  0.00    +0.000 A 
ATOM     17  C   UNL     1      50.973   3.044  17.734  0.00  0.00    +0.000 A 
ATOM     18  C   UNL     1      49.664   2.740  17.348  0.00  0.00    +0.000 A 
ATOM     19  C   UNL     1      48.778   3.763  16.985  0.00  0.00    +0.000 A 
ATOM     34  C   UNL     1      49.230   5.090  17.001  0.00  0.00    +0.000 A 
ATOM     35  C   UNL     1      50.536   5.392  17.382  0.00  0.00    +0.000 A 
ENDROOT
BRANCH  16  15
ATOM     15  C   UNL     1      52.797   4.718  18.288  0.00  0.00    +0.000 C 
BRANCH  15   7
ATOM      7  N   UNL     1      52.910   6.071  18.884  0.00  0.00    +0.000 NA
BRANCH   7   6
ATOM      6  C   UNL     1      53.155   5.938  20.336  0.00  0.00    +0.000 C 
BRANCH   6   5
ATOM      5  C   UNL     1      52.133   6.590  21.271  0.00  0.00    +0.000 C 
BRANCH   5   4
ATOM      4  C   UNL     1      50.674   6.371  20.864  0.00  0.00    +0.000 C 
BRANCH   4   3
ATOM      3  C   UNL     1      50.266   4.941  21.223  0.00  0.00    +0.000 C 
BRANCH   3   2
ATOM      1  C   UNL     1      48.072   5.861  20.445  0.00  0.00    +0.000 C 
ATOM      2  C   UNL     1      48.856   4.596  20.756  0.00  0.00    +0.000 C 
ENDBRANCH   3   2
ENDBRANCH   4   3
ENDBRANCH   5   4
ENDBRANCH   6   5
ENDBRANCH   7   6
BRANCH   7   8
ATOM      8  C   UNL     1      53.992   6.827  18.210  0.00  0.00    +0.000 C 
BRANCH   8   9
ATOM      9  C   UNL     1      53.544   7.522  16.934  0.00  0.00    +0.000 A 
ATOM     10  C   UNL     1      52.512   8.472  16.965  0.00  0.00    +0.000 A 
ATOM     11  C   UNL     1      52.027   9.030  15.779  0.00  0.00    +0.000 A 
ATOM     12  C   UNL     1      52.576   8.656  14.554  0.00  0.00    +0.000 A 
ATOM     13  C   UNL     1      53.627   7.742  14.514  0.00  0.00    +0.000 A 
ATOM     14  C   UNL     1      54.114   7.182  15.697  0.00  0.00    +0.000 A 
ENDBRANCH   8   9
ENDBRANCH   7   8
ENDBRANCH  15   7
ENDBRANCH  16  15
BRANCH  19  20
ATOM     20  C   UNL     1      47.336   3.467  16.665  0.00  0.00    +0.000 C 
BRANCH  20  21
ATOM     21  N   UNL     1      46.816   4.435  15.731  0.00  0.00    +0.000 N 
ATOM     22  C   UNL     1      46.797   4.190  14.383  0.00  0.00    +0.000 C 
ATOM     23  O   UNL     1      47.201   3.133  13.908  0.00  0.00    +0.000 OA
ATOM     36  H   UNL     1      46.700   5.385  16.069  0.00  0.00    +0.000 HD
BRANCH  22  24
ATOM     24  C   UNL     1      46.202   5.231  13.538  0.00  0.00    +0.000 A 
ATOM     25  C   UNL     1      46.877   6.428  13.342  0.00  0.00    +0.000 A 
ATOM     26  S   UNL     1      46.074   7.505  12.291  0.00  0.00    +0.000 S 
ATOM     27  C   UNL     1      44.767   6.432  12.104  0.00  0.00    +0.000 A 
ATOM     28  N   UNL     1      43.695   6.762  11.333  0.00  0.00    +0.000 NA
ATOM     29  C   UNL     1      42.763   5.872  11.306  0.00  0.00    +0.000 A 
ATOM     30  N   UNL     1      42.804   4.676  11.976  0.00  0.00    +0.000 N 
ATOM     31  C   UNL     1      43.877   4.289  12.742  0.00  0.00    +0.000 A 
ATOM     32  O   UNL     1      43.899   3.194  13.301  0.00  0.00    +0.000 OA
ATOM     33  C   UNL     1      44.950   5.262  12.816  0.00  0.00    +0.000 A 
ATOM     37  H   UNL     1      42.043   4.017  11.907  0.00  0.00    +0.000 HD
ENDBRANCH  22  24
ENDBRANCH  20  21
ENDBRANCH  19  20
TORSDOF 12
ENDMDL
MODEL 8
REMARK VINA RESULT:    -5.710      3.100      8.761
REMARK INTER + INTRA:         -12.964
REMARK INTER:                  -9.971
REMARK INTRA:                  -2.993
REMARK UNBOUND:                -3.247
REMARK  Name = 
REMARK  13 active torsions:
REMARK  status: ('A' for Active; 'I' for Inactive)
REMARK    1  A    between atoms: C_1  and  C_2
REMARK    2  A    between atoms: C_2  and  C_3
REMARK    3  A    between atoms: C_3  and  C_4
REMARK    4  A    between atoms: C_4  and  C_5
REMARK    5  A    between atoms: C_5  and  C_6
REMARK    6  A    between atoms: C_6  and  N_7
REMARK    7  A    between atoms: N_7  and  C_8
REMARK    8  A    between atoms: N_7  and  C_15
REMARK    9  A    between atoms: C_8  and  C_9
REMARK   10  A    between atoms: C_15  and  C_16
REMARK   11  A    between atoms: C_19  and  C_20
REMARK   12  A    between atoms: C_20  and  N_21
REMARK   13  A    between atoms: C_22  and  C_24
REMARK                            x       y       z     vdW  Elec       q    Type
REMARK                         _______ _______ _______ _____ _____    ______ ____
ROOT
ATOM     16  C   UNL     1      48.852   8.165  16.235  0.00  0.00    +0.000 A 
ATOM     17  C   UNL     1      49.309   7.069  15.490  0.00  0.00    +0.000 A 
ATOM     18  C   UNL     1      48.998   6.952  14.133  0.00  0.00    +0.000 A 
ATOM     19  C   UNL     1      48.228   7.934  13.496  0.00  0.00    +0.000 A 
ATOM     34  C   UNL     1      47.788   9.039  14.238  0.00  0.00    +0.000 A 
ATOM     35  C   UNL     1      48.102   9.158  15.591  0.00  0.00    +0.000 A 
ENDROOT
BRANCH  16  15
ATOM     15  C   UNL     1      49.093   8.244  17.729  0.00  0.00    +0.000 C 
BRANCH  15   7
ATOM      7  N   UNL     1      49.808   7.077  18.300  0.00  0.00    +0.000 NA
BRANCH   7   6
ATOM      6  C   UNL     1      50.822   7.558  19.263  0.00  0.00    +0.000 C 
BRANCH   6   5
ATOM      5  C   UNL     1      52.273   7.593  18.776  0.00  0.00    +0.000 C 
BRANCH   5   4
ATOM      4  C   UNL     1      52.481   7.034  17.367  0.00  0.00    +0.000 C 
BRANCH   4   3
ATOM      3  C   UNL     1      53.053   8.136  16.473  0.00  0.00    +0.000 C 
BRANCH   3   2
ATOM      1  C   UNL     1      52.418   8.414  14.068  0.00  0.00    +0.000 C 
ATOM      2  C   UNL     1      53.310   7.665  15.046  0.00  0.00    +0.000 C 
ENDBRANCH   3   2
ENDBRANCH   4   3
ENDBRANCH   5   4
ENDBRANCH   6   5
ENDBRANCH   7   6
BRANCH   7   8
ATOM      8  C   UNL     1      48.836   6.157  18.937  0.00  0.00    +0.000 C 
BRANCH   8   9
ATOM      9  C   UNL     1      48.724   4.812  18.237  0.00  0.00    +0.000 A 
ATOM     10  C   UNL     1      49.859   4.009  18.050  0.00  0.00    +0.000 A 
ATOM     11  C   UNL     1      49.776   2.824  17.314  0.00  0.00    +0.000 A 
ATOM     12  C   UNL     1      48.558   2.424  16.768  0.00  0.00    +0.000 A 
ATOM     13  C   UNL     1      47.415   3.194  16.979  0.00  0.00    +0.000 A 
ATOM     14  C   UNL     1      47.495   4.378  17.715  0.00  0.00    +0.000 A 
ENDBRANCH   8   9
ENDBRANCH   7   8
ENDBRANCH  15   7
ENDBRANCH  16  15
BRANCH  19  20
ATOM     20  C   UNL     1      47.796   7.776  12.061  0.00  0.00    +0.000 C 
BRANCH  20  21
ATOM     21  N   UNL     1      47.058   6.549  11.887  0.00  0.00    +0.000 N 
ATOM     22  C   UNL     1      45.688   6.533  11.881  0.00  0.00    +0.000 C 
ATOM     23  O   UNL     1      45.025   7.559  12.002  0.00  0.00    +0.000 OA
ATOM     36  H   UNL     1      47.569   5.682  12.020  0.00  0.00    +0.000 HD
BRANCH  22  24
ATOM     24  C   UNL     1      45.051   5.232  11.649  0.00  0.00    +0.000 A 
ATOM     25  C   UNL     1      44.368   4.607  12.684  0.00  0.00    +0.000 A 
ATOM     26  S   UNL     1      43.642   3.132  12.233  0.00  0.00    +0.000 S 
ATOM     27  C   UNL     1      44.260   3.249  10.653  0.00  0.00    +0.000 A 
ATOM     28  N   UNL     1      44.025   2.271   9.735  0.00  0.00    +0.000 NA
ATOM     29  C   UNL     1      44.580   2.470   8.589  0.00  0.00    +0.000 A 
ATOM     30  N   UNL     1      45.346   3.562   8.271  0.00  0.00    +0.000 N 
ATOM     31  C   UNL     1      45.585   4.587   9.155  0.00  0.00    +0.000 A 
ATOM     32  O   UNL     1      46.246   5.571   8.827  0.00  0.00    +0.000 OA
ATOM     33  C   UNL     1      44.992   4.405  10.466  0.00  0.00    +0.000 A 
ATOM     37  H   UNL     1      45.746   3.664   7.350  0.00  0.00    +0.000 HD
ENDBRANCH  22  24
ENDBRANCH  20  21
ENDBRANCH  19  20
TORSDOF 12
ENDMDL
MODEL 9
REMARK VINA RESULT:    -5.689      2.960      8.743
REMARK INTER + INTRA:         -12.928
REMARK INTER:                 -10.451
REMARK INTRA:                  -2.477
REMARK UNBOUND:                -3.247
REMARK  Name = 
REMARK  13 active torsions:
REMARK  status: ('A' for Active; 'I' for Inactive)
REMARK    1  A    between atoms: C_1  and  C_2
REMARK    2  A    between atoms: C_2  and  C_3
REMARK    3  A    between atoms: C_3  and  C_4
REMARK    4  A    between atoms: C_4  and  C_5
REMARK    5  A    between atoms: C_5  and  C_6
REMARK    6  A    between atoms: C_6  and  N_7
REMARK    7  A    between atoms: N_7  and  C_8
REMARK    8  A    between atoms: N_7  and  C_15
REMARK    9  A    between atoms: C_8  and  C_9
REMARK   10  A    between atoms: C_15  and  C_16
REMARK   11  A    between atoms: C_19  and  C_20
REMARK   12  A    between atoms: C_20  and  N_21
REMARK   13  A    between atoms: C_22  and  C_24
REMARK                            x       y       z     vdW  Elec       q    Type
REMARK                         _______ _______ _______ _____ _____    ______ ____
ROOT
ATOM     16  C   UNL     1      49.378   8.133  15.946  0.00  0.00    +0.000 A 
ATOM     17  C   UNL     1      48.231   8.873  15.631  0.00  0.00    +0.000 A 
ATOM     18  C   UNL     1      47.638   8.764  14.370  0.00  0.00    +0.000 A 
ATOM     19  C   UNL     1      48.181   7.906  13.404  0.00  0.00    +0.000 A 
ATOM     34  C   UNL     1      49.317   7.152  13.728  0.00  0.00    +0.000 A 
ATOM     35  C   UNL     1      49.906   7.258  14.987  0.00  0.00    +0.000 A 
ENDROOT
BRANCH  16  15
ATOM     15  C   UNL     1      50.089   8.327  17.270  0.00  0.00    +0.000 C 
BRANCH  15   7
ATOM      7  N   UNL     1      50.136   7.118  18.127  0.00  0.00    +0.000 NA
BRANCH   7   6
ATOM      6  C   UNL     1      50.622   7.499  19.471  0.00  0.00    +0.000 C 
BRANCH   6   5
ATOM      5  C   UNL     1      49.564   7.931  20.490  0.00  0.00    +0.000 C 
BRANCH   5   4
ATOM      4  C   UNL     1      49.666   7.226  21.844  0.00  0.00    +0.000 C 
BRANCH   4   3
ATOM      3  C   UNL     1      49.822   5.722  21.613  0.00  0.00    +0.000 C 
BRANCH   3   2
ATOM      1  C   UNL     1      47.411   5.699  22.284  0.00  0.00    +0.000 C 
ATOM      2  C   UNL     1      48.485   5.006  21.459  0.00  0.00    +0.000 C 
ENDBRANCH   3   2
ENDBRANCH   4   3
ENDBRANCH   5   4
ENDBRANCH   6   5
ENDBRANCH   7   6
BRANCH   7   8
ATOM      8  C   UNL     1      48.795   6.490  18.184  0.00  0.00    +0.000 C 
BRANCH   8   9
ATOM      9  C   UNL     1      48.780   5.046  17.710  0.00  0.00    +0.000 A 
ATOM     10  C   UNL     1      49.881   4.208  17.942  0.00  0.00    +0.000 A 
ATOM     11  C   UNL     1      49.911   2.915  17.413  0.00  0.00    +0.000 A 
ATOM     12  C   UNL     1      48.839   2.442  16.660  0.00  0.00    +0.000 A 
ATOM     13  C   UNL     1      47.722   3.251  16.455  0.00  0.00    +0.000 A 
ATOM     14  C   UNL     1      47.690   4.544  16.982  0.00  0.00    +0.000 A 
ENDBRANCH   8   9
ENDBRANCH   7   8
ENDBRANCH  15   7
ENDBRANCH  16  15
BRANCH  19  20
ATOM     20  C   UNL     1      47.618   7.850  12.008  0.00  0.00    +0.000 C 
BRANCH  20  21
ATOM     21  N   UNL     1      46.924   6.605  11.793  0.00  0.00    +0.000 N 
ATOM     22  C   UNL     1      45.560   6.521  11.882  0.00  0.00    +0.000 C 
ATOM     23  O   UNL     1      44.863   7.501  12.130  0.00  0.00    +0.000 OA
ATOM     36  H   UNL     1      47.481   5.756  11.821  0.00  0.00    +0.000 HD
BRANCH  22  24
ATOM     24  C   UNL     1      44.964   5.211  11.597  0.00  0.00    +0.000 A 
ATOM     25  C   UNL     1      44.272   4.538  12.594  0.00  0.00    +0.000 A 
ATOM     26  S   UNL     1      43.598   3.058  12.082  0.00  0.00    +0.000 S 
ATOM     27  C   UNL     1      44.254   3.237  10.523  0.00  0.00    +0.000 A 
ATOM     28  N   UNL     1      44.071   2.280   9.572  0.00  0.00    +0.000 NA
ATOM     29  C   UNL     1      44.650   2.527   8.448  0.00  0.00    +0.000 A 
ATOM     30  N   UNL     1      45.394   3.648   8.181  0.00  0.00    +0.000 N 
ATOM     31  C   UNL     1      45.582   4.653   9.100  0.00  0.00    +0.000 A 
ATOM     32  O   UNL     1      46.224   5.663   8.819  0.00  0.00    +0.000 OA
ATOM     33  C   UNL     1      44.960   4.417  10.389  0.00  0.00    +0.000 A 
ATOM     37  H   UNL     1      45.816   3.788   7.275  0.00  0.00    +0.000 HD
ENDBRANCH  22  24
ENDBRANCH  20  21
ENDBRANCH  19  20
TORSDOF 12
ENDMDL
