MODEL 1
REMARK VINA RESULT:    -7.400      0.000      0.000
REMARK INTER + INTRA:          -8.940
REMARK INTER:                  -8.698
REMARK INTRA:                  -0.243
REMARK UNBOUND:                -0.243
REMARK  Name = 
REMARK  3 active torsions:
REMARK  status: ('A' for Active; 'I' for Inactive)
REMARK    1  A    between atoms: C_2  and  C_4
REMARK    2  A    between atoms: N_11  and  C_12
REMARK    3  A    between atoms: C_12  and  C_13
REMARK                            x       y       z     vdW  Elec       q    Type
REMARK                         _______ _______ _______ _____ _____    ______ ____
ROOT
ATOM      4  C   UNL     1      46.193   6.593  12.579  0.00  0.00    +0.000 A 
ATOM      5  C   UNL     1      46.460   6.573  11.213  0.00  0.00    +0.000 A 
ATOM      6  N   UNL     1      45.928   5.708  10.313  0.00  0.00    +0.000 NA
ATOM      7  C   UNL     1      45.052   4.841  10.866  0.00  0.00    +0.000 A 
ATOM      8  C   UNL     1      44.685   4.767  12.209  0.00  0.00    +0.000 A 
ATOM      9  C   UNL     1      43.751   3.703  12.326  0.00  0.00    +0.000 A 
ATOM     10  C   UNL     1      43.600   3.141  11.076  0.00  0.00    +0.000 A 
ATOM     11  N   UNL     1      44.374   3.854  10.190  0.00  0.00    +0.000 N 
ATOM     21  C   UNL     1      45.270   5.681  13.101  0.00  0.00    +0.000 A 
ENDROOT
BRANCH   4   2
ATOM      1  N   UNL     1      46.272   8.784  13.635  0.00  0.00    +0.000 N 
ATOM      2  C   UNL     1      46.895   7.586  13.422  0.00  0.00    +0.000 C 
ATOM      3  O   UNL     1      47.973   7.334  13.943  0.00  0.00    +0.000 OA
ATOM     22  H   UNL     1      46.716   9.411  14.294  0.00  0.00    +0.000 HD
ATOM     23  H   UNL     1      45.296   8.940  13.428  0.00  0.00    +0.000 HD
ENDBRANCH   4   2
BRANCH  11  12
ATOM     12  C   UNL     1      44.580   3.526   8.784  0.00  0.00    +0.000 C 
BRANCH  12  13
ATOM     13  C   UNL     1      45.340   2.233   8.531  0.00  0.00    +0.000 C 
ATOM     14  O   UNL     1      45.060   1.180   9.104  0.00  0.00    +0.000 OA
ATOM     15  N   UNL     1      46.398   2.300   7.624  0.00  0.00    +0.000 N 
ATOM     16  C   UNL     1      46.870   3.504   6.929  0.00  0.00    +0.000 C 
ATOM     17  C   UNL     1      47.114   3.232   5.430  0.00  0.00    +0.000 C 
ATOM     18  N   UNL     1      47.968   2.057   5.174  0.00  0.00    +0.000 NA
ATOM     19  C   UNL     1      47.403   0.878   5.861  0.00  0.00    +0.000 C 
ATOM     20  C   UNL     1      47.206   1.102   7.371  0.00  0.00    +0.000 C 
ATOM     24  H   UNL     1      48.897   2.236   5.555  0.00  0.00    +0.000 HD
ENDBRANCH  12  13
ENDBRANCH  11  12
TORSDOF 3
ENDMDL
MODEL 2
REMARK VINA RESULT:    -7.178      2.012      6.933
REMARK INTER + INTRA:          -8.680
REMARK INTER:                  -8.268
REMARK INTRA:                  -0.412
REMARK UNBOUND:                -0.243
REMARK  Name = 
REMARK  3 active torsions:
REMARK  status: ('A' for Active; 'I' for Inactive)
REMARK    1  A    between atoms: C_2  and  C_4
REMARK    2  A    between atoms: N_11  and  C_12
REMARK    3  A    between atoms: C_12  and  C_13
REMARK                            x       y       z     vdW  Elec       q    Type
REMARK                         _______ _______ _______ _____ _____    ______ ____
ROOT
ATOM      4  C   UNL     1      46.467   3.034   7.333  0.00  0.00    +0.000 A 
ATOM      5  C   UNL     1      46.573   4.390   7.630  0.00  0.00    +0.000 A 
ATOM      6  N   UNL     1      45.941   5.033   8.644  0.00  0.00    +0.000 NA
ATOM      7  C   UNL     1      45.182   4.210   9.401  0.00  0.00    +0.000 A 
ATOM      8  C   UNL     1      45.005   2.839   9.223  0.00  0.00    +0.000 A 
ATOM      9  C   UNL     1      44.120   2.398  10.243  0.00  0.00    +0.000 A 
ATOM     10  C   UNL     1      43.759   3.503  10.987  0.00  0.00    +0.000 A 
ATOM     11  N   UNL     1      44.428   4.594  10.485  0.00  0.00    +0.000 N 
ATOM     21  C   UNL     1      45.677   2.223   8.153  0.00  0.00    +0.000 A 
ENDROOT
BRANCH   4   2
ATOM      1  N   UNL     1      48.507   2.150   6.346  0.00  0.00    +0.000 N 
ATOM      2  C   UNL     1      47.201   2.508   6.162  0.00  0.00    +0.000 C 
ATOM      3  O   UNL     1      46.652   2.358   5.078  0.00  0.00    +0.000 OA
ATOM     22  H   UNL     1      48.965   1.698   5.564  0.00  0.00    +0.000 HD
ATOM     23  H   UNL     1      48.921   2.032   7.259  0.00  0.00    +0.000 HD
ENDBRANCH   4   2
BRANCH  11  12
ATOM     12  C   UNL     1      44.251   5.976  10.918  0.00  0.00    +0.000 C 
BRANCH  12  13
ATOM     13  C   UNL     1      45.327   6.497  11.858  0.00  0.00    +0.000 C 
ATOM     14  O   UNL     1      46.174   5.761  12.366  0.00  0.00    +0.000 OA
ATOM     15  N   UNL     1      45.299   7.864  12.139  0.00  0.00    +0.000 N 
ATOM     16  C   UNL     1      44.308   8.830  11.650  0.00  0.00    +0.000 C 
ATOM     17  C   UNL     1      44.981  10.120  11.138  0.00  0.00    +0.000 C 
ATOM     18  N   UNL     1      45.927  10.715  12.099  0.00  0.00    +0.000 NA
ATOM     19  C   UNL     1      46.922   9.700  12.504  0.00  0.00    +0.000 C 
ATOM     20  C   UNL     1      46.278   8.426  13.076  0.00  0.00    +0.000 C 
ATOM     24  H   UNL     1      45.412  11.009  12.929  0.00  0.00    +0.000 HD
ENDBRANCH  12  13
ENDBRANCH  11  12
TORSDOF 3
ENDMDL
MODEL 3
REMARK VINA RESULT:    -6.866      4.915      8.079
REMARK INTER + INTRA:          -8.313
REMARK INTER:                  -7.798
REMARK INTRA:                  -0.515
REMARK UNBOUND:                -0.243
REMARK  Name = 
REMARK  3 active torsions:
REMARK  status: ('A' for Active; 'I' for Inactive)
REMARK    1  A    between atoms: C_2  and  C_4
REMARK    2  A    between atoms: N_11  and  C_12
REMARK    3  A    between atoms: C_12  and  C_13
REMARK                            x       y       z     vdW  Elec       q    Type
REMARK                         _______ _______ _______ _____ _____    ______ ____
ROOT
ATOM      4  C   UNL     1      45.730   5.170  11.597  0.00  0.00    +0.000 A 
ATOM      5  C   UNL     1      45.360   4.155  12.474  0.00  0.00    +0.000 A 
ATOM      6  N   UNL     1      45.845   3.974  13.729  0.00  0.00    +0.000 NA
ATOM      7  C   UNL     1      46.741   4.919  14.091  0.00  0.00    +0.000 A 
ATOM      8  C   UNL     1      47.182   5.991  13.318  0.00  0.00    +0.000 A 
ATOM      9  C   UNL     1      48.124   6.708  14.102  0.00  0.00    +0.000 A 
ATOM     10  C   UNL     1      48.257   6.045  15.305  0.00  0.00    +0.000 A 
ATOM     11  N   UNL     1      47.394   4.974  15.300  0.00  0.00    +0.000 N 
ATOM     21  C   UNL     1      46.653   6.129  12.023  0.00  0.00    +0.000 A 
ENDROOT
BRANCH   4   2
ATOM      1  N   UNL     1      43.768   5.040  10.163  0.00  0.00    +0.000 N 
ATOM      2  C   UNL     1      45.124   5.192  10.247  0.00  0.00    +0.000 C 
ATOM      3  O   UNL     1      45.801   5.381   9.246  0.00  0.00    +0.000 OA
ATOM     22  H   UNL     1      43.358   5.159   9.245  0.00  0.00    +0.000 HD
ATOM     23  H   UNL     1      43.156   5.122  10.961  0.00  0.00    +0.000 HD
ENDBRANCH   4   2
BRANCH  11  12
ATOM     12  C   UNL     1      47.296   3.955  16.339  0.00  0.00    +0.000 C 
BRANCH  12  13
ATOM     13  C   UNL     1      48.453   2.969  16.382  0.00  0.00    +0.000 C 
ATOM     14  O   UNL     1      48.592   2.076  15.546  0.00  0.00    +0.000 OA
ATOM     15  N   UNL     1      49.353   3.111  17.439  0.00  0.00    +0.000 N 
ATOM     16  C   UNL     1      49.262   4.090  18.530  0.00  0.00    +0.000 C 
ATOM     17  C   UNL     1      50.621   4.769  18.795  0.00  0.00    +0.000 C 
ATOM     18  N   UNL     1      51.732   3.816  18.978  0.00  0.00    +0.000 NA
ATOM     19  C   UNL     1      51.792   2.901  17.820  0.00  0.00    +0.000 C 
ATOM     20  C   UNL     1      50.465   2.164  17.570  0.00  0.00    +0.000 C 
ATOM     24  H   UNL     1      51.556   3.263  19.816  0.00  0.00    +0.000 HD
ENDBRANCH  12  13
ENDBRANCH  11  12
TORSDOF 3
ENDMDL
MODEL 4
REMARK VINA RESULT:    -6.550      4.048      6.573
REMARK INTER + INTRA:          -7.941
REMARK INTER:                  -7.450
REMARK INTRA:                  -0.491
REMARK UNBOUND:                -0.243
REMARK  Name = 
REMARK  3 active torsions:
REMARK  status: ('A' for Active; 'I' for Inactive)
REMARK    1  A    between atoms: C_2  and  C_4
REMARK    2  A    between atoms: N_11  and  C_12
REMARK    3  A    between atoms: C_12  and  C_13
REMARK                            x       y       z     vdW  Elec       q    Type
REMARK                         _______ _______ _______ _____ _____    ______ ____
ROOT
ATOM      4  C   UNL     1      48.332   5.015  17.613  0.00  0.00    +0.000 A 
ATOM      5  C   UNL     1      47.582   4.307  16.678  0.00  0.00    +0.000 A 
ATOM      6  N   UNL     1      47.404   4.652  15.378  0.00  0.00    +0.000 NA
ATOM      7  C   UNL     1      48.066   5.778  15.034  0.00  0.00    +0.000 A 
ATOM      8  C   UNL     1      48.861   6.567  15.864  0.00  0.00    +0.000 A 
ATOM      9  C   UNL     1      49.341   7.647  15.077  0.00  0.00    +0.000 A 
ATOM     10  C   UNL     1      48.808   7.510  13.812  0.00  0.00    +0.000 A 
ATOM     11  N   UNL     1      48.056   6.359  13.787  0.00  0.00    +0.000 N 
ATOM     21  C   UNL     1      49.007   6.169  17.204  0.00  0.00    +0.000 A 
ENDROOT
BRANCH   4   2
ATOM      1  N   UNL     1      48.497   3.159  19.179  0.00  0.00    +0.000 N 
ATOM      2  C   UNL     1      48.386   4.511  19.003  0.00  0.00    +0.000 C 
ATOM      3  O   UNL     1      48.375   5.272  19.960  0.00  0.00    +0.000 OA
ATOM     22  H   UNL     1      48.635   2.839  20.129  0.00  0.00    +0.000 HD
ATOM     23  H   UNL     1      48.747   2.527  18.432  0.00  0.00    +0.000 HD
ENDBRANCH   4   2
BRANCH  11  12
ATOM     12  C   UNL     1      47.237   5.900  12.670  0.00  0.00    +0.000 C 
BRANCH  12  13
ATOM     13  C   UNL     1      45.761   6.251  12.770  0.00  0.00    +0.000 C 
ATOM     14  O   UNL     1      45.367   7.395  13.000  0.00  0.00    +0.000 OA
ATOM     15  N   UNL     1      44.858   5.199  12.610  0.00  0.00    +0.000 N 
ATOM     16  C   UNL     1      45.201   3.787  12.398  0.00  0.00    +0.000 C 
ATOM     17  C   UNL     1      44.356   3.163  11.268  0.00  0.00    +0.000 C 
ATOM     18  N   UNL     1      42.906   3.378  11.427  0.00  0.00    +0.000 NA
ATOM     19  C   UNL     1      42.635   4.822  11.583  0.00  0.00    +0.000 C 
ATOM     20  C   UNL     1      43.421   5.456  12.744  0.00  0.00    +0.000 C 
ATOM     24  H   UNL     1      42.594   2.899  12.272  0.00  0.00    +0.000 HD
ENDBRANCH  12  13
ENDBRANCH  11  12
TORSDOF 3
ENDMDL
MODEL 5
REMARK VINA RESULT:    -6.479      4.077      8.283
REMARK INTER + INTRA:          -7.858
REMARK INTER:                  -7.336
REMARK INTRA:                  -0.522
REMARK UNBOUND:                -0.243
REMARK  Name = 
REMARK  3 active torsions:
REMARK  status: ('A' for Active; 'I' for Inactive)
REMARK    1  A    between atoms: C_2  and  C_4
REMARK    2  A    between atoms: N_11  and  C_12
REMARK    3  A    between atoms: C_12  and  C_13
REMARK                            x       y       z     vdW  Elec       q    Type
REMARK                         _______ _______ _______ _____ _____    ______ ____
ROOT
ATOM      4  C   UNL     1      44.761   4.438  12.262  0.00  0.00    +0.000 A 
ATOM      5  C   UNL     1      45.874   4.003  12.976  0.00  0.00    +0.000 A 
ATOM      6  N   UNL     1      46.837   4.798  13.509  0.00  0.00    +0.000 NA
ATOM      7  C   UNL     1      46.606   6.114  13.307  0.00  0.00    +0.000 A 
ATOM      8  C   UNL     1      45.528   6.679  12.628  0.00  0.00    +0.000 A 
ATOM      9  C   UNL     1      45.710   8.087  12.659  0.00  0.00    +0.000 A 
ATOM     10  C   UNL     1      46.896   8.341  13.317  0.00  0.00    +0.000 A 
ATOM     11  N   UNL     1      47.421   7.139  13.731  0.00  0.00    +0.000 N 
ATOM     21  C   UNL     1      44.563   5.811  12.090  0.00  0.00    +0.000 A 
ENDROOT
BRANCH   4   2
ATOM      1  N   UNL     1      43.649   2.281  12.447  0.00  0.00    +0.000 N 
ATOM      2  C   UNL     1      43.831   3.424  11.719  0.00  0.00    +0.000 C 
ATOM      3  O   UNL     1      43.214   3.615  10.680  0.00  0.00    +0.000 OA
ATOM     22  H   UNL     1      42.935   1.645  12.115  0.00  0.00    +0.000 HD
ATOM     23  H   UNL     1      43.945   2.190  13.408  0.00  0.00    +0.000 HD
ENDBRANCH   4   2
BRANCH  11  12
ATOM     12  C   UNL     1      48.717   6.951  14.372  0.00  0.00    +0.000 C 
BRANCH  12  13
ATOM     13  C   UNL     1      48.790   7.414  15.819  0.00  0.00    +0.000 C 
ATOM     14  O   UNL     1      49.019   8.584  16.127  0.00  0.00    +0.000 OA
ATOM     15  N   UNL     1      48.604   6.436  16.796  0.00  0.00    +0.000 N 
ATOM     16  C   UNL     1      48.390   5.003  16.559  0.00  0.00    +0.000 C 
ATOM     17  C   UNL     1      47.239   4.453  17.427  0.00  0.00    +0.000 C 
ATOM     18  N   UNL     1      47.371   4.779  18.859  0.00  0.00    +0.000 NA
ATOM     19  C   UNL     1      47.530   6.238  19.021  0.00  0.00    +0.000 C 
ATOM     20  C   UNL     1      48.711   6.804  18.212  0.00  0.00    +0.000 C 
ATOM     24  H   UNL     1      48.206   4.322  19.225  0.00  0.00    +0.000 HD
ENDBRANCH  12  13
ENDBRANCH  11  12
TORSDOF 3
ENDMDL
MODEL 6
REMARK VINA RESULT:    -6.454      1.975      6.488
REMARK INTER + INTRA:          -7.828
REMARK INTER:                  -8.415
REMARK INTRA:                   0.587
REMARK UNBOUND:                -0.243
REMARK  Name = 
REMARK  3 active torsions:
REMARK  status: ('A' for Active; 'I' for Inactive)
REMARK    1  A    between atoms: C_2  and  C_4
REMARK    2  A    between atoms: N_11  and  C_12
REMARK    3  A    between atoms: C_12  and  C_13
REMARK                            x       y       z     vdW  Elec       q    Type
REMARK                         _______ _______ _______ _____ _____    ______ ____
ROOT
ATOM      4  C   UNL     1      46.236   2.940   7.664  0.00  0.00    +0.000 A 
ATOM      5  C   UNL     1      46.278   4.295   7.978  0.00  0.00    +0.000 A 
ATOM      6  N   UNL     1      45.623   4.892   9.006  0.00  0.00    +0.000 NA
ATOM      7  C   UNL     1      44.914   4.022   9.758  0.00  0.00    +0.000 A 
ATOM      8  C   UNL     1      44.803   2.647   9.563  0.00  0.00    +0.000 A 
ATOM      9  C   UNL     1      43.952   2.150  10.585  0.00  0.00    +0.000 A 
ATOM     10  C   UNL     1      43.543   3.225  11.347  0.00  0.00    +0.000 A 
ATOM     11  N   UNL     1      44.152   4.355  10.854  0.00  0.00    +0.000 N 
ATOM     21  C   UNL     1      45.495   2.079   8.480  0.00  0.00    +0.000 A 
ENDROOT
BRANCH   4   2
ATOM      1  N   UNL     1      48.087   1.688   6.699  0.00  0.00    +0.000 N 
ATOM      2  C   UNL     1      46.984   2.466   6.479  0.00  0.00    +0.000 C 
ATOM      3  O   UNL     1      46.611   2.723   5.342  0.00  0.00    +0.000 OA
ATOM     22  H   UNL     1      48.527   1.289   5.880  0.00  0.00    +0.000 HD
ATOM     23  H   UNL     1      48.287   1.261   7.592  0.00  0.00    +0.000 HD
ENDBRANCH   4   2
BRANCH  11  12
ATOM     12  C   UNL     1      43.910   5.720  11.307  0.00  0.00    +0.000 C 
BRANCH  12  13
ATOM     13  C   UNL     1      45.161   6.560  11.512  0.00  0.00    +0.000 C 
ATOM     14  O   UNL     1      45.306   7.666  10.992  0.00  0.00    +0.000 OA
ATOM     15  N   UNL     1      46.162   6.002  12.309  0.00  0.00    +0.000 N 
ATOM     16  C   UNL     1      46.136   4.672  12.929  0.00  0.00    +0.000 C 
ATOM     17  C   UNL     1      46.592   4.725  14.401  0.00  0.00    +0.000 C 
ATOM     18  N   UNL     1      47.878   5.419  14.597  0.00  0.00    +0.000 NA
ATOM     19  C   UNL     1      47.810   6.766  13.995  0.00  0.00    +0.000 C 
ATOM     20  C   UNL     1      47.416   6.736  12.508  0.00  0.00    +0.000 C 
ATOM     24  H   UNL     1      48.612   4.891  14.123  0.00  0.00    +0.000 HD
ENDBRANCH  12  13
ENDBRANCH  11  12
TORSDOF 3
ENDMDL
MODEL 7
REMARK VINA RESULT:    -6.331      4.036      8.639
REMARK INTER + INTRA:          -7.684
REMARK INTER:                  -7.232
REMARK INTRA:                  -0.453
REMARK UNBOUND:                -0.243
REMARK  Name = 
REMARK  3 active torsions:
REMARK  status: ('A' for Active; 'I' for Inactive)
REMARK    1  A    between atoms: C_2  and  C_4
REMARK    2  A    between atoms: N_11  and  C_12
REMARK    3  A    between atoms: C_12  and  C_13
REMARK                            x       y       z     vdW  Elec       q    Type
REMARK                         _______ _______ _______ _____ _____    ______ ____
ROOT
ATOM      4  C   UNL     1      45.032   4.374  11.540  0.00  0.00    +0.000 A 
ATOM      5  C   UNL     1      45.365   3.462  12.538  0.00  0.00    +0.000 A 
ATOM      6  N   UNL     1      46.215   3.691  13.571  0.00  0.00    +0.000 NA
ATOM      7  C   UNL     1      46.718   4.945  13.575  0.00  0.00    +0.000 A 
ATOM      8  C   UNL     1      46.453   5.954  12.651  0.00  0.00    +0.000 A 
ATOM      9  C   UNL     1      47.207   7.089  13.049  0.00  0.00    +0.000 A 
ATOM     10  C   UNL     1      47.928   6.739  14.171  0.00  0.00    +0.000 A 
ATOM     11  N   UNL     1      47.606   5.443  14.500  0.00  0.00    +0.000 N 
ATOM     21  C   UNL     1      45.572   5.663  11.595  0.00  0.00    +0.000 A 
ENDROOT
BRANCH   4   2
ATOM      1  N   UNL     1      44.162   4.626   9.282  0.00  0.00    +0.000 N 
ATOM      2  C   UNL     1      44.115   3.940  10.464  0.00  0.00    +0.000 C 
ATOM      3  O   UNL     1      43.371   2.979  10.606  0.00  0.00    +0.000 OA
ATOM     22  H   UNL     1      43.604   4.255   8.523  0.00  0.00    +0.000 HD
ATOM     23  H   UNL     1      44.913   5.257   9.043  0.00  0.00    +0.000 HD
ENDBRANCH   4   2
BRANCH  11  12
ATOM     12  C   UNL     1      48.223   4.654  15.560  0.00  0.00    +0.000 C 
BRANCH  12  13
ATOM     13  C   UNL     1      47.439   4.603  16.862  0.00  0.00    +0.000 C 
ATOM     14  O   UNL     1      46.549   3.778  17.066  0.00  0.00    +0.000 OA
ATOM     15  N   UNL     1      47.764   5.563  17.822  0.00  0.00    +0.000 N 
ATOM     16  C   UNL     1      48.756   6.635  17.674  0.00  0.00    +0.000 C 
ATOM     17  C   UNL     1      49.654   6.750  18.923  0.00  0.00    +0.000 C 
ATOM     18  N   UNL     1      48.900   6.842  20.187  0.00  0.00    +0.000 NA
ATOM     19  C   UNL     1      47.964   5.705  20.287  0.00  0.00    +0.000 C 
ATOM     20  C   UNL     1      47.014   5.604  19.081  0.00  0.00    +0.000 C 
ATOM     24  H   UNL     1      48.358   7.706  20.184  0.00  0.00    +0.000 HD
ENDBRANCH  12  13
ENDBRANCH  11  12
TORSDOF 3
ENDMDL
MODEL 8
REMARK VINA RESULT:    -6.124      3.999      5.749
REMARK INTER + INTRA:          -7.441
REMARK INTER:                  -7.057
REMARK INTRA:                  -0.383
REMARK UNBOUND:                -0.243
REMARK  Name = 
REMARK  3 active torsions:
REMARK  status: ('A' for Active; 'I' for Inactive)
REMARK    1  A    between atoms: C_2  and  C_4
REMARK    2  A    between atoms: N_11  and  C_12
REMARK    3  A    between atoms: C_12  and  C_13
REMARK                            x       y       z     vdW  Elec       q    Type
REMARK                         _______ _______ _______ _____ _____    ______ ____
ROOT
ATOM      4  C   UNL     1      46.507  10.303  11.914  0.00  0.00    +0.000 A 
ATOM      5  C   UNL     1      45.595   9.591  12.688  0.00  0.00    +0.000 A 
ATOM      6  N   UNL     1      45.810   8.376  13.253  0.00  0.00    +0.000 NA
ATOM      7  C   UNL     1      47.052   7.897  13.020  0.00  0.00    +0.000 A 
ATOM      8  C   UNL     1      48.060   8.514  12.281  0.00  0.00    +0.000 A 
ATOM      9  C   UNL     1      49.180   7.641  12.297  0.00  0.00    +0.000 A 
ATOM     10  C   UNL     1      48.821   6.515  13.008  0.00  0.00    +0.000 A 
ATOM     11  N   UNL     1      47.536   6.689  13.466  0.00  0.00    +0.000 N 
ATOM     21  C   UNL     1      47.783   9.768  11.710  0.00  0.00    +0.000 A 
ENDROOT
BRANCH   4   2
ATOM      1  N   UNL     1      45.598  12.541  12.207  0.00  0.00    +0.000 N 
ATOM      2  C   UNL     1      46.087  11.601  11.343  0.00  0.00    +0.000 C 
ATOM      3  O   UNL     1      46.210  11.844  10.150  0.00  0.00    +0.000 OA
ATOM     22  H   UNL     1      45.412  13.457  11.818  0.00  0.00    +0.000 HD
ATOM     23  H   UNL     1      45.703  12.473  13.209  0.00  0.00    +0.000 HD
ENDBRANCH   4   2
BRANCH  11  12
ATOM     12  C   UNL     1      46.740   5.691  14.172  0.00  0.00    +0.000 C 
BRANCH  12  13
ATOM     13  C   UNL     1      46.492   4.405  13.401  0.00  0.00    +0.000 C 
ATOM     14  O   UNL     1      47.252   3.438  13.466  0.00  0.00    +0.000 OA
ATOM     15  N   UNL     1      45.359   4.376  12.587  0.00  0.00    +0.000 N 
ATOM     16  C   UNL     1      44.415   5.480  12.375  0.00  0.00    +0.000 C 
ATOM     17  C   UNL     1      42.952   4.998  12.462  0.00  0.00    +0.000 C 
ATOM     18  N   UNL     1      42.662   3.831  11.609  0.00  0.00    +0.000 NA
ATOM     19  C   UNL     1      43.617   2.746  11.915  0.00  0.00    +0.000 C 
ATOM     20  C   UNL     1      45.085   3.185  11.776  0.00  0.00    +0.000 C 
ATOM     24  H   UNL     1      42.783   4.100  10.632  0.00  0.00    +0.000 HD
ENDBRANCH  12  13
ENDBRANCH  11  12
TORSDOF 3
ENDMDL
MODEL 9
REMARK VINA RESULT:    -5.929      4.932      7.054
REMARK INTER + INTRA:          -7.212
REMARK INTER:                  -6.978
REMARK INTRA:                  -0.234
REMARK UNBOUND:                -0.243
REMARK  Name = 
REMARK  3 active torsions:
REMARK  status: ('A' for Active; 'I' for Inactive)
REMARK    1  A    between atoms: C_2  and  C_4
REMARK    2  A    between atoms: N_11  and  C_12
REMARK    3  A    between atoms: C_12  and  C_13
REMARK                            x       y       z     vdW  Elec       q    Type
REMARK                         _______ _______ _______ _____ _____    ______ ____
ROOT
ATOM      4  C   UNL     1      50.967   5.486  17.975  0.00  0.00    +0.000 A 
ATOM      5  C   UNL     1      50.604   6.207  16.841  0.00  0.00    +0.000 A 
ATOM      6  N   UNL     1      49.480   6.014  16.103  0.00  0.00    +0.000 NA
ATOM      7  C   UNL     1      48.686   5.038  16.595  0.00  0.00    +0.000 A 
ATOM      8  C   UNL     1      48.923   4.258  17.725  0.00  0.00    +0.000 A 
ATOM      9  C   UNL     1      47.828   3.362  17.848  0.00  0.00    +0.000 A 
ATOM     10  C   UNL     1      46.979   3.593  16.786  0.00  0.00    +0.000 A 
ATOM     11  N   UNL     1      47.493   4.630  16.044  0.00  0.00    +0.000 N 
ATOM     21  C   UNL     1      50.105   4.493  18.449  0.00  0.00    +0.000 A 
ENDROOT
BRANCH   4   2
ATOM      1  N   UNL     1      53.170   6.517  17.912  0.00  0.00    +0.000 N 
ATOM      2  C   UNL     1      52.252   5.807  18.634  0.00  0.00    +0.000 C 
ATOM      3  O   UNL     1      52.472   5.488  19.794  0.00  0.00    +0.000 OA
ATOM     22  H   UNL     1      53.999   6.817  18.408  0.00  0.00    +0.000 HD
ATOM     23  H   UNL     1      52.940   7.000  17.055  0.00  0.00    +0.000 HD
ENDBRANCH   4   2
BRANCH  11  12
ATOM     12  C   UNL     1      46.958   5.120  14.779  0.00  0.00    +0.000 C 
BRANCH  12  13
ATOM     13  C   UNL     1      46.585   4.039  13.778  0.00  0.00    +0.000 C 
ATOM     14  O   UNL     1      47.229   2.996  13.661  0.00  0.00    +0.000 OA
ATOM     15  N   UNL     1      45.477   4.294  12.970  0.00  0.00    +0.000 N 
ATOM     16  C   UNL     1      44.669   5.520  12.967  0.00  0.00    +0.000 C 
ATOM     17  C   UNL     1      43.159   5.203  12.957  0.00  0.00    +0.000 C 
ATOM     18  N   UNL     1      42.761   4.258  11.898  0.00  0.00    +0.000 NA
ATOM     19  C   UNL     1      43.579   3.032  11.997  0.00  0.00    +0.000 C 
ATOM     20  C   UNL     1      45.090   3.316  11.947  0.00  0.00    +0.000 C 
ATOM     24  H   UNL     1      42.936   4.689  10.990  0.00  0.00    +0.000 HD
ENDBRANCH  12  13
ENDBRANCH  11  12
TORSDOF 3
ENDMDL
