MODEL 1
REMARK VINA RESULT:    -8.284      0.000      0.000
REMARK INTER + INTRA:         -11.110
REMARK INTER:                 -10.705
REMARK INTRA:                  -0.405
REMARK UNBOUND:                -0.405
REMARK  Name = 
REMARK  5 active torsions:
REMARK  status: ('A' for Active; 'I' for Inactive)
REMARK    1  A    between atoms: C_2  and  C_4
REMARK    2  A    between atoms: N_8  and  C_9
REMARK    3  A    between atoms: C_9  and  C_10
REMARK    4  A    between atoms: C_14  and  N_15
REMARK    5  A    between atoms: C_19  and  C_20
REMARK                            x       y       z     vdW  Elec       q    Type
REMARK                         _______ _______ _______ _____ _____    ______ ____
ROOT
ATOM     10  C   UNL     1      46.907   7.378  12.123  0.00  0.00    +0.000 A 
ATOM     11  C   UNL     1      46.347   8.659  12.113  0.00  0.00    +0.000 A 
ATOM     12  C   UNL     1      45.015   8.828  11.752  0.00  0.00    +0.000 A 
ATOM     13  C   UNL     1      44.242   7.720  11.387  0.00  0.00    +0.000 A 
ATOM     14  C   UNL     1      44.763   6.417  11.387  0.00  0.00    +0.000 A 
ATOM     25  C   UNL     1      46.096   6.272  11.801  0.00  0.00    +0.000 A 
ENDROOT
BRANCH  14  15
ATOM     15  N   UNL     1      43.992   5.344  10.978  0.00  0.00    +0.000 N 
ATOM     16  C   UNL     1      42.963   4.737  11.831  0.00  0.00    +0.000 C 
ATOM     17  C   UNL     1      43.336   3.286  12.186  0.00  0.00    +0.000 C 
ATOM     18  N   UNL     1      43.602   2.442  11.007  0.00  0.00    +0.000 NA
ATOM     19  C   UNL     1      44.682   3.071  10.163  0.00  0.00    +0.000 C 
ATOM     24  C   UNL     1      44.383   4.552   9.794  0.00  0.00    +0.000 C 
ATOM     31  H   UNL     1      42.754   2.383  10.440  0.00  0.00    +0.000 HD
BRANCH  19  20
ATOM     20  C   UNL     1      45.021   2.300   8.859  0.00  0.00    +0.000 C 
ATOM     21  F   UNL     1      44.588   2.956   7.755  0.00  0.00    +0.000 F 
ATOM     22  F   UNL     1      46.352   2.113   8.699  0.00  0.00    +0.000 F 
ATOM     23  F   UNL     1      44.442   1.076   8.850  0.00  0.00    +0.000 F 
ENDBRANCH  19  20
ENDBRANCH  14  15
BRANCH  10   9
ATOM      9  C   UNL     1      48.384   7.187  12.355  0.00  0.00    +0.000 C 
BRANCH   9   8
ATOM      4  C   UNL     1      47.720   4.480  16.636  0.00  0.00    +0.000 A 
ATOM      5  C   UNL     1      47.294   4.268  15.331  0.00  0.00    +0.000 A 
ATOM      6  C   UNL     1      47.640   5.195  14.347  0.00  0.00    +0.000 A 
ATOM      7  C   UNL     1      48.390   6.324  14.670  0.00  0.00    +0.000 A 
ATOM      8  N   UNL     1      48.760   7.268  13.741  0.00  0.00    +0.000 N 
ATOM     26  N   UNL     1      48.798   6.541  15.937  0.00  0.00    +0.000 NA
ATOM     27  C   UNL     1      48.455   5.627  16.888  0.00  0.00    +0.000 A 
ATOM     30  H   UNL     1      49.245   8.076  14.104  0.00  0.00    +0.000 HD
BRANCH   4   2
ATOM      1  N   UNL     1      48.041   3.743  18.931  0.00  0.00    +0.000 N 
ATOM      2  C   UNL     1      47.387   3.559  17.743  0.00  0.00    +0.000 C 
ATOM      3  O   UNL     1      46.543   2.682  17.615  0.00  0.00    +0.000 OA
ATOM     28  H   UNL     1      47.745   3.162  19.706  0.00  0.00    +0.000 HD
ATOM     29  H   UNL     1      48.559   4.581  19.150  0.00  0.00    +0.000 HD
ENDBRANCH   4   2
ENDBRANCH   9   8
ENDBRANCH  10   9
TORSDOF 5
ENDMDL
MODEL 2
REMARK VINA RESULT:    -8.242      4.611      7.907
REMARK INTER + INTRA:         -11.057
REMARK INTER:                 -10.464
REMARK INTRA:                  -0.593
REMARK UNBOUND:                -0.405
REMARK  Name = 
REMARK  5 active torsions:
REMARK  status: ('A' for Active; 'I' for Inactive)
REMARK    1  A    between atoms: C_2  and  C_4
REMARK    2  A    between atoms: N_8  and  C_9
REMARK    3  A    between atoms: C_9  and  C_10
REMARK    4  A    between atoms: C_14  and  N_15
REMARK    5  A    between atoms: C_19  and  C_20
REMARK                            x       y       z     vdW  Elec       q    Type
REMARK                         _______ _______ _______ _____ _____    ______ ____
ROOT
ATOM     10  C   UNL     1      44.448   5.534  11.368  0.00  0.00    +0.000 A 
ATOM     11  C   UNL     1      44.231   6.915  11.361  0.00  0.00    +0.000 A 
ATOM     12  C   UNL     1      45.060   7.749  12.103  0.00  0.00    +0.000 A 
ATOM     13  C   UNL     1      46.100   7.206  12.864  0.00  0.00    +0.000 A 
ATOM     14  C   UNL     1      46.356   5.827  12.896  0.00  0.00    +0.000 A 
ATOM     25  C   UNL     1      45.534   5.015  12.101  0.00  0.00    +0.000 A 
ENDROOT
BRANCH  14  15
ATOM     15  N   UNL     1      47.362   5.309  13.693  0.00  0.00    +0.000 N 
ATOM     16  C   UNL     1      47.234   4.031  14.402  0.00  0.00    +0.000 C 
ATOM     17  C   UNL     1      47.257   4.249  15.926  0.00  0.00    +0.000 C 
ATOM     18  N   UNL     1      48.441   4.990  16.396  0.00  0.00    +0.000 NA
ATOM     19  C   UNL     1      48.535   6.310  15.674  0.00  0.00    +0.000 C 
ATOM     24  C   UNL     1      48.485   6.166  14.127  0.00  0.00    +0.000 C 
ATOM     31  H   UNL     1      49.281   4.451  16.177  0.00  0.00    +0.000 HD
BRANCH  19  20
ATOM     20  C   UNL     1      49.774   7.168  16.047  0.00  0.00    +0.000 C 
ATOM     21  F   UNL     1      49.712   7.620  17.323  0.00  0.00    +0.000 F 
ATOM     22  F   UNL     1      50.934   6.478  15.939  0.00  0.00    +0.000 F 
ATOM     23  F   UNL     1      49.878   8.252  15.242  0.00  0.00    +0.000 F 
ENDBRANCH  19  20
ENDBRANCH  14  15
BRANCH  10   9
ATOM      9  C   UNL     1      43.472   4.598  10.703  0.00  0.00    +0.000 C 
BRANCH   9   8
ATOM      4  C   UNL     1      46.564   2.556   7.186  0.00  0.00    +0.000 A 
ATOM      5  C   UNL     1      46.100   3.852   7.371  0.00  0.00    +0.000 A 
ATOM      6  C   UNL     1      45.253   4.121   8.447  0.00  0.00    +0.000 A 
ATOM      7  C   UNL     1      44.867   3.103   9.315  0.00  0.00    +0.000 A 
ATOM      8  N   UNL     1      44.036   3.312  10.391  0.00  0.00    +0.000 N 
ATOM     26  N   UNL     1      45.304   1.840   9.136  0.00  0.00    +0.000 NA
ATOM     27  C   UNL     1      46.132   1.591   8.082  0.00  0.00    +0.000 A 
ATOM     30  H   UNL     1      43.772   2.487  10.910  0.00  0.00    +0.000 HD
BRANCH   4   2
ATOM      1  N   UNL     1      48.797   2.340   6.249  0.00  0.00    +0.000 N 
ATOM      2  C   UNL     1      47.450   2.178   6.065  0.00  0.00    +0.000 C 
ATOM      3  O   UNL     1      47.005   1.714   5.024  0.00  0.00    +0.000 OA
ATOM     28  H   UNL     1      49.399   2.000   5.508  0.00  0.00    +0.000 HD
ATOM     29  H   UNL     1      49.215   2.492   7.155  0.00  0.00    +0.000 HD
ENDBRANCH   4   2
ENDBRANCH   9   8
ENDBRANCH  10   9
TORSDOF 5
ENDMDL
MODEL 3
REMARK VINA RESULT:    -8.239      4.272      7.845
REMARK INTER + INTRA:         -11.053
REMARK INTER:                 -10.197
REMARK INTRA:                  -0.857
REMARK UNBOUND:                -0.405
REMARK  Name = 
REMARK  5 active torsions:
REMARK  status: ('A' for Active; 'I' for Inactive)
REMARK    1  A    between atoms: C_2  and  C_4
REMARK    2  A    between atoms: N_8  and  C_9
REMARK    3  A    between atoms: C_9  and  C_10
REMARK    4  A    between atoms: C_14  and  N_15
REMARK    5  A    between atoms: C_19  and  C_20
REMARK                            x       y       z     vdW  Elec       q    Type
REMARK                         _______ _______ _______ _____ _____    ______ ____
ROOT
ATOM     10  C   UNL     1      44.881   4.558  11.916  0.00  0.00    +0.000 A 
ATOM     11  C   UNL     1      45.286   3.444  12.658  0.00  0.00    +0.000 A 
ATOM     12  C   UNL     1      46.320   3.567  13.579  0.00  0.00    +0.000 A 
ATOM     13  C   UNL     1      46.961   4.797  13.754  0.00  0.00    +0.000 A 
ATOM     14  C   UNL     1      46.584   5.941  13.033  0.00  0.00    +0.000 A 
ATOM     25  C   UNL     1      45.507   5.799  12.146  0.00  0.00    +0.000 A 
ENDROOT
BRANCH  14  15
ATOM     15  N   UNL     1      47.263   7.136  13.191  0.00  0.00    +0.000 N 
ATOM     16  C   UNL     1      46.577   8.422  13.365  0.00  0.00    +0.000 C 
ATOM     17  C   UNL     1      46.862   9.357  12.176  0.00  0.00    +0.000 C 
ATOM     18  N   UNL     1      48.300   9.562  11.922  0.00  0.00    +0.000 NA
ATOM     19  C   UNL     1      48.977   8.231  11.718  0.00  0.00    +0.000 C 
ATOM     24  C   UNL     1      48.703   7.224  12.870  0.00  0.00    +0.000 C 
ATOM     31  H   UNL     1      48.723  10.009  12.738  0.00  0.00    +0.000 HD
BRANCH  19  20
ATOM     20  C   UNL     1      50.511   8.309  11.489  0.00  0.00    +0.000 C 
ATOM     21  F   UNL     1      50.966   7.269  10.749  0.00  0.00    +0.000 F 
ATOM     22  F   UNL     1      50.880   9.436  10.837  0.00  0.00    +0.000 F 
ATOM     23  F   UNL     1      51.182   8.289  12.664  0.00  0.00    +0.000 F 
ENDBRANCH  19  20
ENDBRANCH  14  15
BRANCH  10   9
ATOM      9  C   UNL     1      43.875   4.416  10.803  0.00  0.00    +0.000 C 
BRANCH   9   8
ATOM      4  C   UNL     1      46.612   2.167   7.121  0.00  0.00    +0.000 A 
ATOM      5  C   UNL     1      46.153   1.705   8.349  0.00  0.00    +0.000 A 
ATOM      6  C   UNL     1      45.407   2.561   9.159  0.00  0.00    +0.000 A 
ATOM      7  C   UNL     1      45.137   3.865   8.750  0.00  0.00    +0.000 A 
ATOM      8  N   UNL     1      44.406   4.751   9.508  0.00  0.00    +0.000 N 
ATOM     26  N   UNL     1      45.587   4.325   7.565  0.00  0.00    +0.000 NA
ATOM     27  C   UNL     1      46.313   3.477   6.782  0.00  0.00    +0.000 A 
ATOM     30  H   UNL     1      44.331   5.688   9.140  0.00  0.00    +0.000 HD
BRANCH   4   2
ATOM      1  N   UNL     1      48.570   1.886   5.708  0.00  0.00    +0.000 N 
ATOM      2  C   UNL     1      47.421   1.335   6.206  0.00  0.00    +0.000 C 
ATOM      3  O   UNL     1      47.095   0.190   5.925  0.00  0.00    +0.000 OA
ATOM     28  H   UNL     1      49.159   1.279   5.151  0.00  0.00    +0.000 HD
ATOM     29  H   UNL     1      48.992   2.720   6.090  0.00  0.00    +0.000 HD
ENDBRANCH   4   2
ENDBRANCH   9   8
ENDBRANCH  10   9
TORSDOF 5
ENDMDL
MODEL 4
REMARK VINA RESULT:    -8.097      2.847      3.790
REMARK INTER + INTRA:         -10.869
REMARK INTER:                 -10.100
REMARK INTRA:                  -0.769
REMARK UNBOUND:                -0.405
REMARK  Name = 
REMARK  5 active torsions:
REMARK  status: ('A' for Active; 'I' for Inactive)
REMARK    1  A    between atoms: C_2  and  C_4
REMARK    2  A    between atoms: N_8  and  C_9
REMARK    3  A    between atoms: C_9  and  C_10
REMARK    4  A    between atoms: C_14  and  N_15
REMARK    5  A    between atoms: C_19  and  C_20
REMARK                            x       y       z     vdW  Elec       q    Type
REMARK                         _______ _______ _______ _____ _____    ______ ____
ROOT
ATOM     10  C   UNL     1      46.975   4.983  14.907  0.00  0.00    +0.000 A 
ATOM     11  C   UNL     1      47.978   5.894  14.562  0.00  0.00    +0.000 A 
ATOM     12  C   UNL     1      47.970   6.486  13.304  0.00  0.00    +0.000 A 
ATOM     13  C   UNL     1      46.969   6.161  12.383  0.00  0.00    +0.000 A 
ATOM     14  C   UNL     1      45.941   5.255  12.690  0.00  0.00    +0.000 A 
ATOM     25  C   UNL     1      45.949   4.710  13.982  0.00  0.00    +0.000 A 
ENDROOT
BRANCH  14  15
ATOM     15  N   UNL     1      44.988   4.916  11.746  0.00  0.00    +0.000 N 
ATOM     16  C   UNL     1      43.690   4.333  12.105  0.00  0.00    +0.000 C 
ATOM     17  C   UNL     1      43.565   2.900  11.554  0.00  0.00    +0.000 C 
ATOM     18  N   UNL     1      43.797   2.807  10.102  0.00  0.00    +0.000 NA
ATOM     19  C   UNL     1      45.147   3.386   9.762  0.00  0.00    +0.000 C 
ATOM     24  C   UNL     1      45.352   4.823  10.317  0.00  0.00    +0.000 C 
ATOM     31  H   UNL     1      43.087   3.357   9.614  0.00  0.00    +0.000 HD
BRANCH  19  20
ATOM     20  C   UNL     1      45.490   3.391   8.248  0.00  0.00    +0.000 C 
ATOM     21  F   UNL     1      46.056   2.225   7.853  0.00  0.00    +0.000 F 
ATOM     22  F   UNL     1      44.397   3.572   7.470  0.00  0.00    +0.000 F 
ATOM     23  F   UNL     1      46.362   4.382   7.948  0.00  0.00    +0.000 F 
ENDBRANCH  19  20
ENDBRANCH  14  15
BRANCH  10   9
ATOM      9  C   UNL     1      47.051   4.210  16.199  0.00  0.00    +0.000 C 
BRANCH   9   8
ATOM      4  C   UNL     1      51.648   2.550  17.687  0.00  0.00    +0.000 A 
ATOM      5  C   UNL     1      50.999   3.766  17.865  0.00  0.00    +0.000 A 
ATOM      6  C   UNL     1      49.717   3.932  17.342  0.00  0.00    +0.000 A 
ATOM      7  C   UNL     1      49.100   2.900  16.638  0.00  0.00    +0.000 A 
ATOM      8  N   UNL     1      47.839   3.010  16.101  0.00  0.00    +0.000 N 
ATOM     26  N   UNL     1      49.727   1.721  16.451  0.00  0.00    +0.000 NA
ATOM     27  C   UNL     1      50.979   1.571  16.970  0.00  0.00    +0.000 A 
ATOM     30  H   UNL     1      47.522   2.222  15.556  0.00  0.00    +0.000 HD
BRANCH   4   2
ATOM      1  N   UNL     1      53.280   2.653  19.486  0.00  0.00    +0.000 N 
ATOM      2  C   UNL     1      53.012   2.291  18.194  0.00  0.00    +0.000 C 
ATOM      3  O   UNL     1      53.862   1.752  17.498  0.00  0.00    +0.000 OA
ATOM     28  H   UNL     1      54.190   2.395  19.848  0.00  0.00    +0.000 HD
ATOM     29  H   UNL     1      52.559   2.879  20.156  0.00  0.00    +0.000 HD
ENDBRANCH   4   2
ENDBRANCH   9   8
ENDBRANCH  10   9
TORSDOF 5
ENDMDL
MODEL 5
REMARK VINA RESULT:    -8.086      4.784      8.052
REMARK INTER + INTRA:         -10.854
REMARK INTER:                 -10.057
REMARK INTRA:                  -0.797
REMARK UNBOUND:                -0.405
REMARK  Name = 
REMARK  5 active torsions:
REMARK  status: ('A' for Active; 'I' for Inactive)
REMARK    1  A    between atoms: C_2  and  C_4
REMARK    2  A    between atoms: N_8  and  C_9
REMARK    3  A    between atoms: C_9  and  C_10
REMARK    4  A    between atoms: C_14  and  N_15
REMARK    5  A    between atoms: C_19  and  C_20
REMARK                            x       y       z     vdW  Elec       q    Type
REMARK                         _______ _______ _______ _____ _____    ______ ____
ROOT
ATOM     10  C   UNL     1      44.465   4.384  11.590  0.00  0.00    +0.000 A 
ATOM     11  C   UNL     1      45.000   3.812  12.748  0.00  0.00    +0.000 A 
ATOM     12  C   UNL     1      45.859   4.554  13.551  0.00  0.00    +0.000 A 
ATOM     13  C   UNL     1      46.198   5.863  13.193  0.00  0.00    +0.000 A 
ATOM     14  C   UNL     1      45.681   6.476  12.041  0.00  0.00    +0.000 A 
ATOM     25  C   UNL     1      44.780   5.721  11.277  0.00  0.00    +0.000 A 
ENDROOT
BRANCH  14  15
ATOM     15  N   UNL     1      46.067   7.756  11.684  0.00  0.00    +0.000 N 
ATOM     16  C   UNL     1      47.311   8.371  12.161  0.00  0.00    +0.000 C 
ATOM     17  C   UNL     1      47.009   9.590  13.053  0.00  0.00    +0.000 C 
ATOM     18  N   UNL     1      46.145  10.593  12.403  0.00  0.00    +0.000 NA
ATOM     19  C   UNL     1      44.863   9.943  11.948  0.00  0.00    +0.000 C 
ATOM     24  C   UNL     1      45.096   8.684  11.068  0.00  0.00    +0.000 C 
ATOM     31  H   UNL     1      46.622  10.961  11.578  0.00  0.00    +0.000 HD
BRANCH  19  20
ATOM     20  C   UNL     1      43.884  10.890  11.201  0.00  0.00    +0.000 C 
ATOM     21  F   UNL     1      44.273  11.113   9.923  0.00  0.00    +0.000 F 
ATOM     22  F   UNL     1      42.627  10.391  11.141  0.00  0.00    +0.000 F 
ATOM     23  F   UNL     1      43.806  12.095  11.814  0.00  0.00    +0.000 F 
ENDBRANCH  19  20
ENDBRANCH  14  15
BRANCH  10   9
ATOM      9  C   UNL     1      43.661   3.553  10.623  0.00  0.00    +0.000 C 
BRANCH   9   8
ATOM      4  C   UNL     1      46.829   2.099   6.888  0.00  0.00    +0.000 A 
ATOM      5  C   UNL     1      46.246   3.325   7.184  0.00  0.00    +0.000 A 
ATOM      6  C   UNL     1      45.411   3.427   8.297  0.00  0.00    +0.000 A 
ATOM      7  C   UNL     1      45.153   2.313   9.092  0.00  0.00    +0.000 A 
ATOM      8  N   UNL     1      44.339   2.356  10.199  0.00  0.00    +0.000 N 
ATOM     26  N   UNL     1      45.705   1.117   8.805  0.00  0.00    +0.000 NA
ATOM     27  C   UNL     1      46.522   1.032   7.716  0.00  0.00    +0.000 A 
ATOM     30  H   UNL     1      44.173   1.473  10.659  0.00  0.00    +0.000 HD
BRANCH   4   2
ATOM      1  N   UNL     1      48.266   3.012   5.152  0.00  0.00    +0.000 N 
ATOM      2  C   UNL     1      47.714   1.897   5.721  0.00  0.00    +0.000 C 
ATOM      3  O   UNL     1      47.966   0.778   5.295  0.00  0.00    +0.000 OA
ATOM     28  H   UNL     1      48.935   2.856   4.407  0.00  0.00    +0.000 HD
ATOM     29  H   UNL     1      48.276   3.914   5.604  0.00  0.00    +0.000 HD
ENDBRANCH   4   2
ENDBRANCH   9   8
ENDBRANCH  10   9
TORSDOF 5
ENDMDL
MODEL 6
REMARK VINA RESULT:    -7.954      1.538      1.959
REMARK INTER + INTRA:         -10.684
REMARK INTER:                  -9.978
REMARK INTRA:                  -0.705
REMARK UNBOUND:                -0.405
REMARK  Name = 
REMARK  5 active torsions:
REMARK  status: ('A' for Active; 'I' for Inactive)
REMARK    1  A    between atoms: C_2  and  C_4
REMARK    2  A    between atoms: N_8  and  C_9
REMARK    3  A    between atoms: C_9  and  C_10
REMARK    4  A    between atoms: C_14  and  N_15
REMARK    5  A    between atoms: C_19  and  C_20
REMARK                            x       y       z     vdW  Elec       q    Type
REMARK                         _______ _______ _______ _____ _____    ______ ____
ROOT
ATOM     10  C   UNL     1      46.524   7.291  13.096  0.00  0.00    +0.000 A 
ATOM     11  C   UNL     1      46.221   8.576  12.634  0.00  0.00    +0.000 A 
ATOM     12  C   UNL     1      45.147   8.765  11.772  0.00  0.00    +0.000 A 
ATOM     13  C   UNL     1      44.381   7.671  11.356  0.00  0.00    +0.000 A 
ATOM     14  C   UNL     1      44.647   6.366  11.798  0.00  0.00    +0.000 A 
ATOM     25  C   UNL     1      45.706   6.212  12.704  0.00  0.00    +0.000 A 
ENDROOT
BRANCH  14  15
ATOM     15  N   UNL     1      43.903   5.294  11.337  0.00  0.00    +0.000 N 
ATOM     16  C   UNL     1      42.936   4.580  12.180  0.00  0.00    +0.000 C 
ATOM     17  C   UNL     1      43.383   3.123  12.405  0.00  0.00    +0.000 C 
ATOM     18  N   UNL     1      43.632   2.385  11.153  0.00  0.00    +0.000 NA
ATOM     19  C   UNL     1      44.647   3.123  10.320  0.00  0.00    +0.000 C 
ATOM     24  C   UNL     1      44.274   4.613  10.080  0.00  0.00    +0.000 C 
ATOM     31  H   UNL     1      42.763   2.333  10.618  0.00  0.00    +0.000 HD
BRANCH  19  20
ATOM     20  C   UNL     1      44.961   2.469   8.946  0.00  0.00    +0.000 C 
ATOM     21  F   UNL     1      44.451   1.217   8.854  0.00  0.00    +0.000 F 
ATOM     22  F   UNL     1      44.449   3.172   7.909  0.00  0.00    +0.000 F 
ATOM     23  F   UNL     1      46.296   2.375   8.744  0.00  0.00    +0.000 F 
ENDBRANCH  19  20
ENDBRANCH  14  15
BRANCH  10   9
ATOM      9  C   UNL     1      47.773   7.037  13.900  0.00  0.00    +0.000 C 
BRANCH   9   8
ATOM      4  C   UNL     1      49.016   5.029  18.430  0.00  0.00    +0.000 A 
ATOM      5  C   UNL     1      49.039   6.335  17.958  0.00  0.00    +0.000 A 
ATOM      6  C   UNL     1      48.626   6.590  16.650  0.00  0.00    +0.000 A 
ATOM      7  C   UNL     1      48.211   5.548  15.823  0.00  0.00    +0.000 A 
ATOM      8  N   UNL     1      47.794   5.742  14.527  0.00  0.00    +0.000 N 
ATOM     26  N   UNL     1      48.196   4.276  16.271  0.00  0.00    +0.000 NA
ATOM     27  C   UNL     1      48.599   4.042  17.552  0.00  0.00    +0.000 A 
ATOM     30  H   UNL     1      47.580   4.906  14.004  0.00  0.00    +0.000 HD
BRANCH   4   2
ATOM      1  N   UNL     1      48.588   3.913  20.548  0.00  0.00    +0.000 N 
ATOM      2  C   UNL     1      49.449   4.666  19.796  0.00  0.00    +0.000 C 
ATOM      3  O   UNL     1      50.542   5.002  20.232  0.00  0.00    +0.000 OA
ATOM     28  H   UNL     1      48.930   3.600  21.449  0.00  0.00    +0.000 HD
ATOM     29  H   UNL     1      47.797   3.425  20.155  0.00  0.00    +0.000 HD
ENDBRANCH   4   2
ENDBRANCH   9   8
ENDBRANCH  10   9
TORSDOF 5
ENDMDL
MODEL 7
REMARK VINA RESULT:    -7.419      4.733      8.206
REMARK INTER + INTRA:          -9.992
REMARK INTER:                  -9.190
REMARK INTRA:                  -0.803
REMARK UNBOUND:                -0.405
REMARK  Name = 
REMARK  5 active torsions:
REMARK  status: ('A' for Active; 'I' for Inactive)
REMARK    1  A    between atoms: C_2  and  C_4
REMARK    2  A    between atoms: N_8  and  C_9
REMARK    3  A    between atoms: C_9  and  C_10
REMARK    4  A    between atoms: C_14  and  N_15
REMARK    5  A    between atoms: C_19  and  C_20
REMARK                            x       y       z     vdW  Elec       q    Type
REMARK                         _______ _______ _______ _____ _____    ______ ____
ROOT
ATOM     10  C   UNL     1      44.813   4.739  11.680  0.00  0.00    +0.000 A 
ATOM     11  C   UNL     1      44.786   4.069  12.907  0.00  0.00    +0.000 A 
ATOM     12  C   UNL     1      45.707   4.400  13.895  0.00  0.00    +0.000 A 
ATOM     13  C   UNL     1      46.666   5.390  13.656  0.00  0.00    +0.000 A 
ATOM     14  C   UNL     1      46.726   6.089  12.440  0.00  0.00    +0.000 A 
ATOM     25  C   UNL     1      45.755   5.768  11.481  0.00  0.00    +0.000 A 
ENDROOT
BRANCH  14  15
ATOM     15  N   UNL     1      47.712   7.033  12.211  0.00  0.00    +0.000 N 
ATOM     16  C   UNL     1      49.094   6.863  12.674  0.00  0.00    +0.000 C 
ATOM     17  C   UNL     1      49.453   7.935  13.721  0.00  0.00    +0.000 C 
ATOM     18  N   UNL     1      49.224   9.313  13.251  0.00  0.00    +0.000 NA
ATOM     19  C   UNL     1      47.792   9.470  12.808  0.00  0.00    +0.000 C 
ATOM     24  C   UNL     1      47.352   8.397  11.773  0.00  0.00    +0.000 C 
ATOM     31  H   UNL     1      49.825   9.496  12.446  0.00  0.00    +0.000 HD
BRANCH  19  20
ATOM     20  C   UNL     1      47.435  10.872  12.244  0.00  0.00    +0.000 C 
ATOM     21  F   UNL     1      47.971  11.074  11.016  0.00  0.00    +0.000 F 
ATOM     22  F   UNL     1      46.100  11.054  12.116  0.00  0.00    +0.000 F 
ATOM     23  F   UNL     1      47.897  11.856  13.051  0.00  0.00    +0.000 F 
ENDBRANCH  19  20
ENDBRANCH  14  15
BRANCH  10   9
ATOM      9  C   UNL     1      43.933   4.291  10.541  0.00  0.00    +0.000 C 
BRANCH   9   8
ATOM      4  C   UNL     1      46.715   2.037   6.897  0.00  0.00    +0.000 A 
ATOM      5  C   UNL     1      46.256   1.582   8.127  0.00  0.00    +0.000 A 
ATOM      6  C   UNL     1      45.495   2.438   8.925  0.00  0.00    +0.000 A 
ATOM      7  C   UNL     1      45.211   3.734   8.501  0.00  0.00    +0.000 A 
ATOM      8  N   UNL     1      44.467   4.619   9.245  0.00  0.00    +0.000 N 
ATOM     26  N   UNL     1      45.662   4.186   7.313  0.00  0.00    +0.000 NA
ATOM     27  C   UNL     1      46.402   3.339   6.543  0.00  0.00    +0.000 A 
ATOM     30  H   UNL     1      44.382   5.550   8.867  0.00  0.00    +0.000 HD
BRANCH   4   2
ATOM      1  N   UNL     1      47.018   0.002   5.601  0.00  0.00    +0.000 N 
ATOM      2  C   UNL     1      47.539   1.204   5.995  0.00  0.00    +0.000 C 
ATOM      3  O   UNL     1      48.631   1.583   5.595  0.00  0.00    +0.000 OA
ATOM     28  H   UNL     1      47.554  -0.521   4.918  0.00  0.00    +0.000 HD
ATOM     29  H   UNL     1      46.045  -0.240   5.713  0.00  0.00    +0.000 HD
ENDBRANCH   4   2
ENDBRANCH   9   8
ENDBRANCH  10   9
TORSDOF 5
ENDMDL
MODEL 8
REMARK VINA RESULT:    -7.283      3.831      7.059
REMARK INTER + INTRA:          -9.817
REMARK INTER:                  -8.747
REMARK INTRA:                  -1.069
REMARK UNBOUND:                -0.405
REMARK  Name = 
REMARK  5 active torsions:
REMARK  status: ('A' for Active; 'I' for Inactive)
REMARK    1  A    between atoms: C_2  and  C_4
REMARK    2  A    between atoms: N_8  and  C_9
REMARK    3  A    between atoms: C_9  and  C_10
REMARK    4  A    between atoms: C_14  and  N_15
REMARK    5  A    between atoms: C_19  and  C_20
REMARK                            x       y       z     vdW  Elec       q    Type
REMARK                         _______ _______ _______ _____ _____    ______ ____
ROOT
ATOM     10  C   UNL     1      48.454   8.975  16.047  0.00  0.00    +0.000 A 
ATOM     11  C   UNL     1      48.138  10.047  16.887  0.00  0.00    +0.000 A 
ATOM     12  C   UNL     1      47.996   9.835  18.254  0.00  0.00    +0.000 A 
ATOM     13  C   UNL     1      48.156   8.551  18.785  0.00  0.00    +0.000 A 
ATOM     14  C   UNL     1      48.478   7.448  17.979  0.00  0.00    +0.000 A 
ATOM     25  C   UNL     1      48.662   7.701  16.611  0.00  0.00    +0.000 A 
ENDROOT
BRANCH  14  15
ATOM     15  N   UNL     1      48.587   6.180  18.520  0.00  0.00    +0.000 N 
ATOM     16  C   UNL     1      49.579   5.839  19.547  0.00  0.00    +0.000 C 
ATOM     17  C   UNL     1      50.588   4.808  19.007  0.00  0.00    +0.000 C 
ATOM     18  N   UNL     1      49.954   3.591  18.468  0.00  0.00    +0.000 NA
ATOM     19  C   UNL     1      48.961   3.966  17.398  0.00  0.00    +0.000 C 
ATOM     24  C   UNL     1      47.929   5.029  17.866  0.00  0.00    +0.000 C 
ATOM     31  H   UNL     1      49.445   3.119  19.219  0.00  0.00    +0.000 HD
BRANCH  19  20
ATOM     20  C   UNL     1      48.186   2.769  16.782  0.00  0.00    +0.000 C 
ATOM     21  F   UNL     1      48.986   1.692  16.590  0.00  0.00    +0.000 F 
ATOM     22  F   UNL     1      47.164   2.355  17.567  0.00  0.00    +0.000 F 
ATOM     23  F   UNL     1      47.658   3.095  15.579  0.00  0.00    +0.000 F 
ENDBRANCH  19  20
ENDBRANCH  14  15
BRANCH  10   9
ATOM      9  C   UNL     1      48.457   9.146  14.550  0.00  0.00    +0.000 C 
BRANCH   9   8
ATOM      4  C   UNL     1      45.722   5.339  12.519  0.00  0.00    +0.000 A 
ATOM      5  C   UNL     1      46.992   5.370  13.081  0.00  0.00    +0.000 A 
ATOM      6  C   UNL     1      47.486   6.580  13.571  0.00  0.00    +0.000 A 
ATOM      7  C   UNL     1      46.724   7.742  13.485  0.00  0.00    +0.000 A 
ATOM      8  N   UNL     1      47.161   8.960  13.952  0.00  0.00    +0.000 N 
ATOM     26  N   UNL     1      45.495   7.722  12.932  0.00  0.00    +0.000 NA
ATOM     27  C   UNL     1      45.023   6.534  12.459  0.00  0.00    +0.000 A 
ATOM     30  H   UNL     1      46.550   9.744  13.776  0.00  0.00    +0.000 HD
BRANCH   4   2
ATOM      1  N   UNL     1      45.481   2.920  12.543  0.00  0.00    +0.000 N 
ATOM      2  C   UNL     1      45.125   4.107  11.962  0.00  0.00    +0.000 C 
ATOM      3  O   UNL     1      44.326   4.144  11.036  0.00  0.00    +0.000 OA
ATOM     28  H   UNL     1      45.002   2.091  12.209  0.00  0.00    +0.000 HD
ATOM     29  H   UNL     1      45.941   2.861  13.440  0.00  0.00    +0.000 HD
ENDBRANCH   4   2
ENDBRANCH   9   8
ENDBRANCH  10   9
TORSDOF 5
ENDMDL
MODEL 9
REMARK VINA RESULT:    -7.220      3.964      7.529
REMARK INTER + INTRA:          -9.735
REMARK INTER:                  -8.823
REMARK INTRA:                  -0.913
REMARK UNBOUND:                -0.405
REMARK  Name = 
REMARK  5 active torsions:
REMARK  status: ('A' for Active; 'I' for Inactive)
REMARK    1  A    between atoms: C_2  and  C_4
REMARK    2  A    between atoms: N_8  and  C_9
REMARK    3  A    between atoms: C_9  and  C_10
REMARK    4  A    between atoms: C_14  and  N_15
REMARK    5  A    between atoms: C_19  and  C_20
REMARK                            x       y       z     vdW  Elec       q    Type
REMARK                         _______ _______ _______ _____ _____    ______ ____
ROOT
ATOM     10  C   UNL     1      49.007   8.123  13.906  0.00  0.00    +0.000 A 
ATOM     11  C   UNL     1      50.226   8.659  13.479  0.00  0.00    +0.000 A 
ATOM     12  C   UNL     1      51.391   8.374  14.182  0.00  0.00    +0.000 A 
ATOM     13  C   UNL     1      51.341   7.564  15.322  0.00  0.00    +0.000 A 
ATOM     14  C   UNL     1      50.140   7.002  15.783  0.00  0.00    +0.000 A 
ATOM     25  C   UNL     1      48.990   7.269  15.026  0.00  0.00    +0.000 A 
ENDROOT
BRANCH  14  15
ATOM     15  N   UNL     1      50.109   6.242  16.938  0.00  0.00    +0.000 N 
ATOM     16  C   UNL     1      51.311   5.955  17.731  0.00  0.00    +0.000 C 
ATOM     17  C   UNL     1      51.623   4.447  17.720  0.00  0.00    +0.000 C 
ATOM     18  N   UNL     1      50.492   3.610  18.162  0.00  0.00    +0.000 NA
ATOM     19  C   UNL     1      49.280   3.903  17.315  0.00  0.00    +0.000 C 
ATOM     24  C   UNL     1      48.927   5.415  17.256  0.00  0.00    +0.000 C 
ATOM     31  H   UNL     1      50.264   3.842  19.131  0.00  0.00    +0.000 HD
BRANCH  19  20
ATOM     20  C   UNL     1      48.002   3.116  17.716  0.00  0.00    +0.000 C 
ATOM     21  F   UNL     1      48.044   2.705  19.007  0.00  0.00    +0.000 F 
ATOM     22  F   UNL     1      46.876   3.855  17.583  0.00  0.00    +0.000 F 
ATOM     23  F   UNL     1      47.848   2.012  16.948  0.00  0.00    +0.000 F 
ENDBRANCH  19  20
ENDBRANCH  14  15
BRANCH  10   9
ATOM      9  C   UNL     1      47.713   8.543  13.258  0.00  0.00    +0.000 C 
BRANCH   9   8
ATOM      4  C   UNL     1      44.792   5.033  10.969  0.00  0.00    +0.000 A 
ATOM      5  C   UNL     1      45.863   5.790  10.509  0.00  0.00    +0.000 A 
ATOM      6  C   UNL     1      46.484   6.684  11.382  0.00  0.00    +0.000 A 
ATOM      7  C   UNL     1      46.029   6.826  12.691  0.00  0.00    +0.000 A 
ATOM      8  N   UNL     1      46.604   7.691  13.593  0.00  0.00    +0.000 N 
ATOM     26  N   UNL     1      44.984   6.103  13.141  0.00  0.00    +0.000 NA
ATOM     27  C   UNL     1      44.387   5.232  12.278  0.00  0.00    +0.000 A 
ATOM     30  H   UNL     1      46.148   7.757  14.491  0.00  0.00    +0.000 HD
BRANCH   4   2
ATOM      1  N   UNL     1      44.011   4.349   8.770  0.00  0.00    +0.000 N 
ATOM      2  C   UNL     1      44.066   4.074  10.109  0.00  0.00    +0.000 C 
ATOM      3  O   UNL     1      43.556   3.062  10.569  0.00  0.00    +0.000 OA
ATOM     28  H   UNL     1      43.584   3.644   8.181  0.00  0.00    +0.000 HD
ATOM     29  H   UNL     1      44.605   5.031   8.323  0.00  0.00    +0.000 HD
ENDBRANCH   4   2
ENDBRANCH   9   8
ENDBRANCH  10   9
TORSDOF 5
ENDMDL
