MODEL 1
REMARK VINA RESULT:    -8.079      0.000      0.000
REMARK INTER + INTRA:         -13.200
REMARK INTER:                 -11.858
REMARK INTRA:                  -1.343
REMARK UNBOUND:                -1.343
REMARK  Name = 
REMARK  9 active torsions:
REMARK  status: ('A' for Active; 'I' for Inactive)
REMARK    1  A    between atoms: C_1  and  O_2
REMARK    2  A    between atoms: O_2  and  C_3
REMARK    3  A    between atoms: C_10  and  C_11
REMARK    4  A    between atoms: N_13  and  C_14
REMARK    5  A    between atoms: C_14  and  C_15
REMARK    6  A    between atoms: C_18  and  C_19
REMARK    7  A    between atoms: C_19  and  N_20
REMARK    8  A    between atoms: N_20  and  C_21
REMARK    9  A    between atoms: C_21  and  C_22
REMARK                            x       y       z     vdW  Elec       q    Type
REMARK                         _______ _______ _______ _____ _____    ______ ____
ROOT
ATOM     14  C   UNL     1      46.721   7.995  12.933  0.00  0.00    +0.000 C 
ENDROOT
BRANCH  14  15
ATOM     15  C   UNL     1      45.906   6.906  12.286  0.00  0.00    +0.000 A 
ATOM     16  C   UNL     1      44.835   6.315  12.969  0.00  0.00    +0.000 A 
ATOM     17  C   UNL     1      44.117   5.261  12.392  0.00  0.00    +0.000 A 
ATOM     18  C   UNL     1      44.454   4.773  11.122  0.00  0.00    +0.000 A 
ATOM     28  C   UNL     1      45.515   5.377  10.433  0.00  0.00    +0.000 A 
ATOM     29  C   UNL     1      46.235   6.428  11.011  0.00  0.00    +0.000 A 
BRANCH  18  19
ATOM     19  C   UNL     1      43.723   3.587  10.530  0.00  0.00    +0.000 C 
BRANCH  19  20
ATOM     20  N   UNL     1      44.597   2.425  10.391  0.00  0.00    +0.000 NA
ATOM     32  H   UNL     1      44.378   1.750  11.122  0.00  0.00    +0.000 HD
BRANCH  20  21
ATOM     21  C   UNL     1      44.423   1.783   9.087  0.00  0.00    +0.000 C 
BRANCH  21  22
ATOM     22  C   UNL     1      45.585   2.084   8.168  0.00  0.00    +0.000 A 
ATOM     23  C   UNL     1      45.730   3.346   7.578  0.00  0.00    +0.000 A 
ATOM     24  C   UNL     1      46.818   3.622   6.744  0.00  0.00    +0.000 A 
ATOM     25  C   UNL     1      47.774   2.637   6.496  0.00  0.00    +0.000 A 
ATOM     26  C   UNL     1      47.643   1.378   7.078  0.00  0.00    +0.000 A 
ATOM     27  C   UNL     1      46.556   1.104   7.911  0.00  0.00    +0.000 A 
ENDBRANCH  21  22
ENDBRANCH  20  21
ENDBRANCH  19  20
ENDBRANCH  18  19
ENDBRANCH  14  15
BRANCH  14  13
ATOM     11  C   UNL     1      48.481   6.846  14.203  0.00  0.00    +0.000 C 
ATOM     12  O   UNL     1      49.076   6.571  13.162  0.00  0.00    +0.000 OA
ATOM     13  N   UNL     1      47.304   7.544  14.176  0.00  0.00    +0.000 N 
ATOM     31  H   UNL     1      46.809   7.748  15.035  0.00  0.00    +0.000 HD
BRANCH  11  10
ATOM      3  C   UNL     1      47.574   4.451  16.521  0.00  0.00    +0.000 A 
ATOM      4  N   UNL     1      47.429   3.647  17.595  0.00  0.00    +0.000 NA
ATOM      5  C   UNL     1      48.289   3.784  18.609  0.00  0.00    +0.000 A 
ATOM      6  N   UNL     1      49.300   4.643  18.687  0.00  0.00    +0.000 NA
ATOM      7  C   UNL     1      49.404   5.431  17.603  0.00  0.00    +0.000 A 
ATOM      8  S   UNL     1      50.644   6.588  17.534  0.00  0.00    +0.000 S 
ATOM      9  C   UNL     1      50.128   7.120  16.007  0.00  0.00    +0.000 A 
ATOM     10  C   UNL     1      49.016   6.441  15.515  0.00  0.00    +0.000 A 
ATOM     30  C   UNL     1      48.591   5.421  16.472  0.00  0.00    +0.000 A 
BRANCH   3   2
ATOM      1  C   UNL     1      47.260   3.530  14.380  0.00  0.00    +0.000 C 
ATOM      2  O   UNL     1      46.710   4.286  15.457  0.00  0.00    +0.000 OA
ENDBRANCH   3   2
ENDBRANCH  11  10
ENDBRANCH  14  13
TORSDOF 8
ENDMDL
MODEL 2
REMARK VINA RESULT:    -7.967      1.565      2.087
REMARK INTER + INTRA:         -13.036
REMARK INTER:                 -11.758
REMARK INTRA:                  -1.278
REMARK UNBOUND:                -1.343
REMARK  Name = 
REMARK  9 active torsions:
REMARK  status: ('A' for Active; 'I' for Inactive)
REMARK    1  A    between atoms: C_1  and  O_2
REMARK    2  A    between atoms: O_2  and  C_3
REMARK    3  A    between atoms: C_10  and  C_11
REMARK    4  A    between atoms: N_13  and  C_14
REMARK    5  A    between atoms: C_14  and  C_15
REMARK    6  A    between atoms: C_18  and  C_19
REMARK    7  A    between atoms: C_19  and  N_20
REMARK    8  A    between atoms: N_20  and  C_21
REMARK    9  A    between atoms: C_21  and  C_22
REMARK                            x       y       z     vdW  Elec       q    Type
REMARK                         _______ _______ _______ _____ _____    ______ ____
ROOT
ATOM     14  C   UNL     1      48.077   6.914  13.249  0.00  0.00    +0.000 C 
ENDROOT
BRANCH  14  15
ATOM     15  C   UNL     1      46.961   6.111  12.630  0.00  0.00    +0.000 A 
ATOM     16  C   UNL     1      46.447   6.456  11.374  0.00  0.00    +0.000 A 
ATOM     17  C   UNL     1      45.371   5.748  10.826  0.00  0.00    +0.000 A 
ATOM     18  C   UNL     1      44.782   4.684  11.524  0.00  0.00    +0.000 A 
ATOM     28  C   UNL     1      45.309   4.330  12.774  0.00  0.00    +0.000 A 
ATOM     29  C   UNL     1      46.383   5.039  13.322  0.00  0.00    +0.000 A 
BRANCH  18  19
ATOM     19  C   UNL     1      43.573   3.967  10.964  0.00  0.00    +0.000 C 
BRANCH  19  20
ATOM     20  N   UNL     1      43.789   3.532   9.586  0.00  0.00    +0.000 NA
ATOM     32  H   UNL     1      44.282   4.264   9.076  0.00  0.00    +0.000 HD
BRANCH  20  21
ATOM     21  C   UNL     1      44.582   2.303   9.535  0.00  0.00    +0.000 C 
BRANCH  21  22
ATOM     22  C   UNL     1      45.619   2.366   8.436  0.00  0.00    +0.000 A 
ATOM     23  C   UNL     1      46.368   1.236   8.086  0.00  0.00    +0.000 A 
ATOM     24  C   UNL     1      47.312   1.298   7.056  0.00  0.00    +0.000 A 
ATOM     25  C   UNL     1      47.512   2.492   6.364  0.00  0.00    +0.000 A 
ATOM     26  C   UNL     1      46.771   3.623   6.701  0.00  0.00    +0.000 A 
ATOM     27  C   UNL     1      45.830   3.560   7.729  0.00  0.00    +0.000 A 
ENDBRANCH  21  22
ENDBRANCH  20  21
ENDBRANCH  19  20
ENDBRANCH  18  19
ENDBRANCH  14  15
BRANCH  14  13
ATOM     11  C   UNL     1      48.973   6.901  15.535  0.00  0.00    +0.000 C 
ATOM     12  O   UNL     1      50.105   6.681  15.108  0.00  0.00    +0.000 OA
ATOM     13  N   UNL     1      47.911   7.024  14.680  0.00  0.00    +0.000 N 
ATOM     31  H   UNL     1      46.979   7.183  15.040  0.00  0.00    +0.000 HD
BRANCH  11  10
ATOM      3  C   UNL     1      48.957   4.698  18.195  0.00  0.00    +0.000 A 
ATOM      4  N   UNL     1      48.845   4.073  19.386  0.00  0.00    +0.000 NA
ATOM      5  C   UNL     1      48.514   4.803  20.455  0.00  0.00    +0.000 A 
ATOM      6  N   UNL     1      48.274   6.110  20.486  0.00  0.00    +0.000 NA
ATOM      7  C   UNL     1      48.385   6.693  19.280  0.00  0.00    +0.000 A 
ATOM      8  S   UNL     1      48.113   8.362  19.136  0.00  0.00    +0.000 S 
ATOM      9  C   UNL     1      48.409   8.314  17.465  0.00  0.00    +0.000 A 
ATOM     10  C   UNL     1      48.719   7.047  16.979  0.00  0.00    +0.000 A 
ATOM     30  C   UNL     1      48.714   6.078  18.074  0.00  0.00    +0.000 A 
BRANCH   3   2
ATOM      1  C   UNL     1      48.363   2.992  16.690  0.00  0.00    +0.000 C 
ATOM      2  O   UNL     1      49.335   3.953  17.097  0.00  0.00    +0.000 OA
ENDBRANCH   3   2
ENDBRANCH  11  10
ENDBRANCH  14  13
TORSDOF 8
ENDMDL
MODEL 3
REMARK VINA RESULT:    -7.662      2.256      3.028
REMARK INTER + INTRA:         -12.588
REMARK INTER:                 -11.388
REMARK INTRA:                  -1.200
REMARK UNBOUND:                -1.343
REMARK  Name = 
REMARK  9 active torsions:
REMARK  status: ('A' for Active; 'I' for Inactive)
REMARK    1  A    between atoms: C_1  and  O_2
REMARK    2  A    between atoms: O_2  and  C_3
REMARK    3  A    between atoms: C_10  and  C_11
REMARK    4  A    between atoms: N_13  and  C_14
REMARK    5  A    between atoms: C_14  and  C_15
REMARK    6  A    between atoms: C_18  and  C_19
REMARK    7  A    between atoms: C_19  and  N_20
REMARK    8  A    between atoms: N_20  and  C_21
REMARK    9  A    between atoms: C_21  and  C_22
REMARK                            x       y       z     vdW  Elec       q    Type
REMARK                         _______ _______ _______ _____ _____    ______ ____
ROOT
ATOM     14  C   UNL     1      48.093   6.577  13.741  0.00  0.00    +0.000 C 
ENDROOT
BRANCH  14  15
ATOM     15  C   UNL     1      46.950   6.064  12.903  0.00  0.00    +0.000 A 
ATOM     16  C   UNL     1      46.682   6.622  11.646  0.00  0.00    +0.000 A 
ATOM     17  C   UNL     1      45.584   6.188  10.894  0.00  0.00    +0.000 A 
ATOM     18  C   UNL     1      44.728   5.191  11.382  0.00  0.00    +0.000 A 
ATOM     28  C   UNL     1      45.009   4.622  12.633  0.00  0.00    +0.000 A 
ATOM     29  C   UNL     1      46.104   5.058  13.386  0.00  0.00    +0.000 A 
BRANCH  18  19
ATOM     19  C   UNL     1      43.501   4.774  10.601  0.00  0.00    +0.000 C 
BRANCH  19  20
ATOM     20  N   UNL     1      43.850   4.231   9.291  0.00  0.00    +0.000 NA
ATOM     32  H   UNL     1      44.557   4.825   8.858  0.00  0.00    +0.000 HD
BRANCH  20  21
ATOM     21  C   UNL     1      44.380   2.872   9.402  0.00  0.00    +0.000 C 
BRANCH  21  22
ATOM     22  C   UNL     1      45.513   2.644   8.427  0.00  0.00    +0.000 A 
ATOM     23  C   UNL     1      46.091   1.377   8.277  0.00  0.00    +0.000 A 
ATOM     24  C   UNL     1      47.126   1.170   7.359  0.00  0.00    +0.000 A 
ATOM     25  C   UNL     1      47.590   2.231   6.581  0.00  0.00    +0.000 A 
ATOM     26  C   UNL     1      47.022   3.495   6.719  0.00  0.00    +0.000 A 
ATOM     27  C   UNL     1      45.989   3.700   7.635  0.00  0.00    +0.000 A 
ENDBRANCH  21  22
ENDBRANCH  20  21
ENDBRANCH  19  20
ENDBRANCH  18  19
ENDBRANCH  14  15
BRANCH  14  13
ATOM     11  C   UNL     1      48.933   6.427  16.043  0.00  0.00    +0.000 C 
ATOM     12  O   UNL     1      49.956   7.031  15.727  0.00  0.00    +0.000 OA
ATOM     13  N   UNL     1      47.962   6.156  15.118  0.00  0.00    +0.000 N 
ATOM     31  H   UNL     1      47.133   5.638  15.379  0.00  0.00    +0.000 HD
BRANCH  11  10
ATOM      3  C   UNL     1      47.816   7.991  18.914  0.00  0.00    +0.000 A 
ATOM      4  N   UNL     1      47.456   8.343  20.166  0.00  0.00    +0.000 NA
ATOM      5  C   UNL     1      47.498   7.411  21.123  0.00  0.00    +0.000 A 
ATOM      6  N   UNL     1      47.864   6.141  20.983  0.00  0.00    +0.000 NA
ATOM      7  C   UNL     1      48.224   5.833  19.726  0.00  0.00    +0.000 A 
ATOM      8  S   UNL     1      48.720   4.250  19.368  0.00  0.00    +0.000 S 
ATOM      9  C   UNL     1      48.987   4.650  17.741  0.00  0.00    +0.000 A 
ATOM     10  C   UNL     1      48.711   5.978  17.430  0.00  0.00    +0.000 A 
ATOM     30  C   UNL     1      48.243   6.683  18.623  0.00  0.00    +0.000 A 
BRANCH   3   2
ATOM      1  C   UNL     1      48.893   9.772  17.820  0.00  0.00    +0.000 C 
ATOM      2  O   UNL     1      47.737   8.942  17.917  0.00  0.00    +0.000 OA
ENDBRANCH   3   2
ENDBRANCH  11  10
ENDBRANCH  14  13
TORSDOF 8
ENDMDL
MODEL 4
REMARK VINA RESULT:    -7.393      3.153      5.326
REMARK INTER + INTRA:         -12.193
REMARK INTER:                 -11.987
REMARK INTRA:                  -0.206
REMARK UNBOUND:                -1.343
REMARK  Name = 
REMARK  9 active torsions:
REMARK  status: ('A' for Active; 'I' for Inactive)
REMARK    1  A    between atoms: C_1  and  O_2
REMARK    2  A    between atoms: O_2  and  C_3
REMARK    3  A    between atoms: C_10  and  C_11
REMARK    4  A    between atoms: N_13  and  C_14
REMARK    5  A    between atoms: C_14  and  C_15
REMARK    6  A    between atoms: C_18  and  C_19
REMARK    7  A    between atoms: C_19  and  N_20
REMARK    8  A    between atoms: N_20  and  C_21
REMARK    9  A    between atoms: C_21  and  C_22
REMARK                            x       y       z     vdW  Elec       q    Type
REMARK                         _______ _______ _______ _____ _____    ______ ____
ROOT
ATOM     14  C   UNL     1      44.069   4.577   9.661  0.00  0.00    +0.000 C 
ENDROOT
BRANCH  14  15
ATOM     15  C   UNL     1      44.973   3.607   8.944  0.00  0.00    +0.000 A 
ATOM     16  C   UNL     1      45.905   4.064   8.003  0.00  0.00    +0.000 A 
ATOM     17  C   UNL     1      46.702   3.159   7.293  0.00  0.00    +0.000 A 
ATOM     18  C   UNL     1      46.583   1.778   7.505  0.00  0.00    +0.000 A 
ATOM     28  C   UNL     1      45.662   1.324   8.460  0.00  0.00    +0.000 A 
ATOM     29  C   UNL     1      44.863   2.229   9.167  0.00  0.00    +0.000 A 
BRANCH  18  19
ATOM     19  C   UNL     1      47.394   0.797   6.686  0.00  0.00    +0.000 C 
BRANCH  19  20
ATOM     20  N   UNL     1      48.083   1.454   5.578  0.00  0.00    +0.000 NA
ATOM     32  H   UNL     1      48.743   0.800   5.157  0.00  0.00    +0.000 HD
BRANCH  20  21
ATOM     21  C   UNL     1      47.138   1.898   4.553  0.00  0.00    +0.000 C 
BRANCH  21  22
ATOM     22  C   UNL     1      46.650   0.735   3.717  0.00  0.00    +0.000 A 
ATOM     23  C   UNL     1      47.209  -0.541   3.861  0.00  0.00    +0.000 A 
ATOM     24  C   UNL     1      46.739  -1.614   3.097  0.00  0.00    +0.000 A 
ATOM     25  C   UNL     1      45.702  -1.420   2.185  0.00  0.00    +0.000 A 
ATOM     26  C   UNL     1      45.135  -0.156   2.035  0.00  0.00    +0.000 A 
ATOM     27  C   UNL     1      45.605   0.914   2.798  0.00  0.00    +0.000 A 
ENDBRANCH  21  22
ENDBRANCH  20  21
ENDBRANCH  19  20
ENDBRANCH  18  19
ENDBRANCH  14  15
BRANCH  14  13
ATOM     11  C   UNL     1      44.573   6.058  11.553  0.00  0.00    +0.000 C 
ATOM     12  O   UNL     1      43.679   5.538  12.220  0.00  0.00    +0.000 OA
ATOM     13  N   UNL     1      44.827   5.644  10.274  0.00  0.00    +0.000 N 
ATOM     31  H   UNL     1      45.548   6.091   9.724  0.00  0.00    +0.000 HD
BRANCH  11  10
ATOM      3  C   UNL     1      47.372   6.122  13.577  0.00  0.00    +0.000 A 
ATOM      4  N   UNL     1      48.419   6.443  14.366  0.00  0.00    +0.000 NA
ATOM      5  C   UNL     1      48.700   7.736  14.550  0.00  0.00    +0.000 A 
ATOM      6  N   UNL     1      48.052   8.775  14.032  0.00  0.00    +0.000 NA
ATOM      7  C   UNL     1      47.012   8.414  13.261  0.00  0.00    +0.000 A 
ATOM      8  S   UNL     1      46.073   9.616  12.517  0.00  0.00    +0.000 S 
ATOM      9  C   UNL     1      45.062   8.453  11.805  0.00  0.00    +0.000 A 
ATOM     10  C   UNL     1      45.406   7.139  12.109  0.00  0.00    +0.000 A 
ATOM     30  C   UNL     1      46.584   7.120  12.975  0.00  0.00    +0.000 A 
BRANCH   3   2
ATOM      1  C   UNL     1      47.018   4.011  14.550  0.00  0.00    +0.000 C 
ATOM      2  O   UNL     1      47.102   4.787  13.356  0.00  0.00    +0.000 OA
ENDBRANCH   3   2
ENDBRANCH  11  10
ENDBRANCH  14  13
TORSDOF 8
ENDMDL
MODEL 5
REMARK VINA RESULT:    -7.285      1.959      3.448
REMARK INTER + INTRA:         -12.034
REMARK INTER:                 -10.654
REMARK INTRA:                  -1.381
REMARK UNBOUND:                -1.343
REMARK  Name = 
REMARK  9 active torsions:
REMARK  status: ('A' for Active; 'I' for Inactive)
REMARK    1  A    between atoms: C_1  and  O_2
REMARK    2  A    between atoms: O_2  and  C_3
REMARK    3  A    between atoms: C_10  and  C_11
REMARK    4  A    between atoms: N_13  and  C_14
REMARK    5  A    between atoms: C_14  and  C_15
REMARK    6  A    between atoms: C_18  and  C_19
REMARK    7  A    between atoms: C_19  and  N_20
REMARK    8  A    between atoms: N_20  and  C_21
REMARK    9  A    between atoms: C_21  and  C_22
REMARK                            x       y       z     vdW  Elec       q    Type
REMARK                         _______ _______ _______ _____ _____    ______ ____
ROOT
ATOM     14  C   UNL     1      47.345   3.956  14.752  0.00  0.00    +0.000 C 
ENDROOT
BRANCH  14  15
ATOM     15  C   UNL     1      46.442   4.202  13.571  0.00  0.00    +0.000 A 
ATOM     16  C   UNL     1      46.159   5.508  13.151  0.00  0.00    +0.000 A 
ATOM     17  C   UNL     1      45.273   5.740  12.093  0.00  0.00    +0.000 A 
ATOM     18  C   UNL     1      44.647   4.672  11.434  0.00  0.00    +0.000 A 
ATOM     28  C   UNL     1      44.945   3.365  11.845  0.00  0.00    +0.000 A 
ATOM     29  C   UNL     1      45.829   3.134  12.904  0.00  0.00    +0.000 A 
BRANCH  18  19
ATOM     19  C   UNL     1      43.634   4.926  10.338  0.00  0.00    +0.000 C 
BRANCH  19  20
ATOM     20  N   UNL     1      43.964   4.199   9.115  0.00  0.00    +0.000 NA
ATOM     32  H   UNL     1      43.271   4.414   8.399  0.00  0.00    +0.000 HD
BRANCH  20  21
ATOM     21  C   UNL     1      45.289   4.570   8.617  0.00  0.00    +0.000 C 
BRANCH  21  22
ATOM     22  C   UNL     1      46.009   3.375   8.034  0.00  0.00    +0.000 A 
ATOM     23  C   UNL     1      45.780   2.084   8.526  0.00  0.00    +0.000 A 
ATOM     24  C   UNL     1      46.437   0.982   7.968  0.00  0.00    +0.000 A 
ATOM     25  C   UNL     1      47.328   1.163   6.910  0.00  0.00    +0.000 A 
ATOM     26  C   UNL     1      47.562   2.442   6.410  0.00  0.00    +0.000 A 
ATOM     27  C   UNL     1      46.906   3.541   6.967  0.00  0.00    +0.000 A 
ENDBRANCH  21  22
ENDBRANCH  20  21
ENDBRANCH  19  20
ENDBRANCH  18  19
ENDBRANCH  14  15
BRANCH  14  13
ATOM     11  C   UNL     1      48.473   5.219  16.530  0.00  0.00    +0.000 C 
ATOM     12  O   UNL     1      49.100   4.216  16.868  0.00  0.00    +0.000 OA
ATOM     13  N   UNL     1      47.579   5.173  15.496  0.00  0.00    +0.000 N 
ATOM     31  H   UNL     1      47.049   5.995  15.238  0.00  0.00    +0.000 HD
BRANCH  11  10
ATOM      3  C   UNL     1      48.729   8.494  15.463  0.00  0.00    +0.000 A 
ATOM      4  N   UNL     1      48.896   9.827  15.333  0.00  0.00    +0.000 NA
ATOM      5  C   UNL     1      49.092  10.551  16.439  0.00  0.00    +0.000 A 
ATOM      6  N   UNL     1      49.145  10.100  17.689  0.00  0.00    +0.000 NA
ATOM      7  C   UNL     1      48.985   8.769  17.774  0.00  0.00    +0.000 A 
ATOM      8  S   UNL     1      49.022   8.024  19.299  0.00  0.00    +0.000 S 
ATOM      9  C   UNL     1      48.780   6.492  18.609  0.00  0.00    +0.000 A 
ATOM     10  C   UNL     1      48.665   6.506  17.223  0.00  0.00    +0.000 A 
ATOM     30  C   UNL     1      48.778   7.876  16.726  0.00  0.00    +0.000 A 
BRANCH   3   2
ATOM      1  C   UNL     1      48.980   8.350  13.129  0.00  0.00    +0.000 C 
ATOM      2  O   UNL     1      48.488   7.750  14.326  0.00  0.00    +0.000 OA
ENDBRANCH   3   2
ENDBRANCH  11  10
ENDBRANCH  14  13
TORSDOF 8
ENDMDL
MODEL 6
REMARK VINA RESULT:    -7.118      2.450      3.108
REMARK INTER + INTRA:         -11.789
REMARK INTER:                 -10.638
REMARK INTRA:                  -1.151
REMARK UNBOUND:                -1.343
REMARK  Name = 
REMARK  9 active torsions:
REMARK  status: ('A' for Active; 'I' for Inactive)
REMARK    1  A    between atoms: C_1  and  O_2
REMARK    2  A    between atoms: O_2  and  C_3
REMARK    3  A    between atoms: C_10  and  C_11
REMARK    4  A    between atoms: N_13  and  C_14
REMARK    5  A    between atoms: C_14  and  C_15
REMARK    6  A    between atoms: C_18  and  C_19
REMARK    7  A    between atoms: C_19  and  N_20
REMARK    8  A    between atoms: N_20  and  C_21
REMARK    9  A    between atoms: C_21  and  C_22
REMARK                            x       y       z     vdW  Elec       q    Type
REMARK                         _______ _______ _______ _____ _____    ______ ____
ROOT
ATOM     14  C   UNL     1      47.735   4.544  15.209  0.00  0.00    +0.000 C 
ENDROOT
BRANCH  14  15
ATOM     15  C   UNL     1      46.945   4.881  13.971  0.00  0.00    +0.000 A 
ATOM     16  C   UNL     1      46.129   3.918  13.362  0.00  0.00    +0.000 A 
ATOM     17  C   UNL     1      45.443   4.212  12.179  0.00  0.00    +0.000 A 
ATOM     18  C   UNL     1      45.560   5.472  11.574  0.00  0.00    +0.000 A 
ATOM     28  C   UNL     1      46.363   6.439  12.195  0.00  0.00    +0.000 A 
ATOM     29  C   UNL     1      47.051   6.144  13.377  0.00  0.00    +0.000 A 
BRANCH  18  19
ATOM     19  C   UNL     1      44.875   5.764  10.257  0.00  0.00    +0.000 C 
BRANCH  19  20
ATOM     20  N   UNL     1      45.608   5.199   9.127  0.00  0.00    +0.000 NA
ATOM     32  H   UNL     1      46.504   4.838   9.454  0.00  0.00    +0.000 HD
BRANCH  20  21
ATOM     21  C   UNL     1      44.860   4.108   8.501  0.00  0.00    +0.000 C 
BRANCH  21  22
ATOM     22  C   UNL     1      45.790   3.095   7.872  0.00  0.00    +0.000 A 
ATOM     23  C   UNL     1      46.635   3.453   6.814  0.00  0.00    +0.000 A 
ATOM     24  C   UNL     1      47.507   2.514   6.250  0.00  0.00    +0.000 A 
ATOM     25  C   UNL     1      47.542   1.210   6.744  0.00  0.00    +0.000 A 
ATOM     26  C   UNL     1      46.708   0.843   7.798  0.00  0.00    +0.000 A 
ATOM     27  C   UNL     1      45.840   1.780   8.360  0.00  0.00    +0.000 A 
ENDBRANCH  21  22
ENDBRANCH  20  21
ENDBRANCH  19  20
ENDBRANCH  18  19
ENDBRANCH  14  15
BRANCH  14  13
ATOM     11  C   UNL     1      48.825   6.439  16.328  0.00  0.00    +0.000 C 
ATOM     12  O   UNL     1      49.861   6.237  15.697  0.00  0.00    +0.000 OA
ATOM     13  N   UNL     1      47.727   5.642  16.150  0.00  0.00    +0.000 N 
ATOM     31  H   UNL     1      46.886   5.799  16.689  0.00  0.00    +0.000 HD
BRANCH  11  10
ATOM      3  C   UNL     1      47.764   6.670  19.607  0.00  0.00    +0.000 A 
ATOM      4  N   UNL     1      47.384   7.054  20.844  0.00  0.00    +0.000 NA
ATOM      5  C   UNL     1      47.505   8.344  21.171  0.00  0.00    +0.000 A 
ATOM      6  N   UNL     1      47.969   9.322  20.400  0.00  0.00    +0.000 NA
ATOM      7  C   UNL     1      48.327   8.901  19.175  0.00  0.00    +0.000 A 
ATOM      8  S   UNL     1      48.943  10.021  18.059  0.00  0.00    +0.000 S 
ATOM      9  C   UNL     1      49.122   8.816  16.877  0.00  0.00    +0.000 A 
ATOM     10  C   UNL     1      48.725   7.549  17.293  0.00  0.00    +0.000 A 
ATOM     30  C   UNL     1      48.258   7.602  18.677  0.00  0.00    +0.000 A 
BRANCH   3   2
ATOM      1  C   UNL     1      48.829   4.574  19.634  0.00  0.00    +0.000 C 
ATOM      2  O   UNL     1      47.674   5.332  19.280  0.00  0.00    +0.000 OA
ENDBRANCH   3   2
ENDBRANCH  11  10
ENDBRANCH  14  13
TORSDOF 8
ENDMDL
MODEL 7
REMARK VINA RESULT:    -6.944      1.679      2.168
REMARK INTER + INTRA:         -11.534
REMARK INTER:                 -10.410
REMARK INTRA:                  -1.124
REMARK UNBOUND:                -1.343
REMARK  Name = 
REMARK  9 active torsions:
REMARK  status: ('A' for Active; 'I' for Inactive)
REMARK    1  A    between atoms: C_1  and  O_2
REMARK    2  A    between atoms: O_2  and  C_3
REMARK    3  A    between atoms: C_10  and  C_11
REMARK    4  A    between atoms: N_13  and  C_14
REMARK    5  A    between atoms: C_14  and  C_15
REMARK    6  A    between atoms: C_18  and  C_19
REMARK    7  A    between atoms: C_19  and  N_20
REMARK    8  A    between atoms: N_20  and  C_21
REMARK    9  A    between atoms: C_21  and  C_22
REMARK                            x       y       z     vdW  Elec       q    Type
REMARK                         _______ _______ _______ _____ _____    ______ ____
ROOT
ATOM     14  C   UNL     1      47.756   7.762  13.724  0.00  0.00    +0.000 C 
ENDROOT
BRANCH  14  15
ATOM     15  C   UNL     1      46.907   6.633  13.198  0.00  0.00    +0.000 A 
ATOM     16  C   UNL     1      46.970   5.362  13.782  0.00  0.00    +0.000 A 
ATOM     17  C   UNL     1      46.229   4.298  13.255  0.00  0.00    +0.000 A 
ATOM     18  C   UNL     1      45.412   4.480  12.130  0.00  0.00    +0.000 A 
ATOM     28  C   UNL     1      45.337   5.758  11.557  0.00  0.00    +0.000 A 
ATOM     29  C   UNL     1      46.081   6.820  12.082  0.00  0.00    +0.000 A 
BRANCH  18  19
ATOM     19  C   UNL     1      44.667   3.314  11.518  0.00  0.00    +0.000 C 
BRANCH  19  20
ATOM     20  N   UNL     1      44.373   3.539  10.106  0.00  0.00    +0.000 NA
ATOM     32  H   UNL     1      45.037   4.213   9.726  0.00  0.00    +0.000 HD
BRANCH  20  21
ATOM     21  C   UNL     1      44.470   2.297   9.338  0.00  0.00    +0.000 C 
BRANCH  21  22
ATOM     22  C   UNL     1      45.622   2.346   8.359  0.00  0.00    +0.000 A 
ATOM     23  C   UNL     1      46.413   1.216   8.119  0.00  0.00    +0.000 A 
ATOM     24  C   UNL     1      47.464   1.265   7.198  0.00  0.00    +0.000 A 
ATOM     25  C   UNL     1      47.731   2.447   6.506  0.00  0.00    +0.000 A 
ATOM     26  C   UNL     1      46.950   3.578   6.734  0.00  0.00    +0.000 A 
ATOM     27  C   UNL     1      45.900   3.527   7.653  0.00  0.00    +0.000 A 
ENDBRANCH  21  22
ENDBRANCH  20  21
ENDBRANCH  19  20
ENDBRANCH  18  19
ENDBRANCH  14  15
BRANCH  14  13
ATOM     11  C   UNL     1      49.268   7.729  15.659  0.00  0.00    +0.000 C 
ATOM     12  O   UNL     1      48.603   8.603  16.214  0.00  0.00    +0.000 OA
ATOM     13  N   UNL     1      48.919   7.262  14.421  0.00  0.00    +0.000 N 
ATOM     31  H   UNL     1      49.482   6.559  13.960  0.00  0.00    +0.000 HD
BRANCH  11  10
ATOM      3  C   UNL     1      49.953   4.667  17.104  0.00  0.00    +0.000 A 
ATOM      4  N   UNL     1      50.477   3.604  17.750  0.00  0.00    +0.000 NA
ATOM      5  C   UNL     1      51.734   3.690  18.194  0.00  0.00    +0.000 A 
ATOM      6  N   UNL     1      52.554   4.729  18.072  0.00  0.00    +0.000 NA
ATOM      7  C   UNL     1      51.993   5.769  17.434  0.00  0.00    +0.000 A 
ATOM      8  S   UNL     1      52.901   7.182  17.189  0.00  0.00    +0.000 S 
ATOM      9  C   UNL     1      51.600   7.939  16.404  0.00  0.00    +0.000 A 
ATOM     10  C   UNL     1      50.458   7.150  16.307  0.00  0.00    +0.000 A 
ATOM     30  C   UNL     1      50.701   5.844  16.918  0.00  0.00    +0.000 A 
BRANCH   3   2
ATOM      1  C   UNL     1      48.107   3.261  16.725  0.00  0.00    +0.000 C 
ATOM      2  O   UNL     1      48.668   4.568  16.612  0.00  0.00    +0.000 OA
ENDBRANCH   3   2
ENDBRANCH  11  10
ENDBRANCH  14  13
TORSDOF 8
ENDMDL
MODEL 8
REMARK VINA RESULT:    -6.773      3.131      7.848
REMARK INTER + INTRA:         -11.283
REMARK INTER:                  -9.508
REMARK INTRA:                  -1.775
REMARK UNBOUND:                -1.343
REMARK  Name = 
REMARK  9 active torsions:
REMARK  status: ('A' for Active; 'I' for Inactive)
REMARK    1  A    between atoms: C_1  and  O_2
REMARK    2  A    between atoms: O_2  and  C_3
REMARK    3  A    between atoms: C_10  and  C_11
REMARK    4  A    between atoms: N_13  and  C_14
REMARK    5  A    between atoms: C_14  and  C_15
REMARK    6  A    between atoms: C_18  and  C_19
REMARK    7  A    between atoms: C_19  and  N_20
REMARK    8  A    between atoms: N_20  and  C_21
REMARK    9  A    between atoms: C_21  and  C_22
REMARK                            x       y       z     vdW  Elec       q    Type
REMARK                         _______ _______ _______ _____ _____    ______ ____
ROOT
ATOM     14  C   UNL     1      48.508   7.979  12.022  0.00  0.00    +0.000 C 
ENDROOT
BRANCH  14  15
ATOM     15  C   UNL     1      48.547   7.910  13.527  0.00  0.00    +0.000 A 
ATOM     16  C   UNL     1      47.957   8.916  14.303  0.00  0.00    +0.000 A 
ATOM     17  C   UNL     1      48.046   8.883  15.699  0.00  0.00    +0.000 A 
ATOM     18  C   UNL     1      48.730   7.847  16.351  0.00  0.00    +0.000 A 
ATOM     28  C   UNL     1      49.306   6.833  15.573  0.00  0.00    +0.000 A 
ATOM     29  C   UNL     1      49.219   6.867  14.177  0.00  0.00    +0.000 A 
BRANCH  18  19
ATOM     19  C   UNL     1      48.888   7.851  17.856  0.00  0.00    +0.000 C 
BRANCH  19  20
ATOM     20  N   UNL     1      47.673   7.403  18.530  0.00  0.00    +0.000 NA
ATOM     32  H   UNL     1      46.974   7.151  17.832  0.00  0.00    +0.000 HD
BRANCH  20  21
ATOM     21  C   UNL     1      47.934   6.239  19.378  0.00  0.00    +0.000 C 
BRANCH  21  22
ATOM     22  C   UNL     1      48.249   5.016  18.547  0.00  0.00    +0.000 A 
ATOM     23  C   UNL     1      49.539   4.472  18.524  0.00  0.00    +0.000 A 
ATOM     24  C   UNL     1      49.817   3.329  17.767  0.00  0.00    +0.000 A 
ATOM     25  C   UNL     1      48.803   2.718  17.029  0.00  0.00    +0.000 A 
ATOM     26  C   UNL     1      47.515   3.247  17.046  0.00  0.00    +0.000 A 
ATOM     27  C   UNL     1      47.239   4.387  17.802  0.00  0.00    +0.000 A 
ENDBRANCH  21  22
ENDBRANCH  20  21
ENDBRANCH  19  20
ENDBRANCH  18  19
ENDBRANCH  14  15
BRANCH  14  13
ATOM     11  C   UNL     1      46.397   6.910  11.366  0.00  0.00    +0.000 C 
ATOM     12  O   UNL     1      45.761   7.887  11.759  0.00  0.00    +0.000 OA
ATOM     13  N   UNL     1      47.761   6.874  11.466  0.00  0.00    +0.000 N 
ATOM     31  H   UNL     1      48.277   6.058  11.161  0.00  0.00    +0.000 HD
BRANCH  11  10
ATOM      3  C   UNL     1      44.518   4.314  12.655  0.00  0.00    +0.000 A 
ATOM      4  N   UNL     1      43.797   3.195  12.878  0.00  0.00    +0.000 NA
ATOM      5  C   UNL     1      43.474   2.431  11.831  0.00  0.00    +0.000 A 
ATOM      6  N   UNL     1      43.787   2.649  10.557  0.00  0.00    +0.000 NA
ATOM      7  C   UNL     1      44.511   3.766  10.378  0.00  0.00    +0.000 A 
ATOM      8  S   UNL     1      44.998   4.199   8.810  0.00  0.00    +0.000 S 
ATOM      9  C   UNL     1      45.797   5.580   9.388  0.00  0.00    +0.000 A 
ATOM     10  C   UNL     1      45.716   5.748  10.767  0.00  0.00    +0.000 A 
ATOM     30  C   UNL     1      44.934   4.662  11.357  0.00  0.00    +0.000 A 
BRANCH   3   2
ATOM      1  C   UNL     1      46.128   4.913  14.260  0.00  0.00    +0.000 C 
ATOM      2  O   UNL     1      44.821   5.125  13.730  0.00  0.00    +0.000 OA
ENDBRANCH   3   2
ENDBRANCH  11  10
ENDBRANCH  14  13
TORSDOF 8
ENDMDL
MODEL 9
REMARK VINA RESULT:    -6.551      3.539      8.666
REMARK INTER + INTRA:         -10.958
REMARK INTER:                  -8.836
REMARK INTRA:                  -2.122
REMARK UNBOUND:                -1.343
REMARK  Name = 
REMARK  9 active torsions:
REMARK  status: ('A' for Active; 'I' for Inactive)
REMARK    1  A    between atoms: C_1  and  O_2
REMARK    2  A    between atoms: O_2  and  C_3
REMARK    3  A    between atoms: C_10  and  C_11
REMARK    4  A    between atoms: N_13  and  C_14
REMARK    5  A    between atoms: C_14  and  C_15
REMARK    6  A    between atoms: C_18  and  C_19
REMARK    7  A    between atoms: C_19  and  N_20
REMARK    8  A    between atoms: N_20  and  C_21
REMARK    9  A    between atoms: C_21  and  C_22
REMARK                            x       y       z     vdW  Elec       q    Type
REMARK                         _______ _______ _______ _____ _____    ______ ____
ROOT
ATOM     14  C   UNL     1      47.376   3.335  16.769  0.00  0.00    +0.000 C 
ENDROOT
BRANCH  14  15
ATOM     15  C   UNL     1      48.630   3.661  17.538  0.00  0.00    +0.000 A 
ATOM     16  C   UNL     1      48.571   4.441  18.701  0.00  0.00    +0.000 A 
ATOM     17  C   UNL     1      49.741   4.795  19.381  0.00  0.00    +0.000 A 
ATOM     18  C   UNL     1      50.997   4.381  18.914  0.00  0.00    +0.000 A 
ATOM     28  C   UNL     1      51.052   3.586  17.760  0.00  0.00    +0.000 A 
ATOM     29  C   UNL     1      49.882   3.235  17.078  0.00  0.00    +0.000 A 
BRANCH  18  19
ATOM     19  C   UNL     1      52.266   4.824  19.609  0.00  0.00    +0.000 C 
BRANCH  19  20
ATOM     20  N   UNL     1      52.306   6.272  19.794  0.00  0.00    +0.000 NA
ATOM     32  H   UNL     1      52.916   6.494  20.580  0.00  0.00    +0.000 HD
BRANCH  20  21
ATOM     21  C   UNL     1      52.812   6.947  18.598  0.00  0.00    +0.000 C 
BRANCH  21  22
ATOM     22  C   UNL     1      51.687   7.308  17.655  0.00  0.00    +0.000 A 
ATOM     23  C   UNL     1      51.690   6.867  16.326  0.00  0.00    +0.000 A 
ATOM     24  C   UNL     1      50.635   7.190  15.466  0.00  0.00    +0.000 A 
ATOM     25  C   UNL     1      49.566   7.956  15.930  0.00  0.00    +0.000 A 
ATOM     26  C   UNL     1      49.550   8.399  17.251  0.00  0.00    +0.000 A 
ATOM     27  C   UNL     1      50.602   8.076  18.108  0.00  0.00    +0.000 A 
ENDBRANCH  21  22
ENDBRANCH  20  21
ENDBRANCH  19  20
ENDBRANCH  18  19
ENDBRANCH  14  15
BRANCH  14  13
ATOM     11  C   UNL     1      46.957   4.220  14.517  0.00  0.00    +0.000 C 
ATOM     12  O   UNL     1      47.216   3.125  14.021  0.00  0.00    +0.000 OA
ATOM     13  N   UNL     1      47.018   4.409  15.871  0.00  0.00    +0.000 N 
ATOM     31  H   UNL     1      46.826   5.318  16.271  0.00  0.00    +0.000 HD
BRANCH  11  10
ATOM      3  C   UNL     1      44.125   4.989  12.694  0.00  0.00    +0.000 A 
ATOM      4  N   UNL     1      43.184   5.520  11.885  0.00  0.00    +0.000 NA
ATOM      5  C   UNL     1      43.439   6.696  11.305  0.00  0.00    +0.000 A 
ATOM      6  N   UNL     1      44.542   7.426  11.433  0.00  0.00    +0.000 NA
ATOM      7  C   UNL     1      45.457   6.860  12.238  0.00  0.00    +0.000 A 
ATOM      8  S   UNL     1      46.928   7.659  12.515  0.00  0.00    +0.000 S 
ATOM      9  C   UNL     1      47.473   6.407  13.524  0.00  0.00    +0.000 A 
ATOM     10  C   UNL     1      46.565   5.364  13.675  0.00  0.00    +0.000 A 
ATOM     30  C   UNL     1      45.351   5.644  12.910  0.00  0.00    +0.000 A 
BRANCH   3   2
ATOM      1  C   UNL     1      43.530   2.729  12.428  0.00  0.00    +0.000 C 
ATOM      2  O   UNL     1      43.849   3.792  13.324  0.00  0.00    +0.000 OA
ENDBRANCH   3   2
ENDBRANCH  11  10
ENDBRANCH  14  13
TORSDOF 8
ENDMDL
