MODEL 1
REMARK VINA RESULT:    -7.654      0.000      0.000
REMARK INTER + INTRA:          -9.963
REMARK INTER:                  -9.668
REMARK INTRA:                  -0.295
REMARK UNBOUND:                -0.295
REMARK  Name = 
REMARK  5 active torsions:
REMARK  status: ('A' for Active; 'I' for Inactive)
REMARK    1  A    between atoms: N_1  and  C_2
REMARK    2  A    between atoms: C_2  and  C_3
REMARK    3  A    between atoms: C_7  and  C_8
REMARK    4  A    between atoms: C_8  and  N_9
REMARK    5  A    between atoms: C_13  and  C_14
REMARK                            x       y       z     vdW  Elec       q    Type
REMARK                         _______ _______ _______ _____ _____    ______ ____
ROOT
ATOM      9  N   UNL     1      43.994   3.476  10.480  0.00  0.00    +0.000 N 
ATOM     10  C   UNL     1      44.852   3.245   9.393  0.00  0.00    +0.000 A 
ATOM     11  C   UNL     1      45.228   1.937   9.098  0.00  0.00    +0.000 A 
ATOM     12  C   UNL     1      46.083   1.690   8.019  0.00  0.00    +0.000 A 
ATOM     13  C   UNL     1      46.553   2.755   7.251  0.00  0.00    +0.000 A 
ATOM     17  C   UNL     1      46.150   4.024   7.628  0.00  0.00    +0.000 A 
ATOM     18  N   UNL     1      45.325   4.284   8.672  0.00  0.00    +0.000 NA
ATOM     22  H   UNL     1      43.151   2.920  10.367  0.00  0.00    +0.000 HD
ENDROOT
BRANCH  13  14
ATOM     14  C   UNL     1      47.437   2.489   6.090  0.00  0.00    +0.000 C 
ATOM     15  N   UNL     1      48.790   2.464   6.274  0.00  0.00    +0.000 N 
ATOM     16  O   UNL     1      46.970   2.304   4.970  0.00  0.00    +0.000 OA
ATOM     23  H   UNL     1      49.279   2.612   7.144  0.00  0.00    +0.000 HD
ATOM     24  H   UNL     1      49.355   2.294   5.451  0.00  0.00    +0.000 HD
ENDBRANCH  13  14
BRANCH   9   8
ATOM      8  C   UNL     1      43.677   4.888  10.664  0.00  0.00    +0.000 C 
BRANCH   8   7
ATOM      3  C   UNL     1      46.256   5.399  13.446  0.00  0.00    +0.000 A 
ATOM      4  C   UNL     1      46.681   6.707  13.168  0.00  0.00    +0.000 A 
ATOM      5  C   UNL     1      46.108   7.435  12.127  0.00  0.00    +0.000 A 
ATOM      6  C   UNL     1      45.113   6.859  11.338  0.00  0.00    +0.000 A 
ATOM      7  C   UNL     1      44.677   5.550  11.585  0.00  0.00    +0.000 A 
ATOM     19  C   UNL     1      45.247   4.834  12.650  0.00  0.00    +0.000 A 
BRANCH   3   2
ATOM      2  C   UNL     1      46.912   4.595  14.538  0.00  0.00    +0.000 C 
BRANCH   2   1
ATOM      1  N   UNL     1      47.287   3.260  14.082  0.00  0.00    +0.000 NA
ATOM     20  H   UNL     1      46.797   2.570  14.647  0.00  0.00    +0.000 HD
ATOM     21  H   UNL     1      48.281   3.126  14.261  0.00  0.00    +0.000 HD
ENDBRANCH   2   1
ENDBRANCH   3   2
ENDBRANCH   8   7
ENDBRANCH   9   8
TORSDOF 5
ENDMDL
MODEL 2
REMARK VINA RESULT:    -7.369      2.758      6.794
REMARK INTER + INTRA:          -9.603
REMARK INTER:                  -9.322
REMARK INTRA:                  -0.281
REMARK UNBOUND:                -0.295
REMARK  Name = 
REMARK  5 active torsions:
REMARK  status: ('A' for Active; 'I' for Inactive)
REMARK    1  A    between atoms: N_1  and  C_2
REMARK    2  A    between atoms: C_2  and  C_3
REMARK    3  A    between atoms: C_7  and  C_8
REMARK    4  A    between atoms: C_8  and  N_9
REMARK    5  A    between atoms: C_13  and  C_14
REMARK                            x       y       z     vdW  Elec       q    Type
REMARK                         _______ _______ _______ _____ _____    ______ ____
ROOT
ATOM      9  N   UNL     1      45.040   5.371   9.790  0.00  0.00    +0.000 N 
ATOM     10  C   UNL     1      45.552   5.186  11.084  0.00  0.00    +0.000 A 
ATOM     11  C   UNL     1      46.365   6.173  11.634  0.00  0.00    +0.000 A 
ATOM     12  C   UNL     1      46.885   6.004  12.921  0.00  0.00    +0.000 A 
ATOM     13  C   UNL     1      46.586   4.847  13.641  0.00  0.00    +0.000 A 
ATOM     17  C   UNL     1      45.790   3.907  13.011  0.00  0.00    +0.000 A 
ATOM     18  N   UNL     1      45.280   4.051  11.762  0.00  0.00    +0.000 NA
ATOM     22  H   UNL     1      44.540   6.255   9.750  0.00  0.00    +0.000 HD
ENDROOT
BRANCH  13  14
ATOM     14  C   UNL     1      47.114   4.682  15.017  0.00  0.00    +0.000 C 
ATOM     15  N   UNL     1      47.752   5.731  15.617  0.00  0.00    +0.000 N 
ATOM     16  O   UNL     1      46.996   3.617  15.615  0.00  0.00    +0.000 OA
ATOM     23  H   UNL     1      47.912   6.642  15.217  0.00  0.00    +0.000 HD
ATOM     24  H   UNL     1      48.109   5.568  16.551  0.00  0.00    +0.000 HD
ENDBRANCH  13  14
BRANCH   9   8
ATOM      8  C   UNL     1      44.197   4.265   9.349  0.00  0.00    +0.000 C 
BRANCH   8   7
ATOM      3  C   UNL     1      46.493   2.746   6.690  0.00  0.00    +0.000 A 
ATOM      4  C   UNL     1      46.656   1.448   7.199  0.00  0.00    +0.000 A 
ATOM      5  C   UNL     1      45.993   1.051   8.359  0.00  0.00    +0.000 A 
ATOM      6  C   UNL     1      45.172   1.952   9.036  0.00  0.00    +0.000 A 
ATOM      7  C   UNL     1      45.000   3.257   8.557  0.00  0.00    +0.000 A 
ATOM     19  C   UNL     1      45.656   3.639   7.376  0.00  0.00    +0.000 A 
BRANCH   3   2
ATOM      2  C   UNL     1      47.251   3.190   5.465  0.00  0.00    +0.000 C 
BRANCH   2   1
ATOM      1  N   UNL     1      48.345   2.281   5.142  0.00  0.00    +0.000 NA
ATOM     20  H   UNL     1      48.829   2.629   4.318  0.00  0.00    +0.000 HD
ATOM     21  H   UNL     1      47.948   1.379   4.884  0.00  0.00    +0.000 HD
ENDBRANCH   2   1
ENDBRANCH   3   2
ENDBRANCH   8   7
ENDBRANCH   9   8
TORSDOF 5
ENDMDL
MODEL 3
REMARK VINA RESULT:    -7.161      1.630      2.365
REMARK INTER + INTRA:          -9.340
REMARK INTER:                  -9.113
REMARK INTRA:                  -0.227
REMARK UNBOUND:                -0.295
REMARK  Name = 
REMARK  5 active torsions:
REMARK  status: ('A' for Active; 'I' for Inactive)
REMARK    1  A    between atoms: N_1  and  C_2
REMARK    2  A    between atoms: C_2  and  C_3
REMARK    3  A    between atoms: C_7  and  C_8
REMARK    4  A    between atoms: C_8  and  N_9
REMARK    5  A    between atoms: C_13  and  C_14
REMARK                            x       y       z     vdW  Elec       q    Type
REMARK                         _______ _______ _______ _____ _____    ______ ____
ROOT
ATOM      9  N   UNL     1      43.951   3.349  10.425  0.00  0.00    +0.000 N 
ATOM     10  C   UNL     1      44.824   3.129   9.347  0.00  0.00    +0.000 A 
ATOM     11  C   UNL     1      45.284   1.837   9.107  0.00  0.00    +0.000 A 
ATOM     12  C   UNL     1      46.155   1.601   8.038  0.00  0.00    +0.000 A 
ATOM     13  C   UNL     1      46.556   2.661   7.225  0.00  0.00    +0.000 A 
ATOM     17  C   UNL     1      46.070   3.916   7.549  0.00  0.00    +0.000 A 
ATOM     18  N   UNL     1      45.229   4.165   8.583  0.00  0.00    +0.000 NA
ATOM     22  H   UNL     1      43.146   2.736  10.337  0.00  0.00    +0.000 HD
ENDROOT
BRANCH  13  14
ATOM     14  C   UNL     1      47.456   2.404   6.075  0.00  0.00    +0.000 C 
ATOM     15  N   UNL     1      48.808   2.391   6.276  0.00  0.00    +0.000 N 
ATOM     16  O   UNL     1      47.005   2.216   4.949  0.00  0.00    +0.000 OA
ATOM     23  H   UNL     1      49.284   2.541   7.152  0.00  0.00    +0.000 HD
ATOM     24  H   UNL     1      49.384   2.226   5.460  0.00  0.00    +0.000 HD
ENDBRANCH  13  14
BRANCH   9   8
ATOM      8  C   UNL     1      43.543   4.744  10.549  0.00  0.00    +0.000 C 
BRANCH   8   7
ATOM      3  C   UNL     1      45.507   7.644  12.094  0.00  0.00    +0.000 A 
ATOM      4  C   UNL     1      46.157   6.985  13.148  0.00  0.00    +0.000 A 
ATOM      5  C   UNL     1      46.005   5.611  13.329  0.00  0.00    +0.000 A 
ATOM      6  C   UNL     1      45.185   4.880  12.468  0.00  0.00    +0.000 A 
ATOM      7  C   UNL     1      44.514   5.515  11.415  0.00  0.00    +0.000 A 
ATOM     19  C   UNL     1      44.693   6.896  11.230  0.00  0.00    +0.000 A 
BRANCH   3   2
ATOM      2  C   UNL     1      45.631   9.137  11.930  0.00  0.00    +0.000 C 
BRANCH   2   1
ATOM      1  N   UNL     1      44.611   9.855  12.687  0.00  0.00    +0.000 NA
ATOM     20  H   UNL     1      45.068  10.506  13.320  0.00  0.00    +0.000 HD
ATOM     21  H   UNL     1      44.114   9.185  13.272  0.00  0.00    +0.000 HD
ENDBRANCH   2   1
ENDBRANCH   3   2
ENDBRANCH   8   7
ENDBRANCH   9   8
TORSDOF 5
ENDMDL
MODEL 4
REMARK VINA RESULT:    -6.887      3.198      6.526
REMARK INTER + INTRA:          -8.994
REMARK INTER:                  -8.817
REMARK INTRA:                  -0.177
REMARK UNBOUND:                -0.295
REMARK  Name = 
REMARK  5 active torsions:
REMARK  status: ('A' for Active; 'I' for Inactive)
REMARK    1  A    between atoms: N_1  and  C_2
REMARK    2  A    between atoms: C_2  and  C_3
REMARK    3  A    between atoms: C_7  and  C_8
REMARK    4  A    between atoms: C_8  and  N_9
REMARK    5  A    between atoms: C_13  and  C_14
REMARK                            x       y       z     vdW  Elec       q    Type
REMARK                         _______ _______ _______ _____ _____    ______ ____
ROOT
ATOM      9  N   UNL     1      44.977   3.107  11.253  0.00  0.00    +0.000 N 
ATOM     10  C   UNL     1      45.168   4.430  11.683  0.00  0.00    +0.000 A 
ATOM     11  C   UNL     1      45.810   4.657  12.897  0.00  0.00    +0.000 A 
ATOM     12  C   UNL     1      46.007   5.968  13.341  0.00  0.00    +0.000 A 
ATOM     13  C   UNL     1      45.557   7.036  12.565  0.00  0.00    +0.000 A 
ATOM     17  C   UNL     1      44.907   6.721  11.384  0.00  0.00    +0.000 A 
ATOM     18  N   UNL     1      44.704   5.456  10.939  0.00  0.00    +0.000 NA
ATOM     22  H   UNL     1      45.872   2.627  11.234  0.00  0.00    +0.000 HD
ENDROOT
BRANCH  13  14
ATOM     14  C   UNL     1      45.792   8.427  13.023  0.00  0.00    +0.000 C 
ATOM     15  N   UNL     1      44.883   9.397  12.704  0.00  0.00    +0.000 N 
ATOM     16  O   UNL     1      46.792   8.719  13.671  0.00  0.00    +0.000 OA
ATOM     23  H   UNL     1      44.036   9.271  12.172  0.00  0.00    +0.000 HD
ATOM     24  H   UNL     1      45.092  10.334  13.025  0.00  0.00    +0.000 HD
ENDBRANCH  13  14
BRANCH   9   8
ATOM      8  C   UNL     1      44.303   3.021   9.962  0.00  0.00    +0.000 C 
BRANCH   8   7
ATOM      3  C   UNL     1      46.765   1.613   7.392  0.00  0.00    +0.000 A 
ATOM      4  C   UNL     1      47.011   2.755   6.615  0.00  0.00    +0.000 A 
ATOM      5  C   UNL     1      46.430   3.978   6.946  0.00  0.00    +0.000 A 
ATOM      6  C   UNL     1      45.580   4.072   8.048  0.00  0.00    +0.000 A 
ATOM      7  C   UNL     1      45.307   2.945   8.833  0.00  0.00    +0.000 A 
ATOM     19  C   UNL     1      45.916   1.723   8.503  0.00  0.00    +0.000 A 
BRANCH   3   2
ATOM      2  C   UNL     1      47.353   0.281   7.003  0.00  0.00    +0.000 C 
BRANCH   2   1
ATOM      1  N   UNL     1      46.729  -0.822   7.727  0.00  0.00    +0.000 NA
ATOM     20  H   UNL     1      47.424  -1.549   7.881  0.00  0.00    +0.000 HD
ATOM     21  H   UNL     1      46.010  -1.231   7.132  0.00  0.00    +0.000 HD
ENDBRANCH   2   1
ENDBRANCH   3   2
ENDBRANCH   8   7
ENDBRANCH   9   8
TORSDOF 5
ENDMDL
MODEL 5
REMARK VINA RESULT:    -6.736      1.803      2.515
REMARK INTER + INTRA:          -8.803
REMARK INTER:                  -8.504
REMARK INTRA:                  -0.299
REMARK UNBOUND:                -0.295
REMARK  Name = 
REMARK  5 active torsions:
REMARK  status: ('A' for Active; 'I' for Inactive)
REMARK    1  A    between atoms: N_1  and  C_2
REMARK    2  A    between atoms: C_2  and  C_3
REMARK    3  A    between atoms: C_7  and  C_8
REMARK    4  A    between atoms: C_8  and  N_9
REMARK    5  A    between atoms: C_13  and  C_14
REMARK                            x       y       z     vdW  Elec       q    Type
REMARK                         _______ _______ _______ _____ _____    ______ ____
ROOT
ATOM      9  N   UNL     1      45.138   5.458   9.447  0.00  0.00    +0.000 N 
ATOM     10  C   UNL     1      45.548   4.238   8.887  0.00  0.00    +0.000 A 
ATOM     11  C   UNL     1      46.188   4.247   7.650  0.00  0.00    +0.000 A 
ATOM     12  C   UNL     1      46.602   3.041   7.077  0.00  0.00    +0.000 A 
ATOM     13  C   UNL     1      46.369   1.840   7.747  0.00  0.00    +0.000 A 
ATOM     17  C   UNL     1      45.705   1.919   8.959  0.00  0.00    +0.000 A 
ATOM     18  N   UNL     1      45.293   3.079   9.529  0.00  0.00    +0.000 NA
ATOM     22  H   UNL     1      45.934   6.087   9.505  0.00  0.00    +0.000 HD
ENDROOT
BRANCH  13  14
ATOM     14  C   UNL     1      46.834   0.564   7.152  0.00  0.00    +0.000 C 
ATOM     15  N   UNL     1      47.313   0.561   5.872  0.00  0.00    +0.000 N 
ATOM     16  O   UNL     1      46.784  -0.485   7.787  0.00  0.00    +0.000 OA
ATOM     23  H   UNL     1      47.390   1.358   5.260  0.00  0.00    +0.000 HD
ATOM     24  H   UNL     1      47.605  -0.336   5.502  0.00  0.00    +0.000 HD
ENDBRANCH  13  14
BRANCH   9   8
ATOM      8  C   UNL     1      44.494   5.298  10.747  0.00  0.00    +0.000 C 
BRANCH   8   7
ATOM      3  C   UNL     1      47.516   6.320  12.861  0.00  0.00    +0.000 A 
ATOM      4  C   UNL     1      47.297   5.553  14.015  0.00  0.00    +0.000 A 
ATOM      5  C   UNL     1      46.216   4.677  14.091  0.00  0.00    +0.000 A 
ATOM      6  C   UNL     1      45.327   4.570  13.021  0.00  0.00    +0.000 A 
ATOM      7  C   UNL     1      45.515   5.334  11.862  0.00  0.00    +0.000 A 
ATOM     19  C   UNL     1      46.621   6.197  11.788  0.00  0.00    +0.000 A 
BRANCH   3   2
ATOM      2  C   UNL     1      48.656   7.305  12.800  0.00  0.00    +0.000 C 
BRANCH   2   1
ATOM      1  N   UNL     1      49.696   6.996  13.776  0.00  0.00    +0.000 NA
ATOM     20  H   UNL     1      49.452   6.131  14.254  0.00  0.00    +0.000 HD
ATOM     21  H   UNL     1      49.698   7.727  14.486  0.00  0.00    +0.000 HD
ENDBRANCH   2   1
ENDBRANCH   3   2
ENDBRANCH   8   7
ENDBRANCH   9   8
TORSDOF 5
ENDMDL
MODEL 6
REMARK VINA RESULT:    -6.529      3.700      8.416
REMARK INTER + INTRA:          -8.542
REMARK INTER:                  -8.143
REMARK INTRA:                  -0.399
REMARK UNBOUND:                -0.295
REMARK  Name = 
REMARK  5 active torsions:
REMARK  status: ('A' for Active; 'I' for Inactive)
REMARK    1  A    between atoms: N_1  and  C_2
REMARK    2  A    between atoms: C_2  and  C_3
REMARK    3  A    between atoms: C_7  and  C_8
REMARK    4  A    between atoms: C_8  and  N_9
REMARK    5  A    between atoms: C_13  and  C_14
REMARK                            x       y       z     vdW  Elec       q    Type
REMARK                         _______ _______ _______ _____ _____    ______ ____
ROOT
ATOM      9  N   UNL     1      47.300   2.385   5.994  0.00  0.00    +0.000 N 
ATOM     10  C   UNL     1      46.482   2.622   7.112  0.00  0.00    +0.000 A 
ATOM     11  C   UNL     1      46.106   3.930   7.405  0.00  0.00    +0.000 A 
ATOM     12  C   UNL     1      45.294   4.183   8.515  0.00  0.00    +0.000 A 
ATOM     13  C   UNL     1      44.870   3.125   9.318  0.00  0.00    +0.000 A 
ATOM     17  C   UNL     1      45.309   1.860   8.969  0.00  0.00    +0.000 A 
ATOM     18  N   UNL     1      46.100   1.595   7.899  0.00  0.00    +0.000 NA
ATOM     22  H   UNL     1      46.863   2.784   5.168  0.00  0.00    +0.000 HD
ENDROOT
BRANCH  13  14
ATOM     14  C   UNL     1      43.985   3.392  10.478  0.00  0.00    +0.000 C 
ATOM     15  N   UNL     1      43.801   2.414  11.415  0.00  0.00    +0.000 N 
ATOM     16  O   UNL     1      43.411   4.469  10.600  0.00  0.00    +0.000 OA
ATOM     23  H   UNL     1      44.213   1.494  11.409  0.00  0.00    +0.000 HD
ATOM     24  H   UNL     1      43.177   2.635  12.181  0.00  0.00    +0.000 HD
ENDBRANCH  13  14
BRANCH   9   8
ATOM      8  C   UNL     1      47.603   0.971   5.802  0.00  0.00    +0.000 C 
BRANCH   8   7
ATOM      3  C   UNL     1      46.276  -1.430   3.132  0.00  0.00    +0.000 A 
ATOM      4  C   UNL     1      45.623  -0.530   2.276  0.00  0.00    +0.000 A 
ATOM      5  C   UNL     1      45.652   0.840   2.529  0.00  0.00    +0.000 A 
ATOM      6  C   UNL     1      46.320   1.329   3.651  0.00  0.00    +0.000 A 
ATOM      7  C   UNL     1      46.971   0.453   4.530  0.00  0.00    +0.000 A 
ATOM     19  C   UNL     1      46.953  -0.924   4.252  0.00  0.00    +0.000 A 
BRANCH   3   2
ATOM      2  C   UNL     1      46.201  -2.914   2.887  0.00  0.00    +0.000 C 
BRANCH   2   1
ATOM      1  N   UNL     1      46.046  -3.665   4.128  0.00  0.00    +0.000 NA
ATOM     20  H   UNL     1      46.805  -4.338   4.202  0.00  0.00    +0.000 HD
ATOM     21  H   UNL     1      45.185  -4.207   4.071  0.00  0.00    +0.000 HD
ENDBRANCH   2   1
ENDBRANCH   3   2
ENDBRANCH   8   7
ENDBRANCH   9   8
TORSDOF 5
ENDMDL
MODEL 7
REMARK VINA RESULT:    -6.417      3.735      6.200
REMARK INTER + INTRA:          -8.400
REMARK INTER:                  -8.094
REMARK INTRA:                  -0.306
REMARK UNBOUND:                -0.295
REMARK  Name = 
REMARK  5 active torsions:
REMARK  status: ('A' for Active; 'I' for Inactive)
REMARK    1  A    between atoms: N_1  and  C_2
REMARK    2  A    between atoms: C_2  and  C_3
REMARK    3  A    between atoms: C_7  and  C_8
REMARK    4  A    between atoms: C_8  and  N_9
REMARK    5  A    between atoms: C_13  and  C_14
REMARK                            x       y       z     vdW  Elec       q    Type
REMARK                         _______ _______ _______ _____ _____    ______ ____
ROOT
ATOM      9  N   UNL     1      47.269   5.109  15.234  0.00  0.00    +0.000 N 
ATOM     10  C   UNL     1      46.602   4.887  14.018  0.00  0.00    +0.000 A 
ATOM     11  C   UNL     1      46.477   5.942  13.118  0.00  0.00    +0.000 A 
ATOM     12  C   UNL     1      45.814   5.739  11.903  0.00  0.00    +0.000 A 
ATOM     13  C   UNL     1      45.282   4.483  11.606  0.00  0.00    +0.000 A 
ATOM     17  C   UNL     1      45.430   3.499  12.568  0.00  0.00    +0.000 A 
ATOM     18  N   UNL     1      46.066   3.678  13.752  0.00  0.00    +0.000 NA
ATOM     22  H   UNL     1      48.196   5.479  15.046  0.00  0.00    +0.000 HD
ENDROOT
BRANCH  13  14
ATOM     14  C   UNL     1      44.605   4.261  10.306  0.00  0.00    +0.000 C 
ATOM     15  N   UNL     1      45.035   4.947   9.205  0.00  0.00    +0.000 N 
ATOM     16  O   UNL     1      43.661   3.483  10.210  0.00  0.00    +0.000 OA
ATOM     23  H   UNL     1      45.790   5.613   9.172  0.00  0.00    +0.000 HD
ATOM     24  H   UNL     1      44.533   4.774   8.342  0.00  0.00    +0.000 HD
ENDBRANCH  13  14
BRANCH   9   8
ATOM      8  C   UNL     1      47.334   3.916  16.072  0.00  0.00    +0.000 C 
BRANCH   8   7
ATOM      3  C   UNL     1      50.637   2.517  17.409  0.00  0.00    +0.000 A 
ATOM      4  C   UNL     1      51.237   3.688  17.895  0.00  0.00    +0.000 A 
ATOM      5  C   UNL     1      50.565   4.907  17.838  0.00  0.00    +0.000 A 
ATOM      6  C   UNL     1      49.289   4.976  17.279  0.00  0.00    +0.000 A 
ATOM      7  C   UNL     1      48.670   3.824  16.775  0.00  0.00    +0.000 A 
ATOM     19  C   UNL     1      49.349   2.597  16.857  0.00  0.00    +0.000 A 
BRANCH   3   2
ATOM      2  C   UNL     1      51.385   1.209  17.423  0.00  0.00    +0.000 C 
BRANCH   2   1
ATOM      1  N   UNL     1      52.541   1.252  18.311  0.00  0.00    +0.000 NA
ATOM     20  H   UNL     1      52.798   0.300  18.563  0.00  0.00    +0.000 HD
ATOM     21  H   UNL     1      52.266   1.714  19.176  0.00  0.00    +0.000 HD
ENDBRANCH   2   1
ENDBRANCH   3   2
ENDBRANCH   8   7
ENDBRANCH   9   8
TORSDOF 5
ENDMDL
MODEL 8
REMARK VINA RESULT:    -6.202      4.836      8.348
REMARK INTER + INTRA:          -8.129
REMARK INTER:                  -7.820
REMARK INTRA:                  -0.310
REMARK UNBOUND:                -0.295
REMARK  Name = 
REMARK  5 active torsions:
REMARK  status: ('A' for Active; 'I' for Inactive)
REMARK    1  A    between atoms: N_1  and  C_2
REMARK    2  A    between atoms: C_2  and  C_3
REMARK    3  A    between atoms: C_7  and  C_8
REMARK    4  A    between atoms: C_8  and  N_9
REMARK    5  A    between atoms: C_13  and  C_14
REMARK                            x       y       z     vdW  Elec       q    Type
REMARK                         _______ _______ _______ _____ _____    ______ ____
ROOT
ATOM      9  N   UNL     1      46.799   4.230  14.901  0.00  0.00    +0.000 N 
ATOM     10  C   UNL     1      47.548   4.323  16.086  0.00  0.00    +0.000 A 
ATOM     11  C   UNL     1      47.329   3.389  17.095  0.00  0.00    +0.000 A 
ATOM     12  C   UNL     1      48.065   3.468  18.281  0.00  0.00    +0.000 A 
ATOM     13  C   UNL     1      49.009   4.482  18.444  0.00  0.00    +0.000 A 
ATOM     17  C   UNL     1      49.145   5.382  17.402  0.00  0.00    +0.000 A 
ATOM     18  N   UNL     1      48.438   5.324  16.245  0.00  0.00    +0.000 NA
ATOM     22  H   UNL     1      46.910   3.301  14.505  0.00  0.00    +0.000 HD
ENDROOT
BRANCH  13  14
ATOM     14  C   UNL     1      49.809   4.548  19.691  0.00  0.00    +0.000 C 
ATOM     15  N   UNL     1      49.206   4.269  20.885  0.00  0.00    +0.000 N 
ATOM     16  O   UNL     1      50.996   4.858  19.665  0.00  0.00    +0.000 OA
ATOM     23  H   UNL     1      48.240   4.014  21.023  0.00  0.00    +0.000 HD
ATOM     24  H   UNL     1      49.787   4.341  21.712  0.00  0.00    +0.000 HD
ENDBRANCH  13  14
BRANCH   9   8
ATOM      8  C   UNL     1      47.141   5.265  13.931  0.00  0.00    +0.000 C 
BRANCH   8   7
ATOM      3  C   UNL     1      44.550   3.970  11.428  0.00  0.00    +0.000 A 
ATOM      4  C   UNL     1      44.563   5.007  10.482  0.00  0.00    +0.000 A 
ATOM      5  C   UNL     1      45.433   6.086  10.623  0.00  0.00    +0.000 A 
ATOM      6  C   UNL     1      46.290   6.154  11.720  0.00  0.00    +0.000 A 
ATOM      7  C   UNL     1      46.290   5.139  12.687  0.00  0.00    +0.000 A 
ATOM     19  C   UNL     1      45.424   4.045  12.523  0.00  0.00    +0.000 A 
BRANCH   3   2
ATOM      2  C   UNL     1      43.573   2.830  11.302  0.00  0.00    +0.000 C 
BRANCH   2   1
ATOM      1  N   UNL     1      43.472   2.060  12.538  0.00  0.00    +0.000 NA
ATOM     20  H   UNL     1      43.022   2.635  13.247  0.00  0.00    +0.000 HD
ATOM     21  H   UNL     1      44.414   1.870  12.876  0.00  0.00    +0.000 HD
ENDBRANCH   2   1
ENDBRANCH   3   2
ENDBRANCH   8   7
ENDBRANCH   9   8
TORSDOF 5
ENDMDL
MODEL 9
REMARK VINA RESULT:    -6.065      3.864      6.238
REMARK INTER + INTRA:          -7.956
REMARK INTER:                  -7.706
REMARK INTRA:                  -0.250
REMARK UNBOUND:                -0.295
REMARK  Name = 
REMARK  5 active torsions:
REMARK  status: ('A' for Active; 'I' for Inactive)
REMARK    1  A    between atoms: N_1  and  C_2
REMARK    2  A    between atoms: C_2  and  C_3
REMARK    3  A    between atoms: C_7  and  C_8
REMARK    4  A    between atoms: C_8  and  N_9
REMARK    5  A    between atoms: C_13  and  C_14
REMARK                            x       y       z     vdW  Elec       q    Type
REMARK                         _______ _______ _______ _____ _____    ______ ____
ROOT
ATOM      9  N   UNL     1      47.253   5.300  15.039  0.00  0.00    +0.000 N 
ATOM     10  C   UNL     1      46.561   5.021  13.849  0.00  0.00    +0.000 A 
ATOM     11  C   UNL     1      46.547   5.980  12.839  0.00  0.00    +0.000 A 
ATOM     12  C   UNL     1      45.861   5.719  11.648  0.00  0.00    +0.000 A 
ATOM     13  C   UNL     1      45.196   4.504  11.484  0.00  0.00    +0.000 A 
ATOM     17  C   UNL     1      45.241   3.619  12.547  0.00  0.00    +0.000 A 
ATOM     18  N   UNL     1      45.897   3.855  13.710  0.00  0.00    +0.000 NA
ATOM     22  H   UNL     1      48.214   5.545  14.819  0.00  0.00    +0.000 HD
ENDROOT
BRANCH  13  14
ATOM     14  C   UNL     1      44.493   4.217  10.210  0.00  0.00    +0.000 C 
ATOM     15  N   UNL     1      44.929   4.812   9.060  0.00  0.00    +0.000 N 
ATOM     16  O   UNL     1      43.524   3.465  10.179  0.00  0.00    +0.000 OA
ATOM     23  H   UNL     1      45.705   5.450   8.973  0.00  0.00    +0.000 HD
ATOM     24  H   UNL     1      44.410   4.599   8.217  0.00  0.00    +0.000 HD
ENDBRANCH  13  14
BRANCH   9   8
ATOM      8  C   UNL     1      47.193   4.204  16.000  0.00  0.00    +0.000 C 
BRANCH   8   7
ATOM      3  C   UNL     1      48.085   5.362  19.538  0.00  0.00    +0.000 A 
ATOM      4  C   UNL     1      49.425   4.952  19.615  0.00  0.00    +0.000 A 
ATOM      5  C   UNL     1      50.049   4.355  18.521  0.00  0.00    +0.000 A 
ATOM      6  C   UNL     1      49.337   4.143  17.341  0.00  0.00    +0.000 A 
ATOM      7  C   UNL     1      47.995   4.531  17.240  0.00  0.00    +0.000 A 
ATOM     19  C   UNL     1      47.383   5.151  18.342  0.00  0.00    +0.000 A 
BRANCH   3   2
ATOM      2  C   UNL     1      47.397   5.960  20.738  0.00  0.00    +0.000 C 
BRANCH   2   1
ATOM      1  N   UNL     1      47.302   5.010  21.841  0.00  0.00    +0.000 NA
ATOM     20  H   UNL     1      47.344   4.065  21.467  0.00  0.00    +0.000 HD
ATOM     21  H   UNL     1      46.385   5.109  22.273  0.00  0.00    +0.000 HD
ENDBRANCH   2   1
ENDBRANCH   3   2
ENDBRANCH   8   7
ENDBRANCH   9   8
TORSDOF 5
ENDMDL
