MODEL 1
REMARK VINA RESULT:    -8.080      0.000      0.000
REMARK INTER + INTRA:         -10.831
REMARK INTER:                  -9.969
REMARK INTRA:                  -0.862
REMARK UNBOUND:                -0.862
REMARK  Name = 
REMARK  4 active torsions:
REMARK  status: ('A' for Active; 'I' for Inactive)
REMARK    1  A    between atoms: C_2  and  C_4
REMARK    2  A    between atoms: N_8  and  C_9
REMARK    3  A    between atoms: C_9  and  C_10
REMARK    4  A    between atoms: C_14  and  N_15
REMARK                            x       y       z     vdW  Elec       q    Type
REMARK                         _______ _______ _______ _____ _____    ______ ____
ROOT
ATOM      9  C   UNL     1      44.058   4.916  11.569  0.00  0.00    +0.000 C 
ATOM     22  C   UNL     1      42.696   4.995  12.249  0.00  0.00    +0.000 C 
ATOM     23  C   UNL     1      43.032   5.949  11.150  0.00  0.00    +0.000 C 
ENDROOT
BRANCH   9   8
ATOM      4  C   UNL     1      46.493   2.984   7.368  0.00  0.00    +0.000 A 
ATOM      5  C   UNL     1      46.280   4.307   7.739  0.00  0.00    +0.000 A 
ATOM      6  C   UNL     1      45.532   4.578   8.890  0.00  0.00    +0.000 A 
ATOM      7  C   UNL     1      45.050   3.527   9.661  0.00  0.00    +0.000 A 
ATOM      8  N   UNL     1      44.276   3.690  10.804  0.00  0.00    +0.000 N 
ATOM     24  N   UNL     1      45.256   2.241   9.302  0.00  0.00    +0.000 NA
ATOM     25  C   UNL     1      45.946   1.994   8.162  0.00  0.00    +0.000 A 
ATOM     28  H   UNL     1      44.195   2.792  11.269  0.00  0.00    +0.000 HD
BRANCH   4   2
ATOM      1  N   UNL     1      48.591   2.439   6.275  0.00  0.00    +0.000 N 
ATOM      2  C   UNL     1      47.242   2.594   6.152  0.00  0.00    +0.000 C 
ATOM      3  O   UNL     1      46.669   2.390   5.089  0.00  0.00    +0.000 OA
ATOM     26  H   UNL     1      49.070   2.061   5.467  0.00  0.00    +0.000 HD
ATOM     27  H   UNL     1      49.043   2.331   7.172  0.00  0.00    +0.000 HD
ENDBRANCH   4   2
ENDBRANCH   9   8
BRANCH   9  10
ATOM     10  C   UNL     1      45.292   5.379  12.340  0.00  0.00    +0.000 A 
ATOM     11  C   UNL     1      45.783   4.662  13.440  0.00  0.00    +0.000 A 
ATOM     12  C   UNL     1      46.984   5.019  14.049  0.00  0.00    +0.000 A 
ATOM     13  C   UNL     1      47.726   6.089  13.549  0.00  0.00    +0.000 A 
ATOM     14  C   UNL     1      47.280   6.853  12.462  0.00  0.00    +0.000 A 
ATOM     21  C   UNL     1      46.043   6.494  11.906  0.00  0.00    +0.000 A 
BRANCH  14  15
ATOM     15  N   UNL     1      48.047   7.899  11.976  0.00  0.00    +0.000 N 
ATOM     16  C   UNL     1      49.486   7.764  11.705  0.00  0.00    +0.000 C 
ATOM     17  C   UNL     1      50.336   8.605  12.685  0.00  0.00    +0.000 C 
ATOM     18  N   UNL     1      49.929  10.023  12.748  0.00  0.00    +0.000 NA
ATOM     19  C   UNL     1      48.498  10.074  13.124  0.00  0.00    +0.000 C 
ATOM     20  C   UNL     1      47.565   9.280  12.178  0.00  0.00    +0.000 C 
ATOM     29  H   UNL     1      50.018  10.415  11.810  0.00  0.00    +0.000 HD
ENDBRANCH  14  15
ENDBRANCH   9  10
TORSDOF 4
ENDMDL
MODEL 2
REMARK VINA RESULT:    -7.983      1.933      3.052
REMARK INTER + INTRA:         -10.712
REMARK INTER:                  -9.877
REMARK INTRA:                  -0.835
REMARK UNBOUND:                -0.862
REMARK  Name = 
REMARK  4 active torsions:
REMARK  status: ('A' for Active; 'I' for Inactive)
REMARK    1  A    between atoms: C_2  and  C_4
REMARK    2  A    between atoms: N_8  and  C_9
REMARK    3  A    between atoms: C_9  and  C_10
REMARK    4  A    between atoms: C_14  and  N_15
REMARK                            x       y       z     vdW  Elec       q    Type
REMARK                         _______ _______ _______ _____ _____    ______ ____
ROOT
ATOM      9  C   UNL     1      44.025   4.874  11.683  0.00  0.00    +0.000 C 
ATOM     22  C   UNL     1      42.803   4.779  12.588  0.00  0.00    +0.000 C 
ATOM     23  C   UNL     1      42.774   5.682  11.399  0.00  0.00    +0.000 C 
ENDROOT
BRANCH   9   8
ATOM      4  C   UNL     1      46.471   3.004   7.460  0.00  0.00    +0.000 A 
ATOM      5  C   UNL     1      46.146   4.317   7.788  0.00  0.00    +0.000 A 
ATOM      6  C   UNL     1      45.420   4.564   8.959  0.00  0.00    +0.000 A 
ATOM      7  C   UNL     1      45.071   3.506   9.789  0.00  0.00    +0.000 A 
ATOM      8  N   UNL     1      44.329   3.643  10.956  0.00  0.00    +0.000 N 
ATOM     24  N   UNL     1      45.385   2.230   9.471  0.00  0.00    +0.000 NA
ATOM     25  C   UNL     1      46.052   2.002   8.313  0.00  0.00    +0.000 A 
ATOM     28  H   UNL     1      44.352   2.761  11.458  0.00  0.00    +0.000 HD
BRANCH   4   2
ATOM      1  N   UNL     1      48.551   2.440   6.343  0.00  0.00    +0.000 N 
ATOM      2  C   UNL     1      47.206   2.636   6.229  0.00  0.00    +0.000 C 
ATOM      3  O   UNL     1      46.626   2.484   5.161  0.00  0.00    +0.000 OA
ATOM     26  H   UNL     1      49.018   2.077   5.521  0.00  0.00    +0.000 HD
ATOM     27  H   UNL     1      49.001   2.290   7.235  0.00  0.00    +0.000 HD
ENDBRANCH   4   2
ENDBRANCH   9   8
BRANCH   9  10
ATOM     10  C   UNL     1      45.266   5.600  12.197  0.00  0.00    +0.000 A 
ATOM     11  C   UNL     1      45.595   6.891  11.761  0.00  0.00    +0.000 A 
ATOM     12  C   UNL     1      46.650   7.594  12.336  0.00  0.00    +0.000 A 
ATOM     13  C   UNL     1      47.381   7.022  13.377  0.00  0.00    +0.000 A 
ATOM     14  C   UNL     1      47.109   5.729  13.846  0.00  0.00    +0.000 A 
ATOM     21  C   UNL     1      46.071   5.034  13.209  0.00  0.00    +0.000 A 
BRANCH  14  15
ATOM     15  N   UNL     1      47.841   5.193  14.894  0.00  0.00    +0.000 N 
ATOM     16  C   UNL     1      47.421   3.980  15.610  0.00  0.00    +0.000 C 
ATOM     17  C   UNL     1      47.006   4.289  17.068  0.00  0.00    +0.000 C 
ATOM     18  N   UNL     1      48.029   5.038  17.824  0.00  0.00    +0.000 NA
ATOM     19  C   UNL     1      48.320   6.289  17.089  0.00  0.00    +0.000 C 
ATOM     20  C   UNL     1      48.773   6.074  15.626  0.00  0.00    +0.000 C 
ATOM     29  H   UNL     1      48.882   4.477  17.833  0.00  0.00    +0.000 HD
ENDBRANCH  14  15
ENDBRANCH   9  10
TORSDOF 4
ENDMDL
MODEL 3
REMARK VINA RESULT:    -6.613      3.457      5.833
REMARK INTER + INTRA:          -9.022
REMARK INTER:                  -8.600
REMARK INTRA:                  -0.422
REMARK UNBOUND:                -0.862
REMARK  Name = 
REMARK  4 active torsions:
REMARK  status: ('A' for Active; 'I' for Inactive)
REMARK    1  A    between atoms: C_2  and  C_4
REMARK    2  A    between atoms: N_8  and  C_9
REMARK    3  A    between atoms: C_9  and  C_10
REMARK    4  A    between atoms: C_14  and  N_15
REMARK                            x       y       z     vdW  Elec       q    Type
REMARK                         _______ _______ _______ _____ _____    ______ ____
ROOT
ATOM      9  C   UNL     1      48.085   8.236  13.488  0.00  0.00    +0.000 C 
ATOM     22  C   UNL     1      47.998   9.751  13.357  0.00  0.00    +0.000 C 
ATOM     23  C   UNL     1      48.512   8.938  12.215  0.00  0.00    +0.000 C 
ENDROOT
BRANCH   9   8
ATOM      4  C   UNL     1      44.790   5.033  10.998  0.00  0.00    +0.000 A 
ATOM      5  C   UNL     1      45.910   5.704  10.516  0.00  0.00    +0.000 A 
ATOM      6  C   UNL     1      46.602   6.570  11.369  0.00  0.00    +0.000 A 
ATOM      7  C   UNL     1      46.187   6.716  12.687  0.00  0.00    +0.000 A 
ATOM      8  N   UNL     1      46.789   7.569  13.604  0.00  0.00    +0.000 N 
ATOM     24  N   UNL     1      45.100   6.065  13.158  0.00  0.00    +0.000 NA
ATOM     25  C   UNL     1      44.414   5.262  12.308  0.00  0.00    +0.000 A 
ATOM     28  H   UNL     1      46.412   7.371  14.525  0.00  0.00    +0.000 HD
BRANCH   4   2
ATOM      1  N   UNL     1      44.049   4.277   8.814  0.00  0.00    +0.000 N 
ATOM      2  C   UNL     1      43.971   4.122  10.167  0.00  0.00    +0.000 C 
ATOM      3  O   UNL     1      43.278   3.248  10.671  0.00  0.00    +0.000 OA
ATOM     26  H   UNL     1      43.575   3.575   8.259  0.00  0.00    +0.000 HD
ATOM     27  H   UNL     1      44.800   4.788   8.371  0.00  0.00    +0.000 HD
ENDBRANCH   4   2
ENDBRANCH   9   8
BRANCH   9  10
ATOM     10  C   UNL     1      49.161   7.636  14.391  0.00  0.00    +0.000 A 
ATOM     11  C   UNL     1      50.500   8.043  14.308  0.00  0.00    +0.000 A 
ATOM     12  C   UNL     1      51.444   7.589  15.225  0.00  0.00    +0.000 A 
ATOM     13  C   UNL     1      51.056   6.736  16.259  0.00  0.00    +0.000 A 
ATOM     14  C   UNL     1      49.735   6.283  16.384  0.00  0.00    +0.000 A 
ATOM     21  C   UNL     1      48.824   6.722  15.414  0.00  0.00    +0.000 A 
BRANCH  14  15
ATOM     15  N   UNL     1      49.375   5.449  17.431  0.00  0.00    +0.000 N 
ATOM     16  C   UNL     1      49.926   4.095  17.587  0.00  0.00    +0.000 C 
ATOM     17  C   UNL     1      48.849   3.008  17.361  0.00  0.00    +0.000 C 
ATOM     18  N   UNL     1      47.640   3.199  18.187  0.00  0.00    +0.000 NA
ATOM     19  C   UNL     1      47.092   4.543  17.896  0.00  0.00    +0.000 C 
ATOM     20  C   UNL     1      48.095   5.699  18.123  0.00  0.00    +0.000 C 
ATOM     29  H   UNL     1      47.926   3.185  19.166  0.00  0.00    +0.000 HD
ENDBRANCH  14  15
ENDBRANCH   9  10
TORSDOF 4
ENDMDL
MODEL 4
REMARK VINA RESULT:    -6.432      4.785      8.673
REMARK INTER + INTRA:          -8.798
REMARK INTER:                  -7.928
REMARK INTRA:                  -0.870
REMARK UNBOUND:                -0.862
REMARK  Name = 
REMARK  4 active torsions:
REMARK  status: ('A' for Active; 'I' for Inactive)
REMARK    1  A    between atoms: C_2  and  C_4
REMARK    2  A    between atoms: N_8  and  C_9
REMARK    3  A    between atoms: C_9  and  C_10
REMARK    4  A    between atoms: C_14  and  N_15
REMARK                            x       y       z     vdW  Elec       q    Type
REMARK                         _______ _______ _______ _____ _____    ______ ____
ROOT
ATOM      9  C   UNL     1      49.082   7.851  14.076  0.00  0.00    +0.000 C 
ATOM     22  C   UNL     1      50.142   8.435  13.149  0.00  0.00    +0.000 C 
ATOM     23  C   UNL     1      49.611   9.257  14.278  0.00  0.00    +0.000 C 
ENDROOT
BRANCH   9   8
ATOM      4  C   UNL     1      48.714   5.672  18.812  0.00  0.00    +0.000 A 
ATOM      5  C   UNL     1      48.306   6.930  18.380  0.00  0.00    +0.000 A 
ATOM      6  C   UNL     1      48.578   7.317  17.063  0.00  0.00    +0.000 A 
ATOM      7  C   UNL     1      49.211   6.430  16.201  0.00  0.00    +0.000 A 
ATOM      8  N   UNL     1      49.549   6.727  14.887  0.00  0.00    +0.000 N 
ATOM     24  N   UNL     1      49.608   5.207  16.619  0.00  0.00    +0.000 NA
ATOM     25  C   UNL     1      49.376   4.862  17.909  0.00  0.00    +0.000 A 
ATOM     28  H   UNL     1      49.845   5.872  14.428  0.00  0.00    +0.000 HD
BRANCH   4   2
ATOM      1  N   UNL     1      48.581   3.835  20.393  0.00  0.00    +0.000 N 
ATOM      2  C   UNL     1      48.504   5.182  20.193  0.00  0.00    +0.000 C 
ATOM      3  O   UNL     1      48.302   5.956  21.120  0.00  0.00    +0.000 OA
ATOM     26  H   UNL     1      48.550   3.528  21.358  0.00  0.00    +0.000 HD
ATOM     27  H   UNL     1      49.008   3.212  19.723  0.00  0.00    +0.000 HD
ENDBRANCH   4   2
ENDBRANCH   9   8
BRANCH   9  10
ATOM     10  C   UNL     1      47.661   7.671  13.547  0.00  0.00    +0.000 A 
ATOM     11  C   UNL     1      46.770   8.749  13.455  0.00  0.00    +0.000 A 
ATOM     12  C   UNL     1      45.526   8.599  12.846  0.00  0.00    +0.000 A 
ATOM     13  C   UNL     1      45.164   7.369  12.297  0.00  0.00    +0.000 A 
ATOM     14  C   UNL     1      46.006   6.251  12.371  0.00  0.00    +0.000 A 
ATOM     21  C   UNL     1      47.229   6.428  13.034  0.00  0.00    +0.000 A 
BRANCH  14  15
ATOM     15  N   UNL     1      45.627   5.046  11.801  0.00  0.00    +0.000 N 
ATOM     16  C   UNL     1      45.157   4.944  10.412  0.00  0.00    +0.000 C 
ATOM     17  C   UNL     1      43.658   4.573  10.339  0.00  0.00    +0.000 C 
ATOM     18  N   UNL     1      43.313   3.367  11.117  0.00  0.00    +0.000 NA
ATOM     19  C   UNL     1      43.726   3.591  12.521  0.00  0.00    +0.000 C 
ATOM     20  C   UNL     1      45.224   3.941  12.692  0.00  0.00    +0.000 C 
ATOM     29  H   UNL     1      43.865   2.591  10.751  0.00  0.00    +0.000 HD
ENDBRANCH  14  15
ENDBRANCH   9  10
TORSDOF 4
ENDMDL
MODEL 5
REMARK VINA RESULT:    -6.407      4.136      6.730
REMARK INTER + INTRA:          -8.768
REMARK INTER:                  -7.836
REMARK INTRA:                  -0.932
REMARK UNBOUND:                -0.862
REMARK  Name = 
REMARK  4 active torsions:
REMARK  status: ('A' for Active; 'I' for Inactive)
REMARK    1  A    between atoms: C_2  and  C_4
REMARK    2  A    between atoms: N_8  and  C_9
REMARK    3  A    between atoms: C_9  and  C_10
REMARK    4  A    between atoms: C_14  and  N_15
REMARK                            x       y       z     vdW  Elec       q    Type
REMARK                         _______ _______ _______ _____ _____    ______ ____
ROOT
ATOM      9  C   UNL     1      48.661   8.066  13.797  0.00  0.00    +0.000 C 
ATOM     22  C   UNL     1      49.591   9.038  13.082  0.00  0.00    +0.000 C 
ATOM     23  C   UNL     1      49.862   7.571  13.017  0.00  0.00    +0.000 C 
ENDROOT
BRANCH   9   8
ATOM      4  C   UNL     1      44.702   4.831  12.713  0.00  0.00    +0.000 A 
ATOM      5  C   UNL     1      46.020   4.538  13.050  0.00  0.00    +0.000 A 
ATOM      6  C   UNL     1      46.924   5.591  13.230  0.00  0.00    +0.000 A 
ATOM      7  C   UNL     1      46.485   6.904  13.111  0.00  0.00    +0.000 A 
ATOM      8  N   UNL     1      47.308   8.016  13.245  0.00  0.00    +0.000 N 
ATOM     24  N   UNL     1      45.206   7.190  12.785  0.00  0.00    +0.000 NA
ATOM     25  C   UNL     1      44.351   6.159  12.571  0.00  0.00    +0.000 A 
ATOM     28  H   UNL     1      46.725   8.846  13.279  0.00  0.00    +0.000 HD
BRANCH   4   2
ATOM      1  N   UNL     1      42.642   4.118  11.645  0.00  0.00    +0.000 N 
ATOM      2  C   UNL     1      43.679   3.789  12.468  0.00  0.00    +0.000 C 
ATOM      3  O   UNL     1      43.776   2.671  12.958  0.00  0.00    +0.000 OA
ATOM     26  H   UNL     1      42.016   3.362  11.396  0.00  0.00    +0.000 HD
ATOM     27  H   UNL     1      42.678   4.913  11.023  0.00  0.00    +0.000 HD
ENDBRANCH   4   2
ENDBRANCH   9   8
BRANCH   9  10
ATOM     10  C   UNL     1      48.699   7.999  15.322  0.00  0.00    +0.000 A 
ATOM     11  C   UNL     1      48.198   9.040  16.116  0.00  0.00    +0.000 A 
ATOM     12  C   UNL     1      48.115   8.909  17.500  0.00  0.00    +0.000 A 
ATOM     13  C   UNL     1      48.511   7.718  18.111  0.00  0.00    +0.000 A 
ATOM     14  C   UNL     1      49.033   6.648  17.371  0.00  0.00    +0.000 A 
ATOM     21  C   UNL     1      49.147   6.836  15.987  0.00  0.00    +0.000 A 
BRANCH  14  15
ATOM     15  N   UNL     1      49.402   5.471  18.004  0.00  0.00    +0.000 N 
ATOM     16  C   UNL     1      49.121   4.147  17.432  0.00  0.00    +0.000 C 
ATOM     17  C   UNL     1      48.077   3.370  18.269  0.00  0.00    +0.000 C 
ATOM     18  N   UNL     1      48.424   3.280  19.701  0.00  0.00    +0.000 NA
ATOM     19  C   UNL     1      48.590   4.655  20.223  0.00  0.00    +0.000 C 
ATOM     20  C   UNL     1      49.640   5.498  19.460  0.00  0.00    +0.000 C 
ATOM     29  H   UNL     1      49.326   2.808  19.775  0.00  0.00    +0.000 HD
ENDBRANCH  14  15
ENDBRANCH   9  10
TORSDOF 4
ENDMDL
MODEL 6
REMARK VINA RESULT:    -6.310      3.609      7.543
REMARK INTER + INTRA:          -8.648
REMARK INTER:                  -8.626
REMARK INTRA:                  -0.022
REMARK UNBOUND:                -0.862
REMARK  Name = 
REMARK  4 active torsions:
REMARK  status: ('A' for Active; 'I' for Inactive)
REMARK    1  A    between atoms: C_2  and  C_4
REMARK    2  A    between atoms: N_8  and  C_9
REMARK    3  A    between atoms: C_9  and  C_10
REMARK    4  A    between atoms: C_14  and  N_15
REMARK                            x       y       z     vdW  Elec       q    Type
REMARK                         _______ _______ _______ _____ _____    ______ ____
ROOT
ATOM      9  C   UNL     1      48.550   8.090  12.710  0.00  0.00    +0.000 C 
ATOM     22  C   UNL     1      49.476   7.306  11.788  0.00  0.00    +0.000 C 
ATOM     23  C   UNL     1      49.580   8.795  11.850  0.00  0.00    +0.000 C 
ENDROOT
BRANCH   9   8
ATOM      4  C   UNL     1      47.846   4.569  16.507  0.00  0.00    +0.000 A 
ATOM      5  C   UNL     1      47.300   4.616  15.229  0.00  0.00    +0.000 A 
ATOM      6  C   UNL     1      47.590   5.710  14.406  0.00  0.00    +0.000 A 
ATOM      7  C   UNL     1      48.445   6.706  14.861  0.00  0.00    +0.000 A 
ATOM      8  N   UNL     1      48.773   7.844  14.134  0.00  0.00    +0.000 N 
ATOM     24  N   UNL     1      48.976   6.663  16.103  0.00  0.00    +0.000 NA
ATOM     25  C   UNL     1      48.653   5.618  16.905  0.00  0.00    +0.000 A 
ATOM     28  H   UNL     1      49.531   8.323  14.609  0.00  0.00    +0.000 HD
BRANCH   4   2
ATOM      1  N   UNL     1      48.545   3.191  18.379  0.00  0.00    +0.000 N 
ATOM      2  C   UNL     1      47.574   3.473  17.465  0.00  0.00    +0.000 C 
ATOM      3  O   UNL     1      46.509   2.868  17.455  0.00  0.00    +0.000 OA
ATOM     26  H   UNL     1      48.298   2.520  19.097  0.00  0.00    +0.000 HD
ATOM     27  H   UNL     1      49.295   3.835  18.587  0.00  0.00    +0.000 HD
ENDBRANCH   4   2
ENDBRANCH   9   8
BRANCH   9  10
ATOM     10  C   UNL     1      47.075   8.215  12.338  0.00  0.00    +0.000 A 
ATOM     11  C   UNL     1      46.437   9.462  12.269  0.00  0.00    +0.000 A 
ATOM     12  C   UNL     1      45.132   9.574  11.798  0.00  0.00    +0.000 A 
ATOM     13  C   UNL     1      44.449   8.437  11.364  0.00  0.00    +0.000 A 
ATOM     14  C   UNL     1      45.028   7.161  11.423  0.00  0.00    +0.000 A 
ATOM     21  C   UNL     1      46.326   7.083  11.948  0.00  0.00    +0.000 A 
BRANCH  14  15
ATOM     15  N   UNL     1      44.333   6.052  10.969  0.00  0.00    +0.000 N 
ATOM     16  C   UNL     1      42.945   5.774  11.367  0.00  0.00    +0.000 C 
ATOM     17  C   UNL     1      42.846   4.516  12.261  0.00  0.00    +0.000 C 
ATOM     18  N   UNL     1      43.490   3.325  11.673  0.00  0.00    +0.000 NA
ATOM     19  C   UNL     1      44.906   3.656  11.396  0.00  0.00    +0.000 C 
ATOM     20  C   UNL     1      45.100   4.889  10.481  0.00  0.00    +0.000 C 
ATOM     29  H   UNL     1      43.035   3.134  10.780  0.00  0.00    +0.000 HD
ENDBRANCH  14  15
ENDBRANCH   9  10
TORSDOF 4
ENDMDL
MODEL 7
REMARK VINA RESULT:    -6.056      2.591      6.977
REMARK INTER + INTRA:          -8.334
REMARK INTER:                  -8.115
REMARK INTRA:                  -0.219
REMARK UNBOUND:                -0.862
REMARK  Name = 
REMARK  4 active torsions:
REMARK  status: ('A' for Active; 'I' for Inactive)
REMARK    1  A    between atoms: C_2  and  C_4
REMARK    2  A    between atoms: N_8  and  C_9
REMARK    3  A    between atoms: C_9  and  C_10
REMARK    4  A    between atoms: C_14  and  N_15
REMARK                            x       y       z     vdW  Elec       q    Type
REMARK                         _______ _______ _______ _____ _____    ______ ____
ROOT
ATOM      9  C   UNL     1      46.806   4.642  13.580  0.00  0.00    +0.000 C 
ATOM     22  C   UNL     1      46.744   4.755  15.099  0.00  0.00    +0.000 C 
ATOM     23  C   UNL     1      47.334   3.535  14.471  0.00  0.00    +0.000 C 
ENDROOT
BRANCH   9   8
ATOM      4  C   UNL     1      47.158   9.626  12.048  0.00  0.00    +0.000 A 
ATOM      5  C   UNL     1      46.042   8.897  12.446  0.00  0.00    +0.000 A 
ATOM      6  C   UNL     1      46.190   7.539  12.749  0.00  0.00    +0.000 A 
ATOM      7  C   UNL     1      47.449   6.953  12.687  0.00  0.00    +0.000 A 
ATOM      8  N   UNL     1      47.696   5.610  12.943  0.00  0.00    +0.000 N 
ATOM     24  N   UNL     1      48.534   7.659  12.301  0.00  0.00    +0.000 NA
ATOM     25  C   UNL     1      48.368   8.963  11.968  0.00  0.00    +0.000 A 
ATOM     28  H   UNL     1      48.700   5.471  12.993  0.00  0.00    +0.000 HD
BRANCH   4   2
ATOM      1  N   UNL     1      46.609  11.924  12.605  0.00  0.00    +0.000 N 
ATOM      2  C   UNL     1      47.099  11.057  11.673  0.00  0.00    +0.000 C 
ATOM      3  O   UNL     1      47.503  11.448  10.585  0.00  0.00    +0.000 OA
ATOM     26  H   UNL     1      46.683  12.908  12.378  0.00  0.00    +0.000 HD
ATOM     27  H   UNL     1      46.530  11.679  13.582  0.00  0.00    +0.000 HD
ENDBRANCH   4   2
ENDBRANCH   9   8
BRANCH   9  10
ATOM     10  C   UNL     1      45.510   4.406  12.808  0.00  0.00    +0.000 A 
ATOM     11  C   UNL     1      44.271   4.838  13.301  0.00  0.00    +0.000 A 
ATOM     12  C   UNL     1      43.118   4.738  12.528  0.00  0.00    +0.000 A 
ATOM     13  C   UNL     1      43.191   4.223  11.233  0.00  0.00    +0.000 A 
ATOM     14  C   UNL     1      44.398   3.760  10.690  0.00  0.00    +0.000 A 
ATOM     21  C   UNL     1      45.528   3.832  11.517  0.00  0.00    +0.000 A 
BRANCH  14  15
ATOM     15  N   UNL     1      44.444   3.270   9.395  0.00  0.00    +0.000 N 
ATOM     16  C   UNL     1      44.606   1.839   9.098  0.00  0.00    +0.000 C 
ATOM     17  C   UNL     1      45.974   1.540   8.443  0.00  0.00    +0.000 C 
ATOM     18  N   UNL     1      46.252   2.374   7.257  0.00  0.00    +0.000 NA
ATOM     19  C   UNL     1      46.169   3.795   7.663  0.00  0.00    +0.000 C 
ATOM     20  C   UNL     1      44.818   4.192   8.305  0.00  0.00    +0.000 C 
ATOM     29  H   UNL     1      45.513   2.202   6.575  0.00  0.00    +0.000 HD
ENDBRANCH  14  15
ENDBRANCH   9  10
TORSDOF 4
ENDMDL
MODEL 8
REMARK VINA RESULT:    -5.922      4.001      7.066
REMARK INTER + INTRA:          -8.169
REMARK INTER:                  -7.208
REMARK INTRA:                  -0.961
REMARK UNBOUND:                -0.862
REMARK  Name = 
REMARK  4 active torsions:
REMARK  status: ('A' for Active; 'I' for Inactive)
REMARK    1  A    between atoms: C_2  and  C_4
REMARK    2  A    between atoms: N_8  and  C_9
REMARK    3  A    between atoms: C_9  and  C_10
REMARK    4  A    between atoms: C_14  and  N_15
REMARK                            x       y       z     vdW  Elec       q    Type
REMARK                         _______ _______ _______ _____ _____    ______ ____
ROOT
ATOM      9  C   UNL     1      49.359   8.486  15.146  0.00  0.00    +0.000 C 
ATOM     22  C   UNL     1      50.543   9.444  15.111  0.00  0.00    +0.000 C 
ATOM     23  C   UNL     1      50.675   8.082  14.514  0.00  0.00    +0.000 C 
ENDROOT
BRANCH   9   8
ATOM      4  C   UNL     1      45.459   6.728  12.143  0.00  0.00    +0.000 A 
ATOM      5  C   UNL     1      46.583   6.060  12.619  0.00  0.00    +0.000 A 
ATOM      6  C   UNL     1      47.533   6.772  13.359  0.00  0.00    +0.000 A 
ATOM      7  C   UNL     1      47.322   8.116  13.640  0.00  0.00    +0.000 A 
ATOM      8  N   UNL     1      48.216   8.915  14.342  0.00  0.00    +0.000 N 
ATOM     24  N   UNL     1      46.231   8.767  13.179  0.00  0.00    +0.000 NA
ATOM     25  C   UNL     1      45.340   8.076  12.427  0.00  0.00    +0.000 A 
ATOM     28  H   UNL     1      47.762   9.798  14.554  0.00  0.00    +0.000 HD
BRANCH   4   2
ATOM      1  N   UNL     1      43.233   6.740  11.176  0.00  0.00    +0.000 N 
ATOM      2  C   UNL     1      44.414   6.074  11.324  0.00  0.00    +0.000 C 
ATOM      3  O   UNL     1      44.614   4.997  10.776  0.00  0.00    +0.000 OA
ATOM     26  H   UNL     1      42.575   6.335  10.521  0.00  0.00    +0.000 HD
ATOM     27  H   UNL     1      43.139   7.725  11.377  0.00  0.00    +0.000 HD
ENDBRANCH   4   2
ENDBRANCH   9   8
BRANCH   9  10
ATOM     10  C   UNL     1      48.962   7.855  16.479  0.00  0.00    +0.000 A 
ATOM     11  C   UNL     1      48.364   8.609  17.499  0.00  0.00    +0.000 A 
ATOM     12  C   UNL     1      47.885   7.997  18.654  0.00  0.00    +0.000 A 
ATOM     13  C   UNL     1      47.976   6.612  18.797  0.00  0.00    +0.000 A 
ATOM     14  C   UNL     1      48.577   5.807  17.819  0.00  0.00    +0.000 A 
ATOM     21  C   UNL     1      49.092   6.465  16.692  0.00  0.00    +0.000 A 
BRANCH  14  15
ATOM     15  N   UNL     1      48.638   4.432  17.980  0.00  0.00    +0.000 N 
ATOM     16  C   UNL     1      49.880   3.735  18.346  0.00  0.00    +0.000 C 
ATOM     17  C   UNL     1      50.405   2.854  17.189  0.00  0.00    +0.000 C 
ATOM     18  N   UNL     1      49.395   1.918  16.658  0.00  0.00    +0.000 NA
ATOM     19  C   UNL     1      48.222   2.707  16.219  0.00  0.00    +0.000 C 
ATOM     20  C   UNL     1      47.610   3.600  17.325  0.00  0.00    +0.000 C 
ATOM     29  H   UNL     1      49.095   1.315  17.425  0.00  0.00    +0.000 HD
ENDBRANCH  14  15
ENDBRANCH   9  10
TORSDOF 4
ENDMDL
MODEL 9
REMARK VINA RESULT:    -5.246      5.571      9.485
REMARK INTER + INTRA:          -7.335
REMARK INTER:                  -6.815
REMARK INTRA:                  -0.520
REMARK UNBOUND:                -0.862
REMARK  Name = 
REMARK  4 active torsions:
REMARK  status: ('A' for Active; 'I' for Inactive)
REMARK    1  A    between atoms: C_2  and  C_4
REMARK    2  A    between atoms: N_8  and  C_9
REMARK    3  A    between atoms: C_9  and  C_10
REMARK    4  A    between atoms: C_14  and  N_15
REMARK                            x       y       z     vdW  Elec       q    Type
REMARK                         _______ _______ _______ _____ _____    ______ ____
ROOT
ATOM      9  C   UNL     1      47.741   4.471  16.785  0.00  0.00    +0.000 C 
ATOM     22  C   UNL     1      47.487   2.986  17.012  0.00  0.00    +0.000 C 
ATOM     23  C   UNL     1      48.889   3.489  16.908  0.00  0.00    +0.000 C 
ENDROOT
BRANCH   9   8
ATOM      4  C   UNL     1      49.291   8.464  19.778  0.00  0.00    +0.000 A 
ATOM      5  C   UNL     1      50.027   7.680  18.895  0.00  0.00    +0.000 A 
ATOM      6  C   UNL     1      49.396   6.611  18.249  0.00  0.00    +0.000 A 
ATOM      7  C   UNL     1      48.044   6.375  18.468  0.00  0.00    +0.000 A 
ATOM      8  N   UNL     1      47.334   5.326  17.898  0.00  0.00    +0.000 N 
ATOM     24  N   UNL     1      47.328   7.135  19.326  0.00  0.00    +0.000 NA
ATOM     25  C   UNL     1      47.963   8.141  19.977  0.00  0.00    +0.000 A 
ATOM     28  H   UNL     1      46.346   5.469  18.080  0.00  0.00    +0.000 HD
BRANCH   4   2
ATOM      1  N   UNL     1      49.659  10.849  20.043  0.00  0.00    +0.000 N 
ATOM      2  C   UNL     1      49.874   9.595  20.535  0.00  0.00    +0.000 C 
ATOM      3  O   UNL     1      50.496   9.414  21.574  0.00  0.00    +0.000 OA
ATOM     26  H   UNL     1      49.963  11.615  20.632  0.00  0.00    +0.000 HD
ATOM     27  H   UNL     1      48.938  11.046  19.364  0.00  0.00    +0.000 HD
ENDBRANCH   4   2
ENDBRANCH   9   8
BRANCH   9  10
ATOM     10  C   UNL     1      47.432   5.068  15.414  0.00  0.00    +0.000 A 
ATOM     11  C   UNL     1      48.320   5.949  14.779  0.00  0.00    +0.000 A 
ATOM     12  C   UNL     1      48.091   6.379  13.475  0.00  0.00    +0.000 A 
ATOM     13  C   UNL     1      46.978   5.914  12.774  0.00  0.00    +0.000 A 
ATOM     14  C   UNL     1      46.047   5.044  13.360  0.00  0.00    +0.000 A 
ATOM     21  C   UNL     1      46.285   4.672  14.691  0.00  0.00    +0.000 A 
BRANCH  14  15
ATOM     15  N   UNL     1      44.960   4.585  12.634  0.00  0.00    +0.000 N 
ATOM     16  C   UNL     1      45.109   3.752  11.432  0.00  0.00    +0.000 C 
ATOM     17  C   UNL     1      44.673   4.504  10.153  0.00  0.00    +0.000 C 
ATOM     18  N   UNL     1      43.318   5.083  10.246  0.00  0.00    +0.000 NA
ATOM     19  C   UNL     1      43.282   5.985  11.419  0.00  0.00    +0.000 C 
ATOM     20  C   UNL     1      43.678   5.306  12.752  0.00  0.00    +0.000 C 
ATOM     29  H   UNL     1      42.664   4.319  10.421  0.00  0.00    +0.000 HD
ENDBRANCH  14  15
ENDBRANCH   9  10
TORSDOF 4
ENDMDL
