MODEL 1
REMARK VINA RESULT:    -3.738      0.000      0.000
REMARK INTER + INTRA:          -8.235
REMARK INTER:                  -5.813
REMARK INTRA:                  -2.421
REMARK UNBOUND:                -2.421
REMARK  Name = 
REMARK  25 active torsions:
REMARK  status: ('A' for Active; 'I' for Inactive)
REMARK    1  A    between atoms: C_1  and  C_2
REMARK    2  A    between atoms: C_2  and  C_3
REMARK    3  A    between atoms: C_7  and  C_8
REMARK    4  A    between atoms: C_9  and  O_10
REMARK    5  A    between atoms: O_10  and  C_11
REMARK    6  A    between atoms: C_13  and  C_14
REMARK    7  A    between atoms: C_13  and  O_15
REMARK    8  A    between atoms: O_15  and  C_16
REMARK    9  A    between atoms: C_17  and  O_18
REMARK   10  A    between atoms: C_19  and  C_20
REMARK   11  A    between atoms: C_22  and  C_23
REMARK   12  A    between atoms: C_24  and  O_25
REMARK   13  A    between atoms: O_25  and  C_26
REMARK   14  A    between atoms: C_28  and  C_29
REMARK   15  A    between atoms: C_31  and  N_32
REMARK   16  A    between atoms: N_32  and  C_33
REMARK   17  A    between atoms: N_32  and  C_34
REMARK   18  A    between atoms: C_35  and  O_36
REMARK   19  A    between atoms: C_37  and  C_38
REMARK   20  A    between atoms: C_37  and  O_39
REMARK   21  A    between atoms: C_41  and  C_42
REMARK   22  A    between atoms: C_45  and  C_46
REMARK   23  A    between atoms: C_47  and  O_48
REMARK   24  A    between atoms: C_49  and  C_50
REMARK   25  A    between atoms: C_49  and  O_51
REMARK                            x       y       z     vdW  Elec       q    Type
REMARK                         _______ _______ _______ _____ _____    ______ ____
ROOT
ATOM      3  C   UNL     1      52.695  11.571  13.958  0.00  0.00    +0.000 C 
ATOM      4  O   UNL     1      51.876  11.151  15.101  0.00  0.00    +0.000 OA
ATOM      5  C   UNL     1      52.464  10.802  16.287  0.00  0.00    +0.000 C 
ATOM      6  O   UNL     1      53.666  10.737  16.481  0.00  0.00    +0.000 OA
ATOM      7  C   UNL     1      51.384  10.449  17.309  0.00  0.00    +0.000 C 
ATOM      8  C   UNL     1      51.681  11.093  18.666  0.00  0.00    +0.000 C 
ATOM      9  C   UNL     1      51.202   8.888  17.283  0.00  0.00    +0.000 C 
ATOM     22  C   UNL     1      49.694   8.502  16.976  0.00  0.00    +0.000 C 
ATOM     23  C   UNL     1      48.671   8.730  18.111  0.00  0.00    +0.000 C 
ATOM     24  C   UNL     1      49.495   7.103  16.261  0.00  0.00    +0.000 C 
ATOM     37  C   UNL     1      48.554   7.193  14.935  0.00  0.00    +0.000 C 
ATOM     38  C   UNL     1      47.610   8.401  14.918  0.00  0.00    +0.000 C 
ATOM     40  C   UNL     1      49.482   7.130  13.698  0.00  0.00    +0.000 C 
ATOM     41  C   UNL     1      48.973   7.283  12.244  0.00  0.00    +0.000 C 
ATOM     42  C   UNL     1      47.513   7.608  11.948  0.00  0.00    +0.000 C 
ATOM     43  C   UNL     1      49.873   8.262  11.480  0.00  0.00    +0.000 C 
ATOM     44  O   UNL     1      50.465   7.882  10.469  0.00  0.00    +0.000 OA
ATOM     45  C   UNL     1      49.935   9.736  11.946  0.00  0.00    +0.000 C 
ATOM     46  C   UNL     1      49.075  10.536  10.970  0.00  0.00    +0.000 C 
ATOM     47  C   UNL     1      51.408  10.204  12.139  0.00  0.00    +0.000 C 
ATOM     49  C   UNL     1      51.710  11.651  12.716  0.00  0.00    +0.000 C 
ATOM     50  C   UNL     1      50.470  12.466  13.101  0.00  0.00    +0.000 C 
ENDROOT
BRANCH  49  51
ATOM     51  O   UNL     1      52.326  12.386  11.638  0.00  0.00    +0.000 OA
ATOM     56  H   UNL     1      52.769  11.715  11.086  0.00  0.00    +0.000 HD
ENDBRANCH  49  51
BRANCH  47  48
ATOM     48  O   UNL     1      52.144  10.105  10.901  0.00  0.00    +0.000 OA
ATOM     55  H   UNL     1      51.715   9.413  10.363  0.00  0.00    +0.000 HD
ENDBRANCH  47  48
BRANCH   3   2
ATOM      1  C   UNL     1      54.947  12.838  14.364  0.00  0.00    +0.000 C 
ATOM      2  C   UNL     1      53.426  12.904  14.287  0.00  0.00    +0.000 C 
ENDBRANCH   3   2
BRANCH  37  39
ATOM     39  O   UNL     1      47.716   6.029  14.850  0.00  0.00    +0.000 OA
ATOM     54  H   UNL     1      47.761   5.722  13.920  0.00  0.00    +0.000 HD
ENDBRANCH  37  39
BRANCH   9  10
ATOM     10  O   UNL     1      51.680   8.298  18.484  0.00  0.00    +0.000 OA
BRANCH  10  11
ATOM     11  C   UNL     1      52.702   7.285  18.480  0.00  0.00    +0.000 C 
ATOM     12  C   UNL     1      52.708   6.229  19.577  0.00  0.00    +0.000 C 
ATOM     13  C   UNL     1      54.043   5.451  19.587  0.00  0.00    +0.000 C 
ATOM     14  C   UNL     1      55.215   6.383  19.929  0.00  0.00    +0.000 C 
ATOM     17  C   UNL     1      54.266   4.815  18.192  0.00  0.00    +0.000 C 
ATOM     19  C   UNL     1      54.013   5.825  17.034  0.00  0.00    +0.000 C 
ATOM     20  C   UNL     1      55.220   6.721  16.708  0.00  0.00    +0.000 C 
ATOM     21  O   UNL     1      52.803   6.610  17.210  0.00  0.00    +0.000 OA
BRANCH  13  15
ATOM     15  O   UNL     1      53.877   4.483  20.656  0.00  0.00    +0.000 OA
ATOM     16  C   UNL     1      52.838   4.708  21.590  0.00  0.00    +0.000 C 
ENDBRANCH  13  15
BRANCH  17  18
ATOM     18  O   UNL     1      53.387   3.692  18.004  0.00  0.00    +0.000 OA
ATOM     52  H   UNL     1      53.897   2.884  18.193  0.00  0.00    +0.000 HD
ENDBRANCH  17  18
ENDBRANCH  10  11
ENDBRANCH   9  10
BRANCH  24  25
ATOM     25  O   UNL     1      48.920   6.068  17.080  0.00  0.00    +0.000 OA
BRANCH  25  26
ATOM     26  C   UNL     1      49.697   4.891  17.292  0.00  0.00    +0.000 C 
ATOM     27  O   UNL     1      49.134   3.717  16.728  0.00  0.00    +0.000 OA
ATOM     28  C   UNL     1      48.080   3.067  17.428  0.00  0.00    +0.000 C 
ATOM     29  C   UNL     1      46.769   3.228  16.663  0.00  0.00    +0.000 C 
ATOM     30  C   UNL     1      47.986   3.244  18.951  0.00  0.00    +0.000 C 
ATOM     31  C   UNL     1      48.720   4.439  19.607  0.00  0.00    +0.000 C 
ATOM     35  C   UNL     1      50.014   4.684  18.790  0.00  0.00    +0.000 C 
BRANCH  31  32
ATOM     32  N   UNL     1      47.969   5.707  19.793  0.00  0.00    +0.000 NA
ATOM     33  C   UNL     1      47.818   6.018  21.234  0.00  0.00    +0.000 C 
ATOM     34  C   UNL     1      46.639   5.761  19.184  0.00  0.00    +0.000 C 
ENDBRANCH  31  32
BRANCH  35  36
ATOM     36  O   UNL     1      50.929   3.588  18.987  0.00  0.00    +0.000 OA
ATOM     53  H   UNL     1      50.586   3.055  19.726  0.00  0.00    +0.000 HD
ENDBRANCH  35  36
ENDBRANCH  25  26
ENDBRANCH  24  25
TORSDOF 12
ENDMDL
MODEL 2
REMARK VINA RESULT:    -3.712      2.329      7.978
REMARK INTER + INTRA:          -8.195
REMARK INTER:                  -5.132
REMARK INTRA:                  -3.063
REMARK UNBOUND:                -2.421
REMARK  Name = 
REMARK  25 active torsions:
REMARK  status: ('A' for Active; 'I' for Inactive)
REMARK    1  A    between atoms: C_1  and  C_2
REMARK    2  A    between atoms: C_2  and  C_3
REMARK    3  A    between atoms: C_7  and  C_8
REMARK    4  A    between atoms: C_9  and  O_10
REMARK    5  A    between atoms: O_10  and  C_11
REMARK    6  A    between atoms: C_13  and  C_14
REMARK    7  A    between atoms: C_13  and  O_15
REMARK    8  A    between atoms: O_15  and  C_16
REMARK    9  A    between atoms: C_17  and  O_18
REMARK   10  A    between atoms: C_19  and  C_20
REMARK   11  A    between atoms: C_22  and  C_23
REMARK   12  A    between atoms: C_24  and  O_25
REMARK   13  A    between atoms: O_25  and  C_26
REMARK   14  A    between atoms: C_28  and  C_29
REMARK   15  A    between atoms: C_31  and  N_32
REMARK   16  A    between atoms: N_32  and  C_33
REMARK   17  A    between atoms: N_32  and  C_34
REMARK   18  A    between atoms: C_35  and  O_36
REMARK   19  A    between atoms: C_37  and  C_38
REMARK   20  A    between atoms: C_37  and  O_39
REMARK   21  A    between atoms: C_41  and  C_42
REMARK   22  A    between atoms: C_45  and  C_46
REMARK   23  A    between atoms: C_47  and  O_48
REMARK   24  A    between atoms: C_49  and  C_50
REMARK   25  A    between atoms: C_49  and  O_51
REMARK                            x       y       z     vdW  Elec       q    Type
REMARK                         _______ _______ _______ _____ _____    ______ ____
ROOT
ATOM      3  C   UNL     1      48.130   4.467  14.702  0.00  0.00    +0.000 C 
ATOM      4  O   UNL     1      48.090   5.912  14.954  0.00  0.00    +0.000 OA
ATOM      5  C   UNL     1      48.365   6.801  13.952  0.00  0.00    +0.000 C 
ATOM      6  O   UNL     1      48.725   6.500  12.826  0.00  0.00    +0.000 OA
ATOM      7  C   UNL     1      48.211   8.228  14.476  0.00  0.00    +0.000 C 
ATOM      8  C   UNL     1      47.439   9.099  13.481  0.00  0.00    +0.000 C 
ATOM      9  C   UNL     1      49.638   8.729  14.906  0.00  0.00    +0.000 C 
ATOM     22  C   UNL     1      49.639   9.188  16.425  0.00  0.00    +0.000 C 
ATOM     23  C   UNL     1      48.932  10.522  16.751  0.00  0.00    +0.000 C 
ATOM     24  C   UNL     1      51.035   9.051  17.162  0.00  0.00    +0.000 C 
ATOM     37  C   UNL     1      50.930   8.258  18.581  0.00  0.00    +0.000 C 
ATOM     38  C   UNL     1      49.532   8.280  19.209  0.00  0.00    +0.000 C 
ATOM     40  C   UNL     1      51.474   6.827  18.357  0.00  0.00    +0.000 C 
ATOM     41  C   UNL     1      51.454   5.729  19.449  0.00  0.00    +0.000 C 
ATOM     42  C   UNL     1      50.796   5.973  20.802  0.00  0.00    +0.000 C 
ATOM     43  C   UNL     1      50.920   4.419  18.857  0.00  0.00    +0.000 C 
ATOM     44  O   UNL     1      51.628   3.411  18.874  0.00  0.00    +0.000 OA
ATOM     45  C   UNL     1      49.462   4.373  18.342  0.00  0.00    +0.000 C 
ATOM     46  C   UNL     1      48.647   3.646  19.410  0.00  0.00    +0.000 C 
ATOM     47  C   UNL     1      49.394   3.806  16.892  0.00  0.00    +0.000 C 
ATOM     49  C   UNL     1      48.008   3.768  16.122  0.00  0.00    +0.000 C 
ATOM     50  C   UNL     1      46.825   4.371  16.887  0.00  0.00    +0.000 C 
ENDROOT
BRANCH  49  51
ATOM     51  O   UNL     1      47.683   2.371  15.963  0.00  0.00    +0.000 OA
ATOM     56  H   UNL     1      48.323   2.027  15.314  0.00  0.00    +0.000 HD
ENDBRANCH  49  51
BRANCH  47  48
ATOM     48  O   UNL     1      49.918   2.462  16.842  0.00  0.00    +0.000 OA
ATOM     55  H   UNL     1      49.272   1.917  16.356  0.00  0.00    +0.000 HD
ENDBRANCH  47  48
BRANCH   3   2
ATOM      1  C   UNL     1      45.774   4.956  13.676  0.00  0.00    +0.000 C 
ATOM      2  C   UNL     1      47.015   4.071  13.691  0.00  0.00    +0.000 C 
ENDBRANCH   3   2
BRANCH  37  39
ATOM     39  O   UNL     1      51.811   8.861  19.544  0.00  0.00    +0.000 OA
ATOM     54  H   UNL     1      51.503   9.785  19.660  0.00  0.00    +0.000 HD
ENDBRANCH  37  39
BRANCH   9  10
ATOM     10  O   UNL     1      50.107   9.746  14.032  0.00  0.00    +0.000 OA
BRANCH  10  11
ATOM     11  C   UNL     1      51.116   9.489  13.038  0.00  0.00    +0.000 C 
ATOM     12  C   UNL     1      52.228   8.496  13.346  0.00  0.00    +0.000 C 
ATOM     13  C   UNL     1      53.369   8.605  12.309  0.00  0.00    +0.000 C 
ATOM     14  C   UNL     1      54.040   9.984  12.379  0.00  0.00    +0.000 C 
ATOM     17  C   UNL     1      52.785   8.374  10.892  0.00  0.00    +0.000 C 
ATOM     19  C   UNL     1      51.486   9.199  10.646  0.00  0.00    +0.000 C 
ATOM     20  C   UNL     1      51.740  10.649  10.198  0.00  0.00    +0.000 C 
ATOM     21  O   UNL     1      50.551   9.143  11.756  0.00  0.00    +0.000 OA
BRANCH  13  15
ATOM     15  O   UNL     1      54.320   7.591  12.726  0.00  0.00    +0.000 OA
ATOM     16  C   UNL     1      54.265   7.152  14.071  0.00  0.00    +0.000 C 
ENDBRANCH  13  15
BRANCH  17  18
ATOM     18  O   UNL     1      52.474   6.984  10.696  0.00  0.00    +0.000 OA
ATOM     52  H   UNL     1      51.857   6.924   9.945  0.00  0.00    +0.000 HD
ENDBRANCH  17  18
ENDBRANCH  10  11
ENDBRANCH   9  10
BRANCH  24  25
ATOM     25  O   UNL     1      51.701  10.293  17.456  0.00  0.00    +0.000 OA
BRANCH  25  26
ATOM     26  C   UNL     1      52.625  10.787  16.488  0.00  0.00    +0.000 C 
ATOM     27  O   UNL     1      53.601   9.840  16.084  0.00  0.00    +0.000 OA
ATOM     28  C   UNL     1      54.717   9.613  16.935  0.00  0.00    +0.000 C 
ATOM     29  C   UNL     1      54.627   8.220  17.554  0.00  0.00    +0.000 C 
ATOM     30  C   UNL     1      55.160  10.734  17.887  0.00  0.00    +0.000 C 
ATOM     31  C   UNL     1      54.156  11.863  18.224  0.00  0.00    +0.000 C 
ATOM     35  C   UNL     1      53.292  12.098  16.959  0.00  0.00    +0.000 C 
BRANCH  31  32
ATOM     32  N   UNL     1      53.295  11.701  19.424  0.00  0.00    +0.000 NA
ATOM     33  C   UNL     1      52.449  12.901  19.626  0.00  0.00    +0.000 C 
ATOM     34  C   UNL     1      53.992  11.430  20.682  0.00  0.00    +0.000 C 
ENDBRANCH  31  32
BRANCH  35  36
ATOM     36  O   UNL     1      54.102  12.679  15.917  0.00  0.00    +0.000 OA
ATOM     53  H   UNL     1      54.673  11.973  15.568  0.00  0.00    +0.000 HD
ENDBRANCH  35  36
ENDBRANCH  25  26
ENDBRANCH  24  25
TORSDOF 12
ENDMDL
MODEL 3
REMARK VINA RESULT:    -3.334      2.472      7.756
REMARK INTER + INTRA:          -7.607
REMARK INTER:                  -4.728
REMARK INTRA:                  -2.879
REMARK UNBOUND:                -2.421
REMARK  Name = 
REMARK  25 active torsions:
REMARK  status: ('A' for Active; 'I' for Inactive)
REMARK    1  A    between atoms: C_1  and  C_2
REMARK    2  A    between atoms: C_2  and  C_3
REMARK    3  A    between atoms: C_7  and  C_8
REMARK    4  A    between atoms: C_9  and  O_10
REMARK    5  A    between atoms: O_10  and  C_11
REMARK    6  A    between atoms: C_13  and  C_14
REMARK    7  A    between atoms: C_13  and  O_15
REMARK    8  A    between atoms: O_15  and  C_16
REMARK    9  A    between atoms: C_17  and  O_18
REMARK   10  A    between atoms: C_19  and  C_20
REMARK   11  A    between atoms: C_22  and  C_23
REMARK   12  A    between atoms: C_24  and  O_25
REMARK   13  A    between atoms: O_25  and  C_26
REMARK   14  A    between atoms: C_28  and  C_29
REMARK   15  A    between atoms: C_31  and  N_32
REMARK   16  A    between atoms: N_32  and  C_33
REMARK   17  A    between atoms: N_32  and  C_34
REMARK   18  A    between atoms: C_35  and  O_36
REMARK   19  A    between atoms: C_37  and  C_38
REMARK   20  A    between atoms: C_37  and  O_39
REMARK   21  A    between atoms: C_41  and  C_42
REMARK   22  A    between atoms: C_45  and  C_46
REMARK   23  A    between atoms: C_47  and  O_48
REMARK   24  A    between atoms: C_49  and  C_50
REMARK   25  A    between atoms: C_49  and  O_51
REMARK                            x       y       z     vdW  Elec       q    Type
REMARK                         _______ _______ _______ _____ _____    ______ ____
ROOT
ATOM      3  C   UNL     1      46.974   5.473  12.411  0.00  0.00    +0.000 C 
ATOM      4  O   UNL     1      47.251   6.827  12.906  0.00  0.00    +0.000 OA
ATOM      5  C   UNL     1      47.880   7.743  12.108  0.00  0.00    +0.000 C 
ATOM      6  O   UNL     1      48.317   7.519  10.992  0.00  0.00    +0.000 OA
ATOM      7  C   UNL     1      48.005   9.071  12.854  0.00  0.00    +0.000 C 
ATOM      8  C   UNL     1      47.624  10.246  11.950  0.00  0.00    +0.000 C 
ATOM      9  C   UNL     1      49.432   9.110  13.513  0.00  0.00    +0.000 C 
ATOM     22  C   UNL     1      49.322   9.332  15.081  0.00  0.00    +0.000 C 
ATOM     23  C   UNL     1      48.923  10.746  15.558  0.00  0.00    +0.000 C 
ATOM     24  C   UNL     1      50.517   8.727  15.926  0.00  0.00    +0.000 C 
ATOM     37  C   UNL     1      50.015   7.799  17.166  0.00  0.00    +0.000 C 
ATOM     38  C   UNL     1      48.588   8.102  17.637  0.00  0.00    +0.000 C 
ATOM     40  C   UNL     1      50.218   6.321  16.754  0.00  0.00    +0.000 C 
ATOM     41  C   UNL     1      49.770   5.125  17.630  0.00  0.00    +0.000 C 
ATOM     42  C   UNL     1      49.000   5.341  18.928  0.00  0.00    +0.000 C 
ATOM     43  C   UNL     1      49.025   4.101  16.765  0.00  0.00    +0.000 C 
ATOM     44  O   UNL     1      49.454   2.949  16.681  0.00  0.00    +0.000 OA
ATOM     45  C   UNL     1      47.692   4.517  16.100  0.00  0.00    +0.000 C 
ATOM     46  C   UNL     1      46.576   3.889  16.932  0.00  0.00    +0.000 C 
ATOM     47  C   UNL     1      47.701   4.199  14.574  0.00  0.00    +0.000 C 
ATOM     49  C   UNL     1      46.476   4.638  13.666  0.00  0.00    +0.000 C 
ATOM     50  C   UNL     1      45.378   5.420  14.396  0.00  0.00    +0.000 C 
ENDROOT
BRANCH  49  51
ATOM     51  O   UNL     1      45.847   3.415  13.233  0.00  0.00    +0.000 OA
ATOM     56  H   UNL     1      44.954   3.427  13.626  0.00  0.00    +0.000 HD
ENDBRANCH  49  51
BRANCH  47  48
ATOM     48  O   UNL     1      47.882   2.784  14.346  0.00  0.00    +0.000 OA
ATOM     55  H   UNL     1      48.827   2.587  14.486  0.00  0.00    +0.000 HD
ENDBRANCH  47  48
BRANCH   3   2
ATOM      1  C   UNL     1      44.813   6.529  11.384  0.00  0.00    +0.000 C 
ATOM      2  C   UNL     1      45.957   5.534  11.235  0.00  0.00    +0.000 C 
ENDBRANCH   3   2
BRANCH  37  39
ATOM     39  O   UNL     1      50.864   8.005  18.306  0.00  0.00    +0.000 OA
ATOM     54  H   UNL     1      50.287   8.338  19.025  0.00  0.00    +0.000 HD
ENDBRANCH  37  39
BRANCH   9  10
ATOM     10  O   UNL     1      50.259  10.079  12.884  0.00  0.00    +0.000 OA
BRANCH  10  11
ATOM     11  C   UNL     1      51.445   9.709  12.156  0.00  0.00    +0.000 C 
ATOM     12  C   UNL     1      51.433   8.447  11.306  0.00  0.00    +0.000 C 
ATOM     13  C   UNL     1      52.865   8.053  10.881  0.00  0.00    +0.000 C 
ATOM     14  C   UNL     1      53.719   7.697  12.106  0.00  0.00    +0.000 C 
ATOM     17  C   UNL     1      53.508   9.239  10.118  0.00  0.00    +0.000 C 
ATOM     19  C   UNL     1      53.306  10.596  10.857  0.00  0.00    +0.000 C 
ATOM     20  C   UNL     1      54.345  10.871  11.959  0.00  0.00    +0.000 C 
ATOM     21  O   UNL     1      51.952  10.789  11.345  0.00  0.00    +0.000 OA
BRANCH  13  15
ATOM     15  O   UNL     1      52.677   6.865  10.070  0.00  0.00    +0.000 OA
ATOM     16  C   UNL     1      53.758   5.956   9.975  0.00  0.00    +0.000 C 
ENDBRANCH  13  15
BRANCH  17  18
ATOM     18  O   UNL     1      52.940   9.360   8.803  0.00  0.00    +0.000 OA
ATOM     52  H   UNL     1      52.664   8.470   8.519  0.00  0.00    +0.000 HD
ENDBRANCH  17  18
ENDBRANCH  10  11
ENDBRANCH   9  10
BRANCH  24  25
ATOM     25  O   UNL     1      51.417   9.694  16.500  0.00  0.00    +0.000 OA
BRANCH  25  26
ATOM     26  C   UNL     1      52.509  10.134  15.694  0.00  0.00    +0.000 C 
ATOM     27  O   UNL     1      53.246   9.081  15.094  0.00  0.00    +0.000 OA
ATOM     28  C   UNL     1      54.198   8.384  15.887  0.00  0.00    +0.000 C 
ATOM     29  C   UNL     1      53.713   6.960  16.153  0.00  0.00    +0.000 C 
ATOM     30  C   UNL     1      54.831   9.105  17.086  0.00  0.00    +0.000 C 
ATOM     31  C   UNL     1      54.117  10.351  17.665  0.00  0.00    +0.000 C 
ATOM     35  C   UNL     1      53.443  11.084  16.477  0.00  0.00    +0.000 C 
BRANCH  31  32
ATOM     32  N   UNL     1      53.151  10.153  18.776  0.00  0.00    +0.000 NA
ATOM     33  C   UNL     1      52.663  11.458  19.282  0.00  0.00    +0.000 C 
ATOM     34  C   UNL     1      53.639   9.385  19.922  0.00  0.00    +0.000 C 
ENDBRANCH  31  32
BRANCH  35  36
ATOM     36  O   UNL     1      54.453  11.652  15.619  0.00  0.00    +0.000 OA
ATOM     53  H   UNL     1      54.145  12.537  15.358  0.00  0.00    +0.000 HD
ENDBRANCH  35  36
ENDBRANCH  25  26
ENDBRANCH  24  25
TORSDOF 12
ENDMDL
MODEL 4
REMARK VINA RESULT:    -2.906      2.826      7.402
REMARK INTER + INTRA:          -6.942
REMARK INTER:                  -4.584
REMARK INTRA:                  -2.357
REMARK UNBOUND:                -2.421
REMARK  Name = 
REMARK  25 active torsions:
REMARK  status: ('A' for Active; 'I' for Inactive)
REMARK    1  A    between atoms: C_1  and  C_2
REMARK    2  A    between atoms: C_2  and  C_3
REMARK    3  A    between atoms: C_7  and  C_8
REMARK    4  A    between atoms: C_9  and  O_10
REMARK    5  A    between atoms: O_10  and  C_11
REMARK    6  A    between atoms: C_13  and  C_14
REMARK    7  A    between atoms: C_13  and  O_15
REMARK    8  A    between atoms: O_15  and  C_16
REMARK    9  A    between atoms: C_17  and  O_18
REMARK   10  A    between atoms: C_19  and  C_20
REMARK   11  A    between atoms: C_22  and  C_23
REMARK   12  A    between atoms: C_24  and  O_25
REMARK   13  A    between atoms: O_25  and  C_26
REMARK   14  A    between atoms: C_28  and  C_29
REMARK   15  A    between atoms: C_31  and  N_32
REMARK   16  A    between atoms: N_32  and  C_33
REMARK   17  A    between atoms: N_32  and  C_34
REMARK   18  A    between atoms: C_35  and  O_36
REMARK   19  A    between atoms: C_37  and  C_38
REMARK   20  A    between atoms: C_37  and  O_39
REMARK   21  A    between atoms: C_41  and  C_42
REMARK   22  A    between atoms: C_45  and  C_46
REMARK   23  A    between atoms: C_47  and  O_48
REMARK   24  A    between atoms: C_49  and  C_50
REMARK   25  A    between atoms: C_49  and  O_51
REMARK                            x       y       z     vdW  Elec       q    Type
REMARK                         _______ _______ _______ _____ _____    ______ ____
ROOT
ATOM      3  C   UNL     1      53.831   9.754  20.044  0.00  0.00    +0.000 C 
ATOM      4  O   UNL     1      53.277   8.725  19.156  0.00  0.00    +0.000 OA
ATOM      5  C   UNL     1      53.951   8.342  18.029  0.00  0.00    +0.000 C 
ATOM      6  O   UNL     1      54.989   8.842  17.629  0.00  0.00    +0.000 OA
ATOM      7  C   UNL     1      53.174   7.236  17.318  0.00  0.00    +0.000 C 
ATOM      8  C   UNL     1      54.106   6.105  16.877  0.00  0.00    +0.000 C 
ATOM      9  C   UNL     1      52.299   7.916  16.202  0.00  0.00    +0.000 C 
ATOM     22  C   UNL     1      50.764   7.560  16.395  0.00  0.00    +0.000 C 
ATOM     23  C   UNL     1      50.332   6.121  16.035  0.00  0.00    +0.000 C 
ATOM     24  C   UNL     1      49.753   8.647  15.843  0.00  0.00    +0.000 C 
ATOM     37  C   UNL     1      48.622   9.076  16.934  0.00  0.00    +0.000 C 
ATOM     38  C   UNL     1      48.375   8.028  18.025  0.00  0.00    +0.000 C 
ATOM     40  C   UNL     1      49.021  10.460  17.500  0.00  0.00    +0.000 C 
ATOM     41  C   UNL     1      48.246  11.169  18.637  0.00  0.00    +0.000 C 
ATOM     42  C   UNL     1      47.081  10.486  19.344  0.00  0.00    +0.000 C 
ATOM     43  C   UNL     1      49.233  11.697  19.685  0.00  0.00    +0.000 C 
ATOM     44  O   UNL     1      49.267  12.904  19.934  0.00  0.00    +0.000 OA
ATOM     45  C   UNL     1      50.091  10.684  20.478  0.00  0.00    +0.000 C 
ATOM     46  C   UNL     1      49.454  10.562  21.860  0.00  0.00    +0.000 C 
ATOM     47  C   UNL     1      51.602  11.065  20.426  0.00  0.00    +0.000 C 
ATOM     49  C   UNL     1      52.682  10.106  21.082  0.00  0.00    +0.000 C 
ATOM     50  C   UNL     1      52.121   8.811  21.679  0.00  0.00    +0.000 C 
ENDROOT
BRANCH  49  51
ATOM     51  O   UNL     1      53.228  10.833  22.201  0.00  0.00    +0.000 OA
ATOM     56  H   UNL     1      53.511  10.154  22.842  0.00  0.00    +0.000 HD
ENDBRANCH  49  51
BRANCH  47  48
ATOM     48  O   UNL     1      51.822  12.370  21.002  0.00  0.00    +0.000 OA
ATOM     55  H   UNL     1      52.547  12.283  21.649  0.00  0.00    +0.000 HD
ENDBRANCH  47  48
BRANCH   3   2
ATOM      1  C   UNL     1      55.153   7.795  21.164  0.00  0.00    +0.000 C 
ATOM      2  C   UNL     1      55.150   9.245  20.692  0.00  0.00    +0.000 C 
ENDBRANCH   3   2
BRANCH  37  39
ATOM     39  O   UNL     1      47.360   9.274  16.277  0.00  0.00    +0.000 OA
ATOM     54  H   UNL     1      46.973  10.090  16.660  0.00  0.00    +0.000 HD
ENDBRANCH  37  39
BRANCH   9  10
ATOM     10  O   UNL     1      52.775   7.583  14.906  0.00  0.00    +0.000 OA
BRANCH  10  11
ATOM     11  C   UNL     1      53.190   8.591  13.966  0.00  0.00    +0.000 C 
ATOM     12  C   UNL     1      52.913   8.385  12.483  0.00  0.00    +0.000 C 
ATOM     13  C   UNL     1      53.710   9.394  11.626  0.00  0.00    +0.000 C 
ATOM     14  C   UNL     1      55.221   9.166  11.781  0.00  0.00    +0.000 C 
ATOM     17  C   UNL     1      53.346  10.832  12.073  0.00  0.00    +0.000 C 
ATOM     19  C   UNL     1      53.378  10.996  13.623  0.00  0.00    +0.000 C 
ATOM     20  C   UNL     1      54.777  11.279  14.195  0.00  0.00    +0.000 C 
ATOM     21  O   UNL     1      52.726   9.907  14.329  0.00  0.00    +0.000 OA
BRANCH  13  15
ATOM     15  O   UNL     1      53.318   9.084  10.264  0.00  0.00    +0.000 OA
ATOM     16  C   UNL     1      52.843   7.778   9.998  0.00  0.00    +0.000 C 
ENDBRANCH  13  15
BRANCH  17  18
ATOM     18  O   UNL     1      52.029  11.184  11.614  0.00  0.00    +0.000 OA
ATOM     52  H   UNL     1      52.131  11.705  10.798  0.00  0.00    +0.000 HD
ENDBRANCH  17  18
ENDBRANCH  10  11
ENDBRANCH   9  10
BRANCH  24  25
ATOM     25  O   UNL     1      49.030   8.270  14.657  0.00  0.00    +0.000 OA
BRANCH  25  26
ATOM     26  C   UNL     1      49.719   8.359  13.411  0.00  0.00    +0.000 C 
ATOM     27  O   UNL     1      49.965   9.688  12.980  0.00  0.00    +0.000 OA
ATOM     28  C   UNL     1      48.903  10.409  12.368  0.00  0.00    +0.000 C 
ATOM     29  C   UNL     1      48.435  11.533  13.291  0.00  0.00    +0.000 C 
ATOM     30  C   UNL     1      47.788   9.623  11.661  0.00  0.00    +0.000 C 
ATOM     31  C   UNL     1      47.599   8.127  12.008  0.00  0.00    +0.000 C 
ATOM     35  C   UNL     1      49.004   7.546  12.309  0.00  0.00    +0.000 C 
BRANCH  31  32
ATOM     32  N   UNL     1      46.643   7.773  13.089  0.00  0.00    +0.000 NA
ATOM     33  C   UNL     1      46.203   6.364  12.956  0.00  0.00    +0.000 C 
ATOM     34  C   UNL     1      45.445   8.607  13.185  0.00  0.00    +0.000 C 
ENDBRANCH  31  32
BRANCH  35  36
ATOM     36  O   UNL     1      49.784   7.507  11.097  0.00  0.00    +0.000 OA
ATOM     53  H   UNL     1      49.203   7.172  10.391  0.00  0.00    +0.000 HD
ENDBRANCH  35  36
ENDBRANCH  25  26
ENDBRANCH  24  25
TORSDOF 12
ENDMDL
MODEL 5
REMARK VINA RESULT:    -2.657      3.437      8.912
REMARK INTER + INTRA:          -6.555
REMARK INTER:                  -6.215
REMARK INTRA:                  -0.340
REMARK UNBOUND:                -2.421
REMARK  Name = 
REMARK  25 active torsions:
REMARK  status: ('A' for Active; 'I' for Inactive)
REMARK    1  A    between atoms: C_1  and  C_2
REMARK    2  A    between atoms: C_2  and  C_3
REMARK    3  A    between atoms: C_7  and  C_8
REMARK    4  A    between atoms: C_9  and  O_10
REMARK    5  A    between atoms: O_10  and  C_11
REMARK    6  A    between atoms: C_13  and  C_14
REMARK    7  A    between atoms: C_13  and  O_15
REMARK    8  A    between atoms: O_15  and  C_16
REMARK    9  A    between atoms: C_17  and  O_18
REMARK   10  A    between atoms: C_19  and  C_20
REMARK   11  A    between atoms: C_22  and  C_23
REMARK   12  A    between atoms: C_24  and  O_25
REMARK   13  A    between atoms: O_25  and  C_26
REMARK   14  A    between atoms: C_28  and  C_29
REMARK   15  A    between atoms: C_31  and  N_32
REMARK   16  A    between atoms: N_32  and  C_33
REMARK   17  A    between atoms: N_32  and  C_34
REMARK   18  A    between atoms: C_35  and  O_36
REMARK   19  A    between atoms: C_37  and  C_38
REMARK   20  A    between atoms: C_37  and  O_39
REMARK   21  A    between atoms: C_41  and  C_42
REMARK   22  A    between atoms: C_45  and  C_46
REMARK   23  A    between atoms: C_47  and  O_48
REMARK   24  A    between atoms: C_49  and  C_50
REMARK   25  A    between atoms: C_49  and  O_51
REMARK                            x       y       z     vdW  Elec       q    Type
REMARK                         _______ _______ _______ _____ _____    ______ ____
ROOT
ATOM      3  C   UNL     1      49.704   8.378  17.515  0.00  0.00    +0.000 C 
ATOM      4  O   UNL     1      49.391   8.794  16.142  0.00  0.00    +0.000 OA
ATOM      5  C   UNL     1      48.559   8.040  15.361  0.00  0.00    +0.000 C 
ATOM      6  O   UNL     1      48.078   6.966  15.681  0.00  0.00    +0.000 OA
ATOM      7  C   UNL     1      48.374   8.720  14.005  0.00  0.00    +0.000 C 
ATOM      8  C   UNL     1      46.902   8.714  13.583  0.00  0.00    +0.000 C 
ATOM      9  C   UNL     1      49.405   8.075  13.009  0.00  0.00    +0.000 C 
ATOM     22  C   UNL     1      50.341   9.186  12.369  0.00  0.00    +0.000 C 
ATOM     23  C   UNL     1      49.701  10.109  11.309  0.00  0.00    +0.000 C 
ATOM     24  C   UNL     1      51.778   8.680  11.936  0.00  0.00    +0.000 C 
ATOM     37  C   UNL     1      52.982   9.612  12.514  0.00  0.00    +0.000 C 
ATOM     38  C   UNL     1      52.553  11.042  12.865  0.00  0.00    +0.000 C 
ATOM     40  C   UNL     1      53.624   8.860  13.705  0.00  0.00    +0.000 C 
ATOM     41  C   UNL     1      54.746   9.463  14.585  0.00  0.00    +0.000 C 
ATOM     42  C   UNL     1      55.223  10.897  14.385  0.00  0.00    +0.000 C 
ATOM     43  C   UNL     1      54.417   9.243  16.066  0.00  0.00    +0.000 C 
ATOM     44  O   UNL     1      55.196   8.603  16.774  0.00  0.00    +0.000 OA
ATOM     45  C   UNL     1      53.159   9.919  16.659  0.00  0.00    +0.000 C 
ATOM     46  C   UNL     1      53.648  11.126  17.457  0.00  0.00    +0.000 C 
ATOM     47  C   UNL     1      52.266   8.888  17.412  0.00  0.00    +0.000 C 
ATOM     49  C   UNL     1      50.868   9.339  18.010  0.00  0.00    +0.000 C 
ATOM     50  C   UNL     1      50.482  10.795  17.728  0.00  0.00    +0.000 C 
ENDROOT
BRANCH  49  51
ATOM     51  O   UNL     1      51.006   9.255  19.444  0.00  0.00    +0.000 OA
ATOM     56  H   UNL     1      51.687   9.911  19.679  0.00  0.00    +0.000 HD
ENDBRANCH  49  51
BRANCH  47  48
ATOM     48  O   UNL     1      52.992   8.282  18.504  0.00  0.00    +0.000 OA
ATOM     55  H   UNL     1      52.644   7.378  18.618  0.00  0.00    +0.000 HD
ENDBRANCH  47  48
BRANCH   3   2
ATOM      1  C   UNL     1      48.031   7.114  19.077  0.00  0.00    +0.000 C 
ATOM      2  C   UNL     1      48.419   8.418  18.391  0.00  0.00    +0.000 C 
ENDBRANCH   3   2
BRANCH  37  39
ATOM     39  O   UNL     1      54.019   9.736  11.528  0.00  0.00    +0.000 OA
ATOM     54  H   UNL     1      54.014  10.672  11.236  0.00  0.00    +0.000 HD
ENDBRANCH  37  39
BRANCH   9  10
ATOM     10  O   UNL     1      48.743   7.290  12.026  0.00  0.00    +0.000 OA
BRANCH  10  11
ATOM     11  C   UNL     1      47.620   6.452  12.353  0.00  0.00    +0.000 C 
ATOM     12  C   UNL     1      46.551   6.197  11.300  0.00  0.00    +0.000 C 
ATOM     13  C   UNL     1      45.292   5.561  11.932  0.00  0.00    +0.000 C 
ATOM     14  C   UNL     1      44.639   6.525  12.934  0.00  0.00    +0.000 C 
ATOM     17  C   UNL     1      45.698   4.250  12.652  0.00  0.00    +0.000 C 
ATOM     19  C   UNL     1      46.960   4.433  13.548  0.00  0.00    +0.000 C 
ATOM     20  C   UNL     1      46.658   4.991  14.949  0.00  0.00    +0.000 C 
ATOM     21  O   UNL     1      48.023   5.178  12.897  0.00  0.00    +0.000 OA
BRANCH  13  15
ATOM     15  O   UNL     1      44.396   5.363  10.808  0.00  0.00    +0.000 OA
ATOM     16  C   UNL     1      43.041   5.068  11.092  0.00  0.00    +0.000 C 
ENDBRANCH  13  15
BRANCH  17  18
ATOM     18  O   UNL     1      45.978   3.215  11.693  0.00  0.00    +0.000 OA
ATOM     52  H   UNL     1      46.078   2.380  12.182  0.00  0.00    +0.000 HD
ENDBRANCH  17  18
ENDBRANCH  10  11
ENDBRANCH   9  10
BRANCH  24  25
ATOM     25  O   UNL     1      51.998   8.590  10.516  0.00  0.00    +0.000 OA
BRANCH  25  26
ATOM     26  C   UNL     1      51.828   7.313   9.905  0.00  0.00    +0.000 C 
ATOM     27  O   UNL     1      52.598   6.280  10.497  0.00  0.00    +0.000 OA
ATOM     28  C   UNL     1      53.976   6.184  10.158  0.00  0.00    +0.000 C 
ATOM     29  C   UNL     1      54.837   6.566  11.360  0.00  0.00    +0.000 C 
ATOM     30  C   UNL     1      54.444   6.738   8.804  0.00  0.00    +0.000 C 
ATOM     31  C   UNL     1      53.543   7.757   8.067  0.00  0.00    +0.000 C 
ATOM     35  C   UNL     1      52.073   7.378   8.381  0.00  0.00    +0.000 C 
BRANCH  31  32
ATOM     32  N   UNL     1      53.774   9.204   8.310  0.00  0.00    +0.000 NA
ATOM     33  C   UNL     1      52.944  10.027   7.400  0.00  0.00    +0.000 C 
ATOM     34  C   UNL     1      55.159   9.662   8.186  0.00  0.00    +0.000 C 
ENDBRANCH  31  32
BRANCH  35  36
ATOM     36  O   UNL     1      51.746   6.128   7.742  0.00  0.00    +0.000 OA
ATOM     53  H   UNL     1      51.212   5.613   8.372  0.00  0.00    +0.000 HD
ENDBRANCH  35  36
ENDBRANCH  25  26
ENDBRANCH  24  25
TORSDOF 12
ENDMDL
MODEL 6
REMARK VINA RESULT:    -2.547      2.733      8.013
REMARK INTER + INTRA:          -6.382
REMARK INTER:                  -3.599
REMARK INTRA:                  -2.783
REMARK UNBOUND:                -2.421
REMARK  Name = 
REMARK  25 active torsions:
REMARK  status: ('A' for Active; 'I' for Inactive)
REMARK    1  A    between atoms: C_1  and  C_2
REMARK    2  A    between atoms: C_2  and  C_3
REMARK    3  A    between atoms: C_7  and  C_8
REMARK    4  A    between atoms: C_9  and  O_10
REMARK    5  A    between atoms: O_10  and  C_11
REMARK    6  A    between atoms: C_13  and  C_14
REMARK    7  A    between atoms: C_13  and  O_15
REMARK    8  A    between atoms: O_15  and  C_16
REMARK    9  A    between atoms: C_17  and  O_18
REMARK   10  A    between atoms: C_19  and  C_20
REMARK   11  A    between atoms: C_22  and  C_23
REMARK   12  A    between atoms: C_24  and  O_25
REMARK   13  A    between atoms: O_25  and  C_26
REMARK   14  A    between atoms: C_28  and  C_29
REMARK   15  A    between atoms: C_31  and  N_32
REMARK   16  A    between atoms: N_32  and  C_33
REMARK   17  A    between atoms: N_32  and  C_34
REMARK   18  A    between atoms: C_35  and  O_36
REMARK   19  A    between atoms: C_37  and  C_38
REMARK   20  A    between atoms: C_37  and  O_39
REMARK   21  A    between atoms: C_41  and  C_42
REMARK   22  A    between atoms: C_45  and  C_46
REMARK   23  A    between atoms: C_47  and  O_48
REMARK   24  A    between atoms: C_49  and  C_50
REMARK   25  A    between atoms: C_49  and  O_51
REMARK                            x       y       z     vdW  Elec       q    Type
REMARK                         _______ _______ _______ _____ _____    ______ ____
ROOT
ATOM      3  C   UNL     1      48.593   4.625  17.459  0.00  0.00    +0.000 C 
ATOM      4  O   UNL     1      49.647   5.320  16.710  0.00  0.00    +0.000 OA
ATOM      5  C   UNL     1      50.383   6.310  17.303  0.00  0.00    +0.000 C 
ATOM      6  O   UNL     1      50.199   6.743  18.428  0.00  0.00    +0.000 OA
ATOM      7  C   UNL     1      51.430   6.829  16.318  0.00  0.00    +0.000 C 
ATOM      8  C   UNL     1      52.794   6.984  16.996  0.00  0.00    +0.000 C 
ATOM      9  C   UNL     1      50.830   8.104  15.621  0.00  0.00    +0.000 C 
ATOM     22  C   UNL     1      50.818   7.930  14.043  0.00  0.00    +0.000 C 
ATOM     23  C   UNL     1      52.181   8.019  13.322  0.00  0.00    +0.000 C 
ATOM     24  C   UNL     1      49.685   8.741  13.290  0.00  0.00    +0.000 C 
ATOM     37  C   UNL     1      48.819   7.821  12.262  0.00  0.00    +0.000 C 
ATOM     38  C   UNL     1      49.548   6.559  11.786  0.00  0.00    +0.000 C 
ATOM     40  C   UNL     1      47.460   7.521  12.937  0.00  0.00    +0.000 C 
ATOM     41  C   UNL     1      46.388   6.592  12.315  0.00  0.00    +0.000 C 
ATOM     42  C   UNL     1      46.659   5.828  11.024  0.00  0.00    +0.000 C 
ATOM     43  C   UNL     1      45.869   5.616  13.378  0.00  0.00    +0.000 C 
ATOM     44  O   UNL     1      44.670   5.610  13.664  0.00  0.00    +0.000 OA
ATOM     45  C   UNL     1      46.850   4.592  13.994  0.00  0.00    +0.000 C 
ATOM     46  C   UNL     1      46.553   3.250  13.329  0.00  0.00    +0.000 C 
ATOM     47  C   UNL     1      46.805   4.635  15.551  0.00  0.00    +0.000 C 
ATOM     49  C   UNL     1      47.809   3.743  16.397  0.00  0.00    +0.000 C 
ATOM     50  C   UNL     1      48.810   2.932  15.568  0.00  0.00    +0.000 C 
ENDROOT
BRANCH  49  51
ATOM     51  O   UNL     1      46.993   2.762  17.070  0.00  0.00    +0.000 OA
ATOM     56  H   UNL     1      46.278   2.543  16.444  0.00  0.00    +0.000 HD
ENDBRANCH  49  51
BRANCH  47  48
ATOM     48  O   UNL     1      45.482   4.318  16.035  0.00  0.00    +0.000 OA
ATOM     55  H   UNL     1      45.504   3.398  16.358  0.00  0.00    +0.000 HD
ENDBRANCH  47  48
BRANCH   3   2
ATOM      1  C   UNL     1      48.767   4.210  20.035  0.00  0.00    +0.000 C 
ATOM      2  C   UNL     1      49.216   3.817  18.632  0.00  0.00    +0.000 C 
ENDBRANCH   3   2
BRANCH  37  39
ATOM     39  O   UNL     1      48.507   8.574  11.079  0.00  0.00    +0.000 OA
ATOM     54  H   UNL     1      48.674   7.977  10.319  0.00  0.00    +0.000 HD
ENDBRANCH  37  39
BRANCH   9  10
ATOM     10  O   UNL     1      51.513   9.280  16.031  0.00  0.00    +0.000 OA
BRANCH  10  11
ATOM     11  C   UNL     1      50.953  10.186  17.000  0.00  0.00    +0.000 C 
ATOM     12  C   UNL     1      49.440  10.305  17.119  0.00  0.00    +0.000 C 
ATOM     13  C   UNL     1      49.048  11.541  17.960  0.00  0.00    +0.000 C 
ATOM     14  C   UNL     1      49.494  12.836  17.267  0.00  0.00    +0.000 C 
ATOM     17  C   UNL     1      49.715  11.433  19.354  0.00  0.00    +0.000 C 
ATOM     19  C   UNL     1      51.224  11.056  19.260  0.00  0.00    +0.000 C 
ATOM     20  C   UNL     1      52.156  12.256  19.016  0.00  0.00    +0.000 C 
ATOM     21  O   UNL     1      51.490   9.979  18.322  0.00  0.00    +0.000 OA
BRANCH  13  15
ATOM     15  O   UNL     1      47.597  11.495  17.996  0.00  0.00    +0.000 OA
ATOM     16  C   UNL     1      46.921  12.586  18.591  0.00  0.00    +0.000 C 
ENDBRANCH  13  15
BRANCH  17  18
ATOM     18  O   UNL     1      49.055  10.435  20.153  0.00  0.00    +0.000 OA
ATOM     52  H   UNL     1      48.478   9.920  19.562  0.00  0.00    +0.000 HD
ENDBRANCH  17  18
ENDBRANCH  10  11
ENDBRANCH   9  10
BRANCH  24  25
ATOM     25  O   UNL     1      50.143   9.867  12.518  0.00  0.00    +0.000 OA
BRANCH  25  26
ATOM     26  C   UNL     1      50.187  11.135  13.170  0.00  0.00    +0.000 C 
ATOM     27  O   UNL     1      49.321  12.106  12.605  0.00  0.00    +0.000 OA
ATOM     28  C   UNL     1      49.735  12.775  11.420  0.00  0.00    +0.000 C 
ATOM     29  C   UNL     1      48.873  12.330  10.241  0.00  0.00    +0.000 C 
ATOM     30  C   UNL     1      51.238  12.904  11.132  0.00  0.00    +0.000 C 
ATOM     31  C   UNL     1      52.218  11.949  11.855  0.00  0.00    +0.000 C 
ATOM     35  C   UNL     1      51.632  11.674  13.263  0.00  0.00    +0.000 C 
BRANCH  31  32
ATOM     32  N   UNL     1      52.583  10.676  11.182  0.00  0.00    +0.000 NA
ATOM     33  C   UNL     1      54.048  10.460  11.232  0.00  0.00    +0.000 C 
ATOM     34  C   UNL     1      52.161  10.544   9.786  0.00  0.00    +0.000 C 
ENDBRANCH  31  32
BRANCH  35  36
ATOM     36  O   UNL     1      51.695  12.874  14.060  0.00  0.00    +0.000 OA
ATOM     53  H   UNL     1      51.823  13.620  13.448  0.00  0.00    +0.000 HD
ENDBRANCH  35  36
ENDBRANCH  25  26
ENDBRANCH  24  25
TORSDOF 12
ENDMDL
MODEL 7
REMARK VINA RESULT:    -2.407      2.820      7.060
REMARK INTER + INTRA:          -6.165
REMARK INTER:                  -3.583
REMARK INTRA:                  -2.582
REMARK UNBOUND:                -2.421
REMARK  Name = 
REMARK  25 active torsions:
REMARK  status: ('A' for Active; 'I' for Inactive)
REMARK    1  A    between atoms: C_1  and  C_2
REMARK    2  A    between atoms: C_2  and  C_3
REMARK    3  A    between atoms: C_7  and  C_8
REMARK    4  A    between atoms: C_9  and  O_10
REMARK    5  A    between atoms: O_10  and  C_11
REMARK    6  A    between atoms: C_13  and  C_14
REMARK    7  A    between atoms: C_13  and  O_15
REMARK    8  A    between atoms: O_15  and  C_16
REMARK    9  A    between atoms: C_17  and  O_18
REMARK   10  A    between atoms: C_19  and  C_20
REMARK   11  A    between atoms: C_22  and  C_23
REMARK   12  A    between atoms: C_24  and  O_25
REMARK   13  A    between atoms: O_25  and  C_26
REMARK   14  A    between atoms: C_28  and  C_29
REMARK   15  A    between atoms: C_31  and  N_32
REMARK   16  A    between atoms: N_32  and  C_33
REMARK   17  A    between atoms: N_32  and  C_34
REMARK   18  A    between atoms: C_35  and  O_36
REMARK   19  A    between atoms: C_37  and  C_38
REMARK   20  A    between atoms: C_37  and  O_39
REMARK   21  A    between atoms: C_41  and  C_42
REMARK   22  A    between atoms: C_45  and  C_46
REMARK   23  A    between atoms: C_47  and  O_48
REMARK   24  A    between atoms: C_49  and  C_50
REMARK   25  A    between atoms: C_49  and  O_51
REMARK                            x       y       z     vdW  Elec       q    Type
REMARK                         _______ _______ _______ _____ _____    ______ ____
ROOT
ATOM      3  C   UNL     1      45.991   9.994  10.931  0.00  0.00    +0.000 C 
ATOM      4  O   UNL     1      46.817  10.359  12.089  0.00  0.00    +0.000 OA
ATOM      5  C   UNL     1      47.902  11.177  11.938  0.00  0.00    +0.000 C 
ATOM      6  O   UNL     1      48.316  11.604  10.873  0.00  0.00    +0.000 OA
ATOM      7  C   UNL     1      48.551  11.424  13.299  0.00  0.00    +0.000 C 
ATOM      8  C   UNL     1      48.896  12.904  13.483  0.00  0.00    +0.000 C 
ATOM      9  C   UNL     1      49.726  10.391  13.456  0.00  0.00    +0.000 C 
ATOM     22  C   UNL     1      49.538   9.519  14.769  0.00  0.00    +0.000 C 
ATOM     23  C   UNL     1      49.807  10.223  16.117  0.00  0.00    +0.000 C 
ATOM     24  C   UNL     1      50.181   8.073  14.707  0.00  0.00    +0.000 C 
ATOM     37  C   UNL     1      49.143   6.896  15.143  0.00  0.00    +0.000 C 
ATOM     38  C   UNL     1      47.988   7.376  16.029  0.00  0.00    +0.000 C 
ATOM     40  C   UNL     1      48.666   6.193  13.849  0.00  0.00    +0.000 C 
ATOM     41  C   UNL     1      47.594   5.076  13.834  0.00  0.00    +0.000 C 
ATOM     42  C   UNL     1      46.863   4.665  15.108  0.00  0.00    +0.000 C 
ATOM     43  C   UNL     1      46.566   5.359  12.732  0.00  0.00    +0.000 C 
ATOM     44  O   UNL     1      46.399   4.536  11.830  0.00  0.00    +0.000 OA
ATOM     45  C   UNL     1      45.691   6.630  12.837  0.00  0.00    +0.000 C 
ATOM     46  C   UNL     1      44.315   6.172  13.317  0.00  0.00    +0.000 C 
ATOM     47  C   UNL     1      45.740   7.459  11.519  0.00  0.00    +0.000 C 
ATOM     49  C   UNL     1      45.001   8.860  11.437  0.00  0.00    +0.000 C 
ATOM     50  C   UNL     1      44.327   9.314  12.737  0.00  0.00    +0.000 C 
ENDROOT
BRANCH  49  51
ATOM     51  O   UNL     1      43.923   8.684  10.494  0.00  0.00    +0.000 OA
ATOM     56  H   UNL     1      44.106   9.309   9.768  0.00  0.00    +0.000 HD
ENDBRANCH  49  51
BRANCH  47  48
ATOM     48  O   UNL     1      45.250   6.681  10.405  0.00  0.00    +0.000 OA
ATOM     55  H   UNL     1      44.701   5.963  10.772  0.00  0.00    +0.000 HD
ENDBRANCH  47  48
BRANCH   3   2
ATOM      1  C   UNL     1      44.802  12.279  11.384  0.00  0.00    +0.000 C 
ATOM      2  C   UNL     1      45.285  11.257  10.361  0.00  0.00    +0.000 C 
ENDBRANCH   3   2
BRANCH  37  39
ATOM     39  O   UNL     1      49.836   5.889  15.898  0.00  0.00    +0.000 OA
ATOM     54  H   UNL     1      50.456   5.453  15.276  0.00  0.00    +0.000 HD
ENDBRANCH  37  39
BRANCH   9  10
ATOM     10  O   UNL     1      50.988  11.043  13.413  0.00  0.00    +0.000 OA
BRANCH  10  11
ATOM     11  C   UNL     1      51.918  10.829  12.336  0.00  0.00    +0.000 C 
ATOM     12  C   UNL     1      51.695   9.666  11.379  0.00  0.00    +0.000 C 
ATOM     13  C   UNL     1      52.950   9.411  10.515  0.00  0.00    +0.000 C 
ATOM     14  C   UNL     1      54.136   8.981  11.391  0.00  0.00    +0.000 C 
ATOM     17  C   UNL     1      53.306  10.710   9.749  0.00  0.00    +0.000 C 
ATOM     19  C   UNL     1      53.290  11.965  10.673  0.00  0.00    +0.000 C 
ATOM     20  C   UNL     1      54.598  12.185  11.453  0.00  0.00    +0.000 C 
ATOM     21  O   UNL     1      52.134  12.019  11.550  0.00  0.00    +0.000 OA
BRANCH  13  15
ATOM     15  O   UNL     1      52.566   8.307   9.655  0.00  0.00    +0.000 OA
ATOM     16  C   UNL     1      53.377   7.147   9.675  0.00  0.00    +0.000 C 
ENDBRANCH  13  15
BRANCH  17  18
ATOM     18  O   UNL     1      52.373  10.934   8.677  0.00  0.00    +0.000 OA
ATOM     52  H   UNL     1      51.482  10.973   9.066  0.00  0.00    +0.000 HD
ENDBRANCH  17  18
ENDBRANCH  10  11
ENDBRANCH   9  10
BRANCH  24  25
ATOM     25  O   UNL     1      51.353   7.884  15.523  0.00  0.00    +0.000 OA
BRANCH  25  26
ATOM     26  C   UNL     1      52.621   8.109  14.912  0.00  0.00    +0.000 C 
ATOM     27  O   UNL     1      53.478   6.978  14.924  0.00  0.00    +0.000 OA
ATOM     28  C   UNL     1      54.183   6.676  16.122  0.00  0.00    +0.000 C 
ATOM     29  C   UNL     1      53.629   5.396  16.745  0.00  0.00    +0.000 C 
ATOM     30  C   UNL     1      54.488   7.814  17.107  0.00  0.00    +0.000 C 
ATOM     31  C   UNL     1      53.663   9.120  17.012  0.00  0.00    +0.000 C 
ATOM     35  C   UNL     1      53.330   9.342  15.514  0.00  0.00    +0.000 C 
BRANCH  31  32
ATOM     32  N   UNL     1      52.438   9.238  17.844  0.00  0.00    +0.000 NA
ATOM     33  C   UNL     1      52.392  10.553  18.524  0.00  0.00    +0.000 C 
ATOM     34  C   UNL     1      52.252   8.203  18.863  0.00  0.00    +0.000 C 
ENDBRANCH  31  32
BRANCH  35  36
ATOM     36  O   UNL     1      54.534   9.662  14.790  0.00  0.00    +0.000 OA
ATOM     53  H   UNL     1      54.694  10.616  14.902  0.00  0.00    +0.000 HD
ENDBRANCH  35  36
ENDBRANCH  25  26
ENDBRANCH  24  25
TORSDOF 12
ENDMDL
MODEL 8
REMARK VINA RESULT:    -2.339      2.699      5.174
REMARK INTER + INTRA:          -6.059
REMARK INTER:                  -5.479
REMARK INTRA:                  -0.580
REMARK UNBOUND:                -2.421
REMARK  Name = 
REMARK  25 active torsions:
REMARK  status: ('A' for Active; 'I' for Inactive)
REMARK    1  A    between atoms: C_1  and  C_2
REMARK    2  A    between atoms: C_2  and  C_3
REMARK    3  A    between atoms: C_7  and  C_8
REMARK    4  A    between atoms: C_9  and  O_10
REMARK    5  A    between atoms: O_10  and  C_11
REMARK    6  A    between atoms: C_13  and  C_14
REMARK    7  A    between atoms: C_13  and  O_15
REMARK    8  A    between atoms: O_15  and  C_16
REMARK    9  A    between atoms: C_17  and  O_18
REMARK   10  A    between atoms: C_19  and  C_20
REMARK   11  A    between atoms: C_22  and  C_23
REMARK   12  A    between atoms: C_24  and  O_25
REMARK   13  A    between atoms: O_25  and  C_26
REMARK   14  A    between atoms: C_28  and  C_29
REMARK   15  A    between atoms: C_31  and  N_32
REMARK   16  A    between atoms: N_32  and  C_33
REMARK   17  A    between atoms: N_32  and  C_34
REMARK   18  A    between atoms: C_35  and  O_36
REMARK   19  A    between atoms: C_37  and  C_38
REMARK   20  A    between atoms: C_37  and  O_39
REMARK   21  A    between atoms: C_41  and  C_42
REMARK   22  A    between atoms: C_45  and  C_46
REMARK   23  A    between atoms: C_47  and  O_48
REMARK   24  A    between atoms: C_49  and  C_50
REMARK   25  A    between atoms: C_49  and  O_51
REMARK                            x       y       z     vdW  Elec       q    Type
REMARK                         _______ _______ _______ _____ _____    ______ ____
ROOT
ATOM      3  C   UNL     1      53.144   9.728  16.160  0.00  0.00    +0.000 C 
ATOM      4  O   UNL     1      51.692   9.674  15.951  0.00  0.00    +0.000 OA
ATOM      5  C   UNL     1      50.888   8.999  16.829  0.00  0.00    +0.000 C 
ATOM      6  O   UNL     1      51.282   8.347  17.782  0.00  0.00    +0.000 OA
ATOM      7  C   UNL     1      49.429   9.138  16.398  0.00  0.00    +0.000 C 
ATOM      8  C   UNL     1      48.530   9.457  17.595  0.00  0.00    +0.000 C 
ATOM      9  C   UNL     1      49.064   7.865  15.550  0.00  0.00    +0.000 C 
ATOM     22  C   UNL     1      48.535   8.279  14.112  0.00  0.00    +0.000 C 
ATOM     23  C   UNL     1      47.118   8.890  14.040  0.00  0.00    +0.000 C 
ATOM     24  C   UNL     1      48.786   7.206  12.974  0.00  0.00    +0.000 C 
ATOM     37  C   UNL     1      49.492   7.836  11.649  0.00  0.00    +0.000 C 
ATOM     38  C   UNL     1      49.288   9.347  11.489  0.00  0.00    +0.000 C 
ATOM     40  C   UNL     1      50.983   7.423  11.674  0.00  0.00    +0.000 C 
ATOM     41  C   UNL     1      52.018   7.908  10.629  0.00  0.00    +0.000 C 
ATOM     42  C   UNL     1      51.638   8.919   9.552  0.00  0.00    +0.000 C 
ATOM     43  C   UNL     1      53.290   8.384  11.341  0.00  0.00    +0.000 C 
ATOM     44  O   UNL     1      54.366   7.840  11.091  0.00  0.00    +0.000 OA
ATOM     45  C   UNL     1      53.203   9.606  12.285  0.00  0.00    +0.000 C 
ATOM     46  C   UNL     1      53.784  10.791  11.516  0.00  0.00    +0.000 C 
ATOM     47  C   UNL     1      53.829   9.289  13.676  0.00  0.00    +0.000 C 
ATOM     49  C   UNL     1      53.755  10.364  14.840  0.00  0.00    +0.000 C 
ATOM     50  C   UNL     1      52.991  11.646  14.491  0.00  0.00    +0.000 C 
ENDROOT
BRANCH  49  51
ATOM     51  O   UNL     1      55.115  10.787  15.075  0.00  0.00    +0.000 OA
ATOM     56  H   UNL     1      55.608  10.537  14.271  0.00  0.00    +0.000 HD
ENDBRANCH  49  51
BRANCH  47  48
ATOM     48  O   UNL     1      55.223   8.938  13.543  0.00  0.00    +0.000 OA
ATOM     55  H   UNL     1      55.678   9.244  14.349  0.00  0.00    +0.000 HD
ENDBRANCH  47  48
BRANCH   3   2
ATOM      1  C   UNL     1      54.434   9.846  18.432  0.00  0.00    +0.000 C 
ATOM      2  C   UNL     1      53.466  10.514  17.463  0.00  0.00    +0.000 C 
ENDBRANCH   3   2
BRANCH  37  39
ATOM     39  O   UNL     1      48.942   7.232  10.467  0.00  0.00    +0.000 OA
ATOM     54  H   UNL     1      49.626   7.311   9.770  0.00  0.00    +0.000 HD
ENDBRANCH  37  39
BRANCH   9  10
ATOM     10  O   UNL     1      48.148   7.033  16.246  0.00  0.00    +0.000 OA
BRANCH  10  11
ATOM     11  C   UNL     1      48.586   6.075  17.228  0.00  0.00    +0.000 C 
ATOM     12  C   UNL     1      47.812   5.939  18.532  0.00  0.00    +0.000 C 
ATOM     13  C   UNL     1      48.612   5.118  19.567  0.00  0.00    +0.000 C 
ATOM     14  C   UNL     1      49.911   5.842  19.952  0.00  0.00    +0.000 C 
ATOM     17  C   UNL     1      48.943   3.730  18.962  0.00  0.00    +0.000 C 
ATOM     19  C   UNL     1      49.505   3.836  17.512  0.00  0.00    +0.000 C 
ATOM     20  C   UNL     1      51.017   4.115  17.445  0.00  0.00    +0.000 C 
ATOM     21  O   UNL     1      48.759   4.756  16.672  0.00  0.00    +0.000 OA
BRANCH  13  15
ATOM     15  O   UNL     1      47.737   5.062  20.724  0.00  0.00    +0.000 OA
ATOM     16  C   UNL     1      48.331   5.182  22.003  0.00  0.00    +0.000 C 
ENDBRANCH  13  15
BRANCH  17  18
ATOM     18  O   UNL     1      47.767   2.903  18.924  0.00  0.00    +0.000 OA
ATOM     52  H   UNL     1      47.273   3.056  19.749  0.00  0.00    +0.000 HD
ENDBRANCH  17  18
ENDBRANCH  10  11
ENDBRANCH   9  10
BRANCH  24  25
ATOM     25  O   UNL     1      47.610   6.521  12.503  0.00  0.00    +0.000 OA
BRANCH  25  26
ATOM     26  C   UNL     1      46.482   6.478  13.375  0.00  0.00    +0.000 C 
ATOM     27  O   UNL     1      46.518   5.417  14.316  0.00  0.00    +0.000 OA
ATOM     28  C   UNL     1      46.148   4.115  13.882  0.00  0.00    +0.000 C 
ATOM     29  C   UNL     1      47.375   3.206  13.853  0.00  0.00    +0.000 C 
ATOM     30  C   UNL     1      45.193   3.978  12.687  0.00  0.00    +0.000 C 
ATOM     31  C   UNL     1      45.024   5.182  11.729  0.00  0.00    +0.000 C 
ATOM     35  C   UNL     1      45.155   6.468  12.584  0.00  0.00    +0.000 C 
BRANCH  31  32
ATOM     32  N   UNL     1      45.903   5.255  10.533  0.00  0.00    +0.000 NA
ATOM     33  C   UNL     1      45.830   6.599   9.913  0.00  0.00    +0.000 C 
ATOM     34  C   UNL     1      45.644   4.266   9.485  0.00  0.00    +0.000 C 
ENDBRANCH  31  32
BRANCH  35  36
ATOM     36  O   UNL     1      44.018   6.586  13.463  0.00  0.00    +0.000 OA
ATOM     53  H   UNL     1      43.623   7.461  13.307  0.00  0.00    +0.000 HD
ENDBRANCH  35  36
ENDBRANCH  25  26
ENDBRANCH  24  25
TORSDOF 12
ENDMDL
MODEL 9
REMARK VINA RESULT:    -2.251      2.228      5.320
REMARK INTER + INTRA:          -5.923
REMARK INTER:                  -2.962
REMARK INTRA:                  -2.961
REMARK UNBOUND:                -2.421
REMARK  Name = 
REMARK  25 active torsions:
REMARK  status: ('A' for Active; 'I' for Inactive)
REMARK    1  A    between atoms: C_1  and  C_2
REMARK    2  A    between atoms: C_2  and  C_3
REMARK    3  A    between atoms: C_7  and  C_8
REMARK    4  A    between atoms: C_9  and  O_10
REMARK    5  A    between atoms: O_10  and  C_11
REMARK    6  A    between atoms: C_13  and  C_14
REMARK    7  A    between atoms: C_13  and  O_15
REMARK    8  A    between atoms: O_15  and  C_16
REMARK    9  A    between atoms: C_17  and  O_18
REMARK   10  A    between atoms: C_19  and  C_20
REMARK   11  A    between atoms: C_22  and  C_23
REMARK   12  A    between atoms: C_24  and  O_25
REMARK   13  A    between atoms: O_25  and  C_26
REMARK   14  A    between atoms: C_28  and  C_29
REMARK   15  A    between atoms: C_31  and  N_32
REMARK   16  A    between atoms: N_32  and  C_33
REMARK   17  A    between atoms: N_32  and  C_34
REMARK   18  A    between atoms: C_35  and  O_36
REMARK   19  A    between atoms: C_37  and  C_38
REMARK   20  A    between atoms: C_37  and  O_39
REMARK   21  A    between atoms: C_41  and  C_42
REMARK   22  A    between atoms: C_45  and  C_46
REMARK   23  A    between atoms: C_47  and  O_48
REMARK   24  A    between atoms: C_49  and  C_50
REMARK   25  A    between atoms: C_49  and  O_51
REMARK                            x       y       z     vdW  Elec       q    Type
REMARK                         _______ _______ _______ _____ _____    ______ ____
ROOT
ATOM      3  C   UNL     1      47.713   8.857  12.232  0.00  0.00    +0.000 C 
ATOM      4  O   UNL     1      47.985   9.354  13.586  0.00  0.00    +0.000 OA
ATOM      5  C   UNL     1      49.034  10.200  13.819  0.00  0.00    +0.000 C 
ATOM      6  O   UNL     1      49.851  10.551  12.984  0.00  0.00    +0.000 OA
ATOM      7  C   UNL     1      49.061  10.589  15.296  0.00  0.00    +0.000 C 
ATOM      8  C   UNL     1      49.296  12.093  15.465  0.00  0.00    +0.000 C 
ATOM      9  C   UNL     1      50.068   9.623  16.021  0.00  0.00    +0.000 C 
ATOM     22  C   UNL     1      49.354   8.860  17.216  0.00  0.00    +0.000 C 
ATOM     23  C   UNL     1      49.039   9.688  18.482  0.00  0.00    +0.000 C 
ATOM     24  C   UNL     1      49.968   7.442  17.563  0.00  0.00    +0.000 C 
ATOM     37  C   UNL     1      48.845   6.265  17.642  0.00  0.00    +0.000 C 
ATOM     38  C   UNL     1      47.426   6.771  17.923  0.00  0.00    +0.000 C 
ATOM     40  C   UNL     1      48.947   5.435  16.339  0.00  0.00    +0.000 C 
ATOM     41  C   UNL     1      47.980   4.277  15.991  0.00  0.00    +0.000 C 
ATOM     42  C   UNL     1      46.788   3.948  16.883  0.00  0.00    +0.000 C 
ATOM     43  C   UNL     1      47.500   4.422  14.541  0.00  0.00    +0.000 C 
ATOM     44  O   UNL     1      47.723   3.519  13.734  0.00  0.00    +0.000 OA
ATOM     45  C   UNL     1      46.657   5.660  14.155  0.00  0.00    +0.000 C 
ATOM     46  C   UNL     1      45.207   5.189  14.067  0.00  0.00    +0.000 C 
ATOM     47  C   UNL     1      47.247   6.374  12.902  0.00  0.00    +0.000 C 
ATOM     49  C   UNL     1      46.605   7.732  12.390  0.00  0.00    +0.000 C 
ATOM     50  C   UNL     1      45.452   8.267  13.247  0.00  0.00    +0.000 C 
ENDROOT
BRANCH  49  51
ATOM     51  O   UNL     1      46.015   7.431  11.108  0.00  0.00    +0.000 OA
ATOM     56  H   UNL     1      46.105   8.246  10.581  0.00  0.00    +0.000 HD
ENDBRANCH  49  51
BRANCH  47  48
ATOM     48  O   UNL     1      47.263   5.484  11.765  0.00  0.00    +0.000 OA
ATOM     55  H   UNL     1      46.386   5.539  11.342  0.00  0.00    +0.000 HD
ENDBRANCH  47  48
BRANCH   3   2
ATOM      1  C   UNL     1      46.279  11.014  11.867  0.00  0.00    +0.000 C 
ATOM      2  C   UNL     1      47.305  10.037  11.304  0.00  0.00    +0.000 C 
ENDBRANCH   3   2
BRANCH  37  39
ATOM     39  O   UNL     1      49.164   5.355  18.707  0.00  0.00    +0.000 OA
ATOM     54  H   UNL     1      48.369   4.797  18.843  0.00  0.00    +0.000 HD
ENDBRANCH  37  39
BRANCH   9  10
ATOM     10  O   UNL     1      51.232  10.320  16.440  0.00  0.00    +0.000 OA
BRANCH  10  11
ATOM     11  C   UNL     1      52.494  10.168  15.764  0.00  0.00    +0.000 C 
ATOM     12  C   UNL     1      52.844   8.827  15.134  0.00  0.00    +0.000 C 
ATOM     13  C   UNL     1      54.340   8.767  14.756  0.00  0.00    +0.000 C 
ATOM     14  C   UNL     1      55.223   8.857  16.010  0.00  0.00    +0.000 C 
ATOM     17  C   UNL     1      54.666   9.941  13.798  0.00  0.00    +0.000 C 
ATOM     19  C   UNL     1      54.089  11.297  14.307  0.00  0.00    +0.000 C 
ATOM     20  C   UNL     1      54.984  12.014  15.331  0.00  0.00    +0.000 C 
ATOM     21  O   UNL     1      52.719  11.197  14.778  0.00  0.00    +0.000 OA
BRANCH  13  15
ATOM     15  O   UNL     1      54.499   7.456  14.155  0.00  0.00    +0.000 OA
ATOM     16  C   UNL     1      54.795   6.371  15.014  0.00  0.00    +0.000 C 
ENDBRANCH  13  15
BRANCH  17  18
ATOM     18  O   UNL     1      54.124   9.689  12.490  0.00  0.00    +0.000 OA
ATOM     52  H   UNL     1      54.759  10.034  11.837  0.00  0.00    +0.000 HD
ENDBRANCH  17  18
ENDBRANCH  10  11
ENDBRANCH   9  10
BRANCH  24  25
ATOM     25  O   UNL     1      50.696   7.372  18.803  0.00  0.00    +0.000 OA
BRANCH  25  26
ATOM     26  C   UNL     1      52.101   7.613  18.753  0.00  0.00    +0.000 C 
ATOM     27  O   UNL     1      52.814   6.710  17.923  0.00  0.00    +0.000 OA
ATOM     28  C   UNL     1      53.121   5.419  18.434  0.00  0.00    +0.000 C 
ATOM     29  C   UNL     1      52.302   4.359  17.701  0.00  0.00    +0.000 C 
ATOM     30  C   UNL     1      53.236   5.234  19.955  0.00  0.00    +0.000 C 
ATOM     31  C   UNL     1      52.591   6.292  20.882  0.00  0.00    +0.000 C 
ATOM     35  C   UNL     1      52.717   7.663  20.169  0.00  0.00    +0.000 C 
BRANCH  31  32
ATOM     32  N   UNL     1      51.197   6.067  21.341  0.00  0.00    +0.000 NA
ATOM     33  C   UNL     1      50.778   7.130  22.285  0.00  0.00    +0.000 C 
ATOM     34  C   UNL     1      50.932   4.776  21.979  0.00  0.00    +0.000 C 
ENDBRANCH  31  32
BRANCH  35  36
ATOM     36  O   UNL     1      54.102   8.063  20.125  0.00  0.00    +0.000 OA
ATOM     53  H   UNL     1      54.320   8.247  19.195  0.00  0.00    +0.000 HD
ENDBRANCH  35  36
ENDBRANCH  25  26
ENDBRANCH  24  25
TORSDOF 12
ENDMDL
