MODEL 1
REMARK VINA RESULT:    -8.040      0.000      0.000
REMARK INTER + INTRA:         -13.416
REMARK INTER:                 -11.800
REMARK INTRA:                  -1.616
REMARK UNBOUND:                -1.616
REMARK  Name = 
REMARK  9 active torsions:
REMARK  status: ('A' for Active; 'I' for Inactive)
REMARK    1  A    between atoms: C_1  and  C_2
REMARK    2  A    between atoms: C_2  and  N_3
REMARK    3  A    between atoms: N_3  and  C_4
REMARK    4  A    between atoms: N_3  and  C_11
REMARK    5  A    between atoms: C_4  and  C_5
REMARK    6  A    between atoms: C_11  and  C_12
REMARK    7  A    between atoms: C_15  and  C_16
REMARK    8  A    between atoms: C_16  and  N_17
REMARK    9  A    between atoms: C_18  and  C_20
REMARK                            x       y       z     vdW  Elec       q    Type
REMARK                         _______ _______ _______ _____ _____    ______ ____
ROOT
ATOM     12  C   UNL     1      44.778   5.906  10.947  0.00  0.00    +0.000 A 
ATOM     13  C   UNL     1      46.172   5.770  10.889  0.00  0.00    +0.000 A 
ATOM     14  C   UNL     1      46.998   6.585  11.666  0.00  0.00    +0.000 A 
ATOM     15  C   UNL     1      46.443   7.546  12.520  0.00  0.00    +0.000 A 
ATOM     30  C   UNL     1      45.056   7.736  12.518  0.00  0.00    +0.000 A 
ATOM     31  C   UNL     1      44.229   6.922  11.742  0.00  0.00    +0.000 A 
ENDROOT
BRANCH  15  16
ATOM     16  C   UNL     1      47.321   8.391  13.407  0.00  0.00    +0.000 C 
BRANCH  16  17
ATOM     17  N   UNL     1      47.661   7.673  14.604  0.00  0.00    +0.000 N 
ATOM     18  C   UNL     1      48.917   7.161  14.810  0.00  0.00    +0.000 C 
ATOM     19  O   UNL     1      49.836   7.336  14.018  0.00  0.00    +0.000 OA
ATOM     32  H   UNL     1      46.884   7.319  15.148  0.00  0.00    +0.000 HD
BRANCH  18  20
ATOM     20  C   UNL     1      49.112   6.451  16.080  0.00  0.00    +0.000 A 
ATOM     21  C   UNL     1      49.973   6.969  17.037  0.00  0.00    +0.000 A 
ATOM     22  S   UNL     1      49.997   6.072  18.489  0.00  0.00    +0.000 S 
ATOM     23  C   UNL     1      48.903   4.927  17.864  0.00  0.00    +0.000 A 
ATOM     24  N   UNL     1      48.491   3.868  18.614  0.00  0.00    +0.000 NA
ATOM     25  C   UNL     1      47.682   3.066  18.005  0.00  0.00    +0.000 A 
ATOM     26  N   UNL     1      47.252   3.222  16.712  0.00  0.00    +0.000 N 
ATOM     27  C   UNL     1      47.632   4.280  15.922  0.00  0.00    +0.000 A 
ATOM     28  O   UNL     1      47.217   4.394  14.774  0.00  0.00    +0.000 OA
ATOM     29  C   UNL     1      48.527   5.222  16.567  0.00  0.00    +0.000 A 
ATOM     33  H   UNL     1      46.622   2.556  16.291  0.00  0.00    +0.000 HD
ENDBRANCH  18  20
ENDBRANCH  16  17
ENDBRANCH  15  16
BRANCH  12  11
ATOM     11  C   UNL     1      43.880   4.916  10.231  0.00  0.00    +0.000 C 
BRANCH  11   3
ATOM      3  N   UNL     1      44.359   3.514  10.345  0.00  0.00    +0.000 NA
BRANCH   3   2
ATOM      1  C   UNL     1      43.716   3.370  12.801  0.00  0.00    +0.000 C 
ATOM      2  C   UNL     1      43.584   2.803  11.391  0.00  0.00    +0.000 C 
ENDBRANCH   3   2
BRANCH   3   4
ATOM      4  C   UNL     1      44.247   2.826   9.045  0.00  0.00    +0.000 C 
BRANCH   4   5
ATOM      5  C   UNL     1      45.554   2.618   8.302  0.00  0.00    +0.000 A 
ATOM      6  C   UNL     1      46.123   1.341   8.183  0.00  0.00    +0.000 A 
ATOM      7  C   UNL     1      47.265   1.142   7.403  0.00  0.00    +0.000 A 
ATOM      8  C   UNL     1      47.851   2.215   6.733  0.00  0.00    +0.000 A 
ATOM      9  C   UNL     1      47.308   3.492   6.860  0.00  0.00    +0.000 A 
ATOM     10  C   UNL     1      46.168   3.694   7.641  0.00  0.00    +0.000 A 
ENDBRANCH   4   5
ENDBRANCH   3   4
ENDBRANCH  11   3
ENDBRANCH  12  11
TORSDOF 8
ENDMDL
MODEL 2
REMARK VINA RESULT:    -7.426      2.228      2.867
REMARK INTER + INTRA:         -12.514
REMARK INTER:                 -11.149
REMARK INTRA:                  -1.365
REMARK UNBOUND:                -1.616
REMARK  Name = 
REMARK  9 active torsions:
REMARK  status: ('A' for Active; 'I' for Inactive)
REMARK    1  A    between atoms: C_1  and  C_2
REMARK    2  A    between atoms: C_2  and  N_3
REMARK    3  A    between atoms: N_3  and  C_4
REMARK    4  A    between atoms: N_3  and  C_11
REMARK    5  A    between atoms: C_4  and  C_5
REMARK    6  A    between atoms: C_11  and  C_12
REMARK    7  A    between atoms: C_15  and  C_16
REMARK    8  A    between atoms: C_16  and  N_17
REMARK    9  A    between atoms: C_18  and  C_20
REMARK                            x       y       z     vdW  Elec       q    Type
REMARK                         _______ _______ _______ _____ _____    ______ ____
ROOT
ATOM     12  C   UNL     1      45.907   5.921  11.869  0.00  0.00    +0.000 A 
ATOM     13  C   UNL     1      46.056   5.246  13.088  0.00  0.00    +0.000 A 
ATOM     14  C   UNL     1      47.114   5.554  13.946  0.00  0.00    +0.000 A 
ATOM     15  C   UNL     1      48.037   6.549  13.602  0.00  0.00    +0.000 A 
ATOM     30  C   UNL     1      47.935   7.167  12.350  0.00  0.00    +0.000 A 
ATOM     31  C   UNL     1      46.878   6.861  11.491  0.00  0.00    +0.000 A 
ENDROOT
BRANCH  15  16
ATOM     16  C   UNL     1      49.148   6.931  14.546  0.00  0.00    +0.000 C 
BRANCH  16  17
ATOM     17  N   UNL     1      48.764   6.666  15.905  0.00  0.00    +0.000 N 
ATOM     18  C   UNL     1      49.607   6.040  16.787  0.00  0.00    +0.000 C 
ATOM     19  O   UNL     1      50.755   5.726  16.490  0.00  0.00    +0.000 OA
ATOM     32  H   UNL     1      47.772   6.697  16.102  0.00  0.00    +0.000 HD
BRANCH  18  20
ATOM     20  C   UNL     1      49.074   5.838  18.140  0.00  0.00    +0.000 A 
ATOM     21  C   UNL     1      49.161   4.590  18.739  0.00  0.00    +0.000 A 
ATOM     22  S   UNL     1      48.587   4.565  20.346  0.00  0.00    +0.000 S 
ATOM     23  C   UNL     1      48.146   6.207  20.273  0.00  0.00    +0.000 A 
ATOM     24  N   UNL     1      47.583   6.831  21.344  0.00  0.00    +0.000 NA
ATOM     25  C   UNL     1      47.274   8.068  21.139  0.00  0.00    +0.000 A 
ATOM     26  N   UNL     1      47.471   8.738  19.959  0.00  0.00    +0.000 N 
ATOM     27  C   UNL     1      48.046   8.154  18.856  0.00  0.00    +0.000 A 
ATOM     28  O   UNL     1      48.218   8.787  17.821  0.00  0.00    +0.000 OA
ATOM     29  C   UNL     1      48.429   6.767  19.041  0.00  0.00    +0.000 A 
ATOM     33  H   UNL     1      47.204   9.706  19.860  0.00  0.00    +0.000 HD
ENDBRANCH  18  20
ENDBRANCH  16  17
ENDBRANCH  15  16
BRANCH  12  11
ATOM     11  C   UNL     1      44.671   5.704  11.016  0.00  0.00    +0.000 C 
BRANCH  11   3
ATOM      3  N   UNL     1      44.483   4.284  10.623  0.00  0.00    +0.000 NA
BRANCH   3   2
ATOM      1  C   UNL     1      43.507   2.498  12.146  0.00  0.00    +0.000 C 
ATOM      2  C   UNL     1      43.275   3.736  11.286  0.00  0.00    +0.000 C 
ENDBRANCH   3   2
BRANCH   3   4
ATOM      4  C   UNL     1      44.380   4.167   9.156  0.00  0.00    +0.000 C 
BRANCH   4   5
ATOM      5  C   UNL     1      45.435   3.299   8.494  0.00  0.00    +0.000 A 
ATOM      6  C   UNL     1      45.510   1.923   8.759  0.00  0.00    +0.000 A 
ATOM      7  C   UNL     1      46.410   1.113   8.062  0.00  0.00    +0.000 A 
ATOM      8  C   UNL     1      47.244   1.668   7.093  0.00  0.00    +0.000 A 
ATOM      9  C   UNL     1      47.196   3.036   6.836  0.00  0.00    +0.000 A 
ATOM     10  C   UNL     1      46.298   3.848   7.533  0.00  0.00    +0.000 A 
ENDBRANCH   4   5
ENDBRANCH   3   4
ENDBRANCH  11   3
ENDBRANCH  12  11
TORSDOF 8
ENDMDL
MODEL 3
REMARK VINA RESULT:    -7.195      1.579      2.290
REMARK INTER + INTRA:         -12.176
REMARK INTER:                 -10.854
REMARK INTRA:                  -1.322
REMARK UNBOUND:                -1.616
REMARK  Name = 
REMARK  9 active torsions:
REMARK  status: ('A' for Active; 'I' for Inactive)
REMARK    1  A    between atoms: C_1  and  C_2
REMARK    2  A    between atoms: C_2  and  N_3
REMARK    3  A    between atoms: N_3  and  C_4
REMARK    4  A    between atoms: N_3  and  C_11
REMARK    5  A    between atoms: C_4  and  C_5
REMARK    6  A    between atoms: C_11  and  C_12
REMARK    7  A    between atoms: C_15  and  C_16
REMARK    8  A    between atoms: C_16  and  N_17
REMARK    9  A    between atoms: C_18  and  C_20
REMARK                            x       y       z     vdW  Elec       q    Type
REMARK                         _______ _______ _______ _____ _____    ______ ____
ROOT
ATOM     12  C   UNL     1      46.166   6.059  12.015  0.00  0.00    +0.000 A 
ATOM     13  C   UNL     1      46.502   5.567  13.284  0.00  0.00    +0.000 A 
ATOM     14  C   UNL     1      47.683   5.969  13.912  0.00  0.00    +0.000 A 
ATOM     15  C   UNL     1      48.545   6.876  13.284  0.00  0.00    +0.000 A 
ATOM     30  C   UNL     1      48.250   7.305  11.984  0.00  0.00    +0.000 A 
ATOM     31  C   UNL     1      47.070   6.905  11.355  0.00  0.00    +0.000 A 
ENDROOT
BRANCH  15  16
ATOM     16  C   UNL     1      49.793   7.362  13.976  0.00  0.00    +0.000 C 
BRANCH  16  17
ATOM     17  N   UNL     1      49.689   7.159  15.394  0.00  0.00    +0.000 N 
ATOM     18  C   UNL     1      50.798   7.022  16.190  0.00  0.00    +0.000 C 
ATOM     19  O   UNL     1      51.939   7.126  15.750  0.00  0.00    +0.000 OA
ATOM     32  H   UNL     1      48.791   6.840  15.735  0.00  0.00    +0.000 HD
BRANCH  18  20
ATOM     20  C   UNL     1      50.533   6.819  17.619  0.00  0.00    +0.000 A 
ATOM     21  C   UNL     1      50.889   7.798  18.535  0.00  0.00    +0.000 A 
ATOM     22  S   UNL     1      50.413   7.440  20.135  0.00  0.00    +0.000 S 
ATOM     23  C   UNL     1      49.768   5.937  19.665  0.00  0.00    +0.000 A 
ATOM     24  N   UNL     1      49.189   5.106  20.574  0.00  0.00    +0.000 NA
ATOM     25  C   UNL     1      48.767   3.988  20.084  0.00  0.00    +0.000 A 
ATOM     26  N   UNL     1      48.877   3.621  18.767  0.00  0.00    +0.000 N 
ATOM     27  C   UNL     1      49.443   4.430  17.812  0.00  0.00    +0.000 A 
ATOM     28  O   UNL     1      49.514   4.074  16.641  0.00  0.00    +0.000 OA
ATOM     29  C   UNL     1      49.917   5.708  18.309  0.00  0.00    +0.000 A 
ATOM     33  H   UNL     1      48.531   2.729  18.446  0.00  0.00    +0.000 HD
ENDBRANCH  18  20
ENDBRANCH  16  17
ENDBRANCH  15  16
BRANCH  12  11
ATOM     11  C   UNL     1      44.811   5.753  11.407  0.00  0.00    +0.000 C 
BRANCH  11   3
ATOM      3  N   UNL     1      44.592   4.301  11.185  0.00  0.00    +0.000 NA
BRANCH   3   2
ATOM      1  C   UNL     1      42.873   4.831  12.981  0.00  0.00    +0.000 C 
ATOM      2  C   UNL     1      43.652   3.774  12.204  0.00  0.00    +0.000 C 
ENDBRANCH   3   2
BRANCH   3   4
ATOM      4  C   UNL     1      44.082   4.061   9.821  0.00  0.00    +0.000 C 
BRANCH   4   5
ATOM      5  C   UNL     1      45.061   3.406   8.864  0.00  0.00    +0.000 A 
ATOM      6  C   UNL     1      45.821   4.175   7.968  0.00  0.00    +0.000 A 
ATOM      7  C   UNL     1      46.799   3.576   7.171  0.00  0.00    +0.000 A 
ATOM      8  C   UNL     1      47.031   2.204   7.259  0.00  0.00    +0.000 A 
ATOM      9  C   UNL     1      46.269   1.426   8.129  0.00  0.00    +0.000 A 
ATOM     10  C   UNL     1      45.289   2.023   8.925  0.00  0.00    +0.000 A 
ENDBRANCH   4   5
ENDBRANCH   3   4
ENDBRANCH  11   3
ENDBRANCH  12  11
TORSDOF 8
ENDMDL
MODEL 4
REMARK VINA RESULT:    -7.106      1.546      1.936
REMARK INTER + INTRA:         -12.045
REMARK INTER:                 -11.002
REMARK INTRA:                  -1.043
REMARK UNBOUND:                -1.616
REMARK  Name = 
REMARK  9 active torsions:
REMARK  status: ('A' for Active; 'I' for Inactive)
REMARK    1  A    between atoms: C_1  and  C_2
REMARK    2  A    between atoms: C_2  and  N_3
REMARK    3  A    between atoms: N_3  and  C_4
REMARK    4  A    between atoms: N_3  and  C_11
REMARK    5  A    between atoms: C_4  and  C_5
REMARK    6  A    between atoms: C_11  and  C_12
REMARK    7  A    between atoms: C_15  and  C_16
REMARK    8  A    between atoms: C_16  and  N_17
REMARK    9  A    between atoms: C_18  and  C_20
REMARK                            x       y       z     vdW  Elec       q    Type
REMARK                         _______ _______ _______ _____ _____    ______ ____
ROOT
ATOM     12  C   UNL     1      45.225   6.261  11.230  0.00  0.00    +0.000 A 
ATOM     13  C   UNL     1      44.610   7.382  11.807  0.00  0.00    +0.000 A 
ATOM     14  C   UNL     1      45.362   8.309  12.530  0.00  0.00    +0.000 A 
ATOM     15  C   UNL     1      46.744   8.137  12.684  0.00  0.00    +0.000 A 
ATOM     30  C   UNL     1      47.343   6.977  12.176  0.00  0.00    +0.000 A 
ATOM     31  C   UNL     1      46.593   6.049  11.452  0.00  0.00    +0.000 A 
ENDROOT
BRANCH  15  16
ATOM     16  C   UNL     1      47.574   9.161  13.412  0.00  0.00    +0.000 C 
BRANCH  16  17
ATOM     17  N   UNL     1      47.535   8.922  14.828  0.00  0.00    +0.000 N 
ATOM     18  C   UNL     1      48.636   8.488  15.521  0.00  0.00    +0.000 C 
ATOM     19  O   UNL     1      49.730   8.337  14.988  0.00  0.00    +0.000 OA
ATOM     32  H   UNL     1      46.615   8.812  15.236  0.00  0.00    +0.000 HD
BRANCH  18  20
ATOM     20  C   UNL     1      48.440   8.288  16.962  0.00  0.00    +0.000 A 
ATOM     21  C   UNL     1      48.139   9.369  17.777  0.00  0.00    +0.000 A 
ATOM     22  S   UNL     1      47.843   8.936  19.402  0.00  0.00    +0.000 S 
ATOM     23  C   UNL     1      48.167   7.296  19.082  0.00  0.00    +0.000 A 
ATOM     24  N   UNL     1      48.089   6.361  20.067  0.00  0.00    +0.000 NA
ATOM     25  C   UNL     1      48.387   5.162  19.689  0.00  0.00    +0.000 A 
ATOM     26  N   UNL     1      48.762   4.813  18.417  0.00  0.00    +0.000 N 
ATOM     27  C   UNL     1      48.843   5.721  17.388  0.00  0.00    +0.000 A 
ATOM     28  O   UNL     1      49.171   5.372  16.259  0.00  0.00    +0.000 OA
ATOM     29  C   UNL     1      48.500   7.081  17.757  0.00  0.00    +0.000 A 
ATOM     33  H   UNL     1      48.987   3.857  18.185  0.00  0.00    +0.000 HD
ENDBRANCH  18  20
ENDBRANCH  16  17
ENDBRANCH  15  16
BRANCH  12  11
ATOM     11  C   UNL     1      44.442   5.344  10.310  0.00  0.00    +0.000 C 
BRANCH  11   3
ATOM      3  N   UNL     1      45.074   4.010  10.147  0.00  0.00    +0.000 NA
BRANCH   3   2
ATOM      1  C   UNL     1      43.310   3.179  11.778  0.00  0.00    +0.000 C 
ATOM      2  C   UNL     1      44.767   3.163  11.325  0.00  0.00    +0.000 C 
ENDBRANCH   3   2
BRANCH   3   4
ATOM      4  C   UNL     1      44.611   3.371   8.901  0.00  0.00    +0.000 C 
BRANCH   4   5
ATOM      5  C   UNL     1      45.700   2.767   8.033  0.00  0.00    +0.000 A 
ATOM      6  C   UNL     1      46.157   1.458   8.252  0.00  0.00    +0.000 A 
ATOM      7  C   UNL     1      47.077   0.871   7.380  0.00  0.00    +0.000 A 
ATOM      8  C   UNL     1      47.552   1.585   6.280  0.00  0.00    +0.000 A 
ATOM      9  C   UNL     1      47.124   2.893   6.064  0.00  0.00    +0.000 A 
ATOM     10  C   UNL     1      46.205   3.482   6.936  0.00  0.00    +0.000 A 
ENDBRANCH   4   5
ENDBRANCH   3   4
ENDBRANCH  11   3
ENDBRANCH  12  11
TORSDOF 8
ENDMDL
MODEL 5
REMARK VINA RESULT:    -6.949      3.016      5.430
REMARK INTER + INTRA:         -11.815
REMARK INTER:                 -10.113
REMARK INTRA:                  -1.702
REMARK UNBOUND:                -1.616
REMARK  Name = 
REMARK  9 active torsions:
REMARK  status: ('A' for Active; 'I' for Inactive)
REMARK    1  A    between atoms: C_1  and  C_2
REMARK    2  A    between atoms: C_2  and  N_3
REMARK    3  A    between atoms: N_3  and  C_4
REMARK    4  A    between atoms: N_3  and  C_11
REMARK    5  A    between atoms: C_4  and  C_5
REMARK    6  A    between atoms: C_11  and  C_12
REMARK    7  A    between atoms: C_15  and  C_16
REMARK    8  A    between atoms: C_16  and  N_17
REMARK    9  A    between atoms: C_18  and  C_20
REMARK                            x       y       z     vdW  Elec       q    Type
REMARK                         _______ _______ _______ _____ _____    ______ ____
ROOT
ATOM     12  C   UNL     1      47.375   5.877  13.530  0.00  0.00    +0.000 A 
ATOM     13  C   UNL     1      46.916   4.552  13.512  0.00  0.00    +0.000 A 
ATOM     14  C   UNL     1      47.023   3.749  14.649  0.00  0.00    +0.000 A 
ATOM     15  C   UNL     1      47.585   4.258  15.826  0.00  0.00    +0.000 A 
ATOM     30  C   UNL     1      48.115   5.555  15.819  0.00  0.00    +0.000 A 
ATOM     31  C   UNL     1      48.009   6.359  14.684  0.00  0.00    +0.000 A 
ENDROOT
BRANCH  15  16
ATOM     16  C   UNL     1      47.652   3.420  17.076  0.00  0.00    +0.000 C 
BRANCH  16  17
ATOM     17  N   UNL     1      49.018   3.232  17.479  0.00  0.00    +0.000 N 
ATOM     18  C   UNL     1      49.828   2.298  16.883  0.00  0.00    +0.000 C 
ATOM     19  O   UNL     1      49.455   1.615  15.935  0.00  0.00    +0.000 OA
ATOM     32  H   UNL     1      49.271   3.601  18.387  0.00  0.00    +0.000 HD
BRANCH  18  20
ATOM     20  C   UNL     1      51.198   2.221  17.404  0.00  0.00    +0.000 A 
ATOM     21  C   UNL     1      51.785   0.985  17.629  0.00  0.00    +0.000 A 
ATOM     22  S   UNL     1      53.412   1.085  18.133  0.00  0.00    +0.000 S 
ATOM     23  C   UNL     1      53.369   2.786  18.124  0.00  0.00    +0.000 A 
ATOM     24  N   UNL     1      54.464   3.518  18.464  0.00  0.00    +0.000 NA
ATOM     25  C   UNL     1      54.281   4.797  18.440  0.00  0.00    +0.000 A 
ATOM     26  N   UNL     1      53.099   5.411  18.113  0.00  0.00    +0.000 N 
ATOM     27  C   UNL     1      51.971   4.714  17.753  0.00  0.00    +0.000 A 
ATOM     28  O   UNL     1      50.934   5.297  17.456  0.00  0.00    +0.000 OA
ATOM     29  C   UNL     1      52.130   3.272  17.747  0.00  0.00    +0.000 A 
ATOM     33  H   UNL     1      53.018   6.417  18.117  0.00  0.00    +0.000 HD
ENDBRANCH  18  20
ENDBRANCH  16  17
ENDBRANCH  15  16
BRANCH  12  11
ATOM     11  C   UNL     1      47.110   6.797  12.353  0.00  0.00    +0.000 C 
BRANCH  11   3
ATOM      3  N   UNL     1      45.844   7.560  12.491  0.00  0.00    +0.000 NA
BRANCH   3   2
ATOM      1  C   UNL     1      44.933   9.901  12.098  0.00  0.00    +0.000 C 
ATOM      2  C   UNL     1      46.127   9.015  12.440  0.00  0.00    +0.000 C 
ENDBRANCH   3   2
BRANCH   3   4
ATOM      4  C   UNL     1      44.892   7.171  11.432  0.00  0.00    +0.000 C 
BRANCH   4   5
ATOM      5  C   UNL     1      44.333   5.764  11.543  0.00  0.00    +0.000 A 
ATOM      6  C   UNL     1      44.583   4.806  10.548  0.00  0.00    +0.000 A 
ATOM      7  C   UNL     1      44.160   3.484  10.712  0.00  0.00    +0.000 A 
ATOM      8  C   UNL     1      43.484   3.105  11.871  0.00  0.00    +0.000 A 
ATOM      9  C   UNL     1      43.210   4.051  12.857  0.00  0.00    +0.000 A 
ATOM     10  C   UNL     1      43.630   5.373  12.693  0.00  0.00    +0.000 A 
ENDBRANCH   4   5
ENDBRANCH   3   4
ENDBRANCH  11   3
ENDBRANCH  12  11
TORSDOF 8
ENDMDL
MODEL 6
REMARK VINA RESULT:    -6.604      2.826      3.592
REMARK INTER + INTRA:         -11.309
REMARK INTER:                 -10.372
REMARK INTRA:                  -0.936
REMARK UNBOUND:                -1.616
REMARK  Name = 
REMARK  9 active torsions:
REMARK  status: ('A' for Active; 'I' for Inactive)
REMARK    1  A    between atoms: C_1  and  C_2
REMARK    2  A    between atoms: C_2  and  N_3
REMARK    3  A    between atoms: N_3  and  C_4
REMARK    4  A    between atoms: N_3  and  C_11
REMARK    5  A    between atoms: C_4  and  C_5
REMARK    6  A    between atoms: C_11  and  C_12
REMARK    7  A    between atoms: C_15  and  C_16
REMARK    8  A    between atoms: C_16  and  N_17
REMARK    9  A    between atoms: C_18  and  C_20
REMARK                            x       y       z     vdW  Elec       q    Type
REMARK                         _______ _______ _______ _____ _____    ______ ____
ROOT
ATOM     12  C   UNL     1      45.469   6.469  11.914  0.00  0.00    +0.000 A 
ATOM     13  C   UNL     1      46.612   5.702  12.183  0.00  0.00    +0.000 A 
ATOM     14  C   UNL     1      47.627   6.203  13.000  0.00  0.00    +0.000 A 
ATOM     15  C   UNL     1      47.514   7.477  13.570  0.00  0.00    +0.000 A 
ATOM     30  C   UNL     1      46.412   8.274  13.237  0.00  0.00    +0.000 A 
ATOM     31  C   UNL     1      45.395   7.775  12.421  0.00  0.00    +0.000 A 
ENDROOT
BRANCH  15  16
ATOM     16  C   UNL     1      48.576   8.005  14.500  0.00  0.00    +0.000 C 
BRANCH  16  17
ATOM     17  N   UNL     1      48.128   7.932  15.863  0.00  0.00    +0.000 N 
ATOM     18  C   UNL     1      48.999   8.022  16.918  0.00  0.00    +0.000 C 
ATOM     19  O   UNL     1      50.198   8.231  16.764  0.00  0.00    +0.000 OA
ATOM     32  H   UNL     1      47.208   7.535  16.010  0.00  0.00    +0.000 HD
BRANCH  18  20
ATOM     20  C   UNL     1      48.392   7.930  18.252  0.00  0.00    +0.000 A 
ATOM     21  C   UNL     1      48.378   6.716  18.923  0.00  0.00    +0.000 A 
ATOM     22  S   UNL     1      47.730   6.816  20.499  0.00  0.00    +0.000 S 
ATOM     23  C   UNL     1      47.391   8.474  20.313  0.00  0.00    +0.000 A 
ATOM     24  N   UNL     1      46.817   9.190  21.318  0.00  0.00    +0.000 NA
ATOM     25  C   UNL     1      46.593  10.429  21.031  0.00  0.00    +0.000 A 
ATOM     26  N   UNL     1      46.884  11.017  19.827  0.00  0.00    +0.000 N 
ATOM     27  C   UNL     1      47.473  10.338  18.788  0.00  0.00    +0.000 A 
ATOM     28  O   UNL     1      47.730  10.899  17.728  0.00  0.00    +0.000 OA
ATOM     29  C   UNL     1      47.763   8.944  19.067  0.00  0.00    +0.000 A 
ATOM     33  H   UNL     1      46.679  11.992  19.661  0.00  0.00    +0.000 HD
ENDBRANCH  18  20
ENDBRANCH  16  17
ENDBRANCH  15  16
BRANCH  12  11
ATOM     11  C   UNL     1      44.297   5.865  11.165  0.00  0.00    +0.000 C 
BRANCH  11   3
ATOM      3  N   UNL     1      44.508   4.435  10.820  0.00  0.00    +0.000 NA
BRANCH   3   2
ATOM      1  C   UNL     1      43.249   4.249  13.021  0.00  0.00    +0.000 C 
ATOM      2  C   UNL     1      43.716   3.576  11.734  0.00  0.00    +0.000 C 
ENDBRANCH   3   2
BRANCH   3   4
ATOM      4  C   UNL     1      44.142   4.188   9.412  0.00  0.00    +0.000 C 
BRANCH   4   5
ATOM      5  C   UNL     1      45.147   3.386   8.607  0.00  0.00    +0.000 A 
ATOM      6  C   UNL     1      46.042   4.018   7.731  0.00  0.00    +0.000 A 
ATOM      7  C   UNL     1      47.038   3.285   7.080  0.00  0.00    +0.000 A 
ATOM      8  C   UNL     1      47.151   1.912   7.297  0.00  0.00    +0.000 A 
ATOM      9  C   UNL     1      46.255   1.268   8.148  0.00  0.00    +0.000 A 
ATOM     10  C   UNL     1      45.258   2.000   8.798  0.00  0.00    +0.000 A 
ENDBRANCH   4   5
ENDBRANCH   3   4
ENDBRANCH  11   3
ENDBRANCH  12  11
TORSDOF 8
ENDMDL
MODEL 7
REMARK VINA RESULT:    -6.537      1.840      2.596
REMARK INTER + INTRA:         -11.210
REMARK INTER:                  -9.753
REMARK INTRA:                  -1.457
REMARK UNBOUND:                -1.616
REMARK  Name = 
REMARK  9 active torsions:
REMARK  status: ('A' for Active; 'I' for Inactive)
REMARK    1  A    between atoms: C_1  and  C_2
REMARK    2  A    between atoms: C_2  and  N_3
REMARK    3  A    between atoms: N_3  and  C_4
REMARK    4  A    between atoms: N_3  and  C_11
REMARK    5  A    between atoms: C_4  and  C_5
REMARK    6  A    between atoms: C_11  and  C_12
REMARK    7  A    between atoms: C_15  and  C_16
REMARK    8  A    between atoms: C_16  and  N_17
REMARK    9  A    between atoms: C_18  and  C_20
REMARK                            x       y       z     vdW  Elec       q    Type
REMARK                         _______ _______ _______ _____ _____    ______ ____
ROOT
ATOM     12  C   UNL     1      46.229   7.619  11.800  0.00  0.00    +0.000 A 
ATOM     13  C   UNL     1      47.376   6.867  11.511  0.00  0.00    +0.000 A 
ATOM     14  C   UNL     1      48.633   7.296  11.943  0.00  0.00    +0.000 A 
ATOM     15  C   UNL     1      48.763   8.481  12.678  0.00  0.00    +0.000 A 
ATOM     30  C   UNL     1      47.628   9.272  12.897  0.00  0.00    +0.000 A 
ATOM     31  C   UNL     1      46.371   8.845  12.466  0.00  0.00    +0.000 A 
ENDROOT
BRANCH  15  16
ATOM     16  C   UNL     1      50.106   8.924  13.199  0.00  0.00    +0.000 C 
BRANCH  16  17
ATOM     17  N   UNL     1      50.670   7.913  14.050  0.00  0.00    +0.000 N 
ATOM     18  C   UNL     1      50.596   7.992  15.417  0.00  0.00    +0.000 C 
ATOM     19  O   UNL     1      49.994   8.893  15.991  0.00  0.00    +0.000 OA
ATOM     32  H   UNL     1      51.357   7.304  13.624  0.00  0.00    +0.000 HD
BRANCH  18  20
ATOM     20  C   UNL     1      51.220   6.885  16.152  0.00  0.00    +0.000 A 
ATOM     21  C   UNL     1      52.594   6.866  16.339  0.00  0.00    +0.000 A 
ATOM     22  S   UNL     1      53.132   5.563  17.302  0.00  0.00    +0.000 S 
ATOM     23  C   UNL     1      51.552   4.949  17.452  0.00  0.00    +0.000 A 
ATOM     24  N   UNL     1      51.303   3.820  18.170  0.00  0.00    +0.000 NA
ATOM     25  C   UNL     1      50.064   3.453  18.176  0.00  0.00    +0.000 A 
ATOM     26  N   UNL     1      49.052   4.109  17.524  0.00  0.00    +0.000 N 
ATOM     27  C   UNL     1      49.254   5.257  16.797  0.00  0.00    +0.000 A 
ATOM     28  O   UNL     1      48.322   5.824  16.236  0.00  0.00    +0.000 OA
ATOM     29  C   UNL     1      50.628   5.722  16.774  0.00  0.00    +0.000 A 
ATOM     33  H   UNL     1      48.102   3.768  17.563  0.00  0.00    +0.000 HD
ENDBRANCH  18  20
ENDBRANCH  16  17
ENDBRANCH  15  16
BRANCH  12  11
ATOM     11  C   UNL     1      44.851   7.073  11.475  0.00  0.00    +0.000 C 
BRANCH  11   3
ATOM      3  N   UNL     1      44.762   5.599  11.639  0.00  0.00    +0.000 NA
BRANCH   3   2
ATOM      1  C   UNL     1      42.839   4.696  13.036  0.00  0.00    +0.000 C 
ATOM      2  C   UNL     1      44.250   5.275  12.993  0.00  0.00    +0.000 C 
ENDBRANCH   3   2
BRANCH   3   4
ATOM      4  C   UNL     1      43.896   5.019  10.594  0.00  0.00    +0.000 C 
BRANCH   4   5
ATOM      5  C   UNL     1      44.588   4.087   9.616  0.00  0.00    +0.000 A 
ATOM      6  C   UNL     1      45.447   4.587   8.625  0.00  0.00    +0.000 A 
ATOM      7  C   UNL     1      46.166   3.715   7.803  0.00  0.00    +0.000 A 
ATOM      8  C   UNL     1      46.035   2.337   7.961  0.00  0.00    +0.000 A 
ATOM      9  C   UNL     1      45.169   1.827   8.926  0.00  0.00    +0.000 A 
ATOM     10  C   UNL     1      44.448   2.697   9.748  0.00  0.00    +0.000 A 
ENDBRANCH   4   5
ENDBRANCH   3   4
ENDBRANCH  11   3
ENDBRANCH  12  11
TORSDOF 8
ENDMDL
MODEL 8
REMARK VINA RESULT:    -6.433      3.575      4.961
REMARK INTER + INTRA:         -11.057
REMARK INTER:                 -10.148
REMARK INTRA:                  -0.909
REMARK UNBOUND:                -1.616
REMARK  Name = 
REMARK  9 active torsions:
REMARK  status: ('A' for Active; 'I' for Inactive)
REMARK    1  A    between atoms: C_1  and  C_2
REMARK    2  A    between atoms: C_2  and  N_3
REMARK    3  A    between atoms: N_3  and  C_4
REMARK    4  A    between atoms: N_3  and  C_11
REMARK    5  A    between atoms: C_4  and  C_5
REMARK    6  A    between atoms: C_11  and  C_12
REMARK    7  A    between atoms: C_15  and  C_16
REMARK    8  A    between atoms: C_16  and  N_17
REMARK    9  A    between atoms: C_18  and  C_20
REMARK                            x       y       z     vdW  Elec       q    Type
REMARK                         _______ _______ _______ _____ _____    ______ ____
ROOT
ATOM     12  C   UNL     1      46.141   5.756  11.755  0.00  0.00    +0.000 A 
ATOM     13  C   UNL     1      46.354   5.033  12.937  0.00  0.00    +0.000 A 
ATOM     14  C   UNL     1      47.303   5.460  13.868  0.00  0.00    +0.000 A 
ATOM     15  C   UNL     1      48.050   6.621  13.638  0.00  0.00    +0.000 A 
ATOM     30  C   UNL     1      47.894   7.298  12.421  0.00  0.00    +0.000 A 
ATOM     31  C   UNL     1      46.946   6.873  11.489  0.00  0.00    +0.000 A 
ENDROOT
BRANCH  15  16
ATOM     16  C   UNL     1      49.034   7.124  14.662  0.00  0.00    +0.000 C 
BRANCH  16  17
ATOM     17  N   UNL     1      50.325   7.316  14.062  0.00  0.00    +0.000 N 
ATOM     18  C   UNL     1      51.134   8.371  14.404  0.00  0.00    +0.000 C 
ATOM     19  O   UNL     1      50.831   9.173  15.281  0.00  0.00    +0.000 OA
ATOM     32  H   UNL     1      50.493   6.823  13.194  0.00  0.00    +0.000 HD
BRANCH  18  20
ATOM     20  C   UNL     1      52.423   8.435  13.706  0.00  0.00    +0.000 A 
ATOM     21  C   UNL     1      53.605   8.337  14.425  0.00  0.00    +0.000 A 
ATOM     22  S   UNL     1      55.001   8.325  13.442  0.00  0.00    +0.000 S 
ATOM     23  C   UNL     1      54.074   8.512  12.027  0.00  0.00    +0.000 A 
ATOM     24  N   UNL     1      54.666   8.576  10.803  0.00  0.00    +0.000 NA
ATOM     25  C   UNL     1      53.844   8.745   9.821  0.00  0.00    +0.000 A 
ATOM     26  N   UNL     1      52.484   8.864   9.951  0.00  0.00    +0.000 N 
ATOM     27  C   UNL     1      51.842   8.795  11.164  0.00  0.00    +0.000 A 
ATOM     28  O   UNL     1      50.622   8.893  11.241  0.00  0.00    +0.000 OA
ATOM     29  C   UNL     1      52.720   8.586  12.299  0.00  0.00    +0.000 A 
ATOM     33  H   UNL     1      51.895   9.000   9.143  0.00  0.00    +0.000 HD
ENDBRANCH  18  20
ENDBRANCH  16  17
ENDBRANCH  15  16
BRANCH  12  11
ATOM     11  C   UNL     1      45.002   5.387  10.824  0.00  0.00    +0.000 C 
BRANCH  11   3
ATOM      3  N   UNL     1      44.463   4.027  11.082  0.00  0.00    +0.000 NA
BRANCH   3   2
ATOM      1  C   UNL     1      42.425   5.332  11.859  0.00  0.00    +0.000 C 
ATOM      2  C   UNL     1      43.322   4.109  12.025  0.00  0.00    +0.000 C 
ENDBRANCH   3   2
BRANCH   3   4
ATOM      4  C   UNL     1      44.056   3.388   9.815  0.00  0.00    +0.000 C 
BRANCH   4   5
ATOM      5  C   UNL     1      45.189   3.030   8.871  0.00  0.00    +0.000 A 
ATOM      6  C   UNL     1      45.654   1.710   8.764  0.00  0.00    +0.000 A 
ATOM      7  C   UNL     1      46.618   1.371   7.812  0.00  0.00    +0.000 A 
ATOM      8  C   UNL     1      47.130   2.345   6.957  0.00  0.00    +0.000 A 
ATOM      9  C   UNL     1      46.695   3.664   7.067  0.00  0.00    +0.000 A 
ATOM     10  C   UNL     1      45.731   4.005   8.019  0.00  0.00    +0.000 A 
ENDBRANCH   4   5
ENDBRANCH   3   4
ENDBRANCH  11   3
ENDBRANCH  12  11
TORSDOF 8
ENDMDL
MODEL 9
REMARK VINA RESULT:    -6.164      3.382      4.744
REMARK INTER + INTRA:         -10.662
REMARK INTER:                  -9.761
REMARK INTRA:                  -0.901
REMARK UNBOUND:                -1.616
REMARK  Name = 
REMARK  9 active torsions:
REMARK  status: ('A' for Active; 'I' for Inactive)
REMARK    1  A    between atoms: C_1  and  C_2
REMARK    2  A    between atoms: C_2  and  N_3
REMARK    3  A    between atoms: N_3  and  C_4
REMARK    4  A    between atoms: N_3  and  C_11
REMARK    5  A    between atoms: C_4  and  C_5
REMARK    6  A    between atoms: C_11  and  C_12
REMARK    7  A    between atoms: C_15  and  C_16
REMARK    8  A    between atoms: C_16  and  N_17
REMARK    9  A    between atoms: C_18  and  C_20
REMARK                            x       y       z     vdW  Elec       q    Type
REMARK                         _______ _______ _______ _____ _____    ______ ____
ROOT
ATOM     12  C   UNL     1      45.440   6.064  11.305  0.00  0.00    +0.000 A 
ATOM     13  C   UNL     1      44.920   7.350  11.511  0.00  0.00    +0.000 A 
ATOM     14  C   UNL     1      45.539   8.231  12.401  0.00  0.00    +0.000 A 
ATOM     15  C   UNL     1      46.692   7.843  13.095  0.00  0.00    +0.000 A 
ATOM     30  C   UNL     1      47.163   6.533  12.950  0.00  0.00    +0.000 A 
ATOM     31  C   UNL     1      46.547   5.651  12.060  0.00  0.00    +0.000 A 
ENDROOT
BRANCH  15  16
ATOM     16  C   UNL     1      47.401   8.805  14.013  0.00  0.00    +0.000 C 
BRANCH  16  17
ATOM     17  N   UNL     1      48.753   9.012  13.573  0.00  0.00    +0.000 N 
ATOM     18  C   UNL     1      49.107  10.087  12.800  0.00  0.00    +0.000 C 
ATOM     19  O   UNL     1      48.308  10.965  12.490  0.00  0.00    +0.000 OA
ATOM     32  H   UNL     1      49.363   8.205  13.612  0.00  0.00    +0.000 HD
BRANCH  18  20
ATOM     20  C   UNL     1      50.525  10.163  12.428  0.00  0.00    +0.000 A 
ATOM     21  C   UNL     1      51.258  11.303  12.722  0.00  0.00    +0.000 A 
ATOM     22  S   UNL     1      52.910  11.175  12.313  0.00  0.00    +0.000 S 
ATOM     23  C   UNL     1      52.688   9.613  11.675  0.00  0.00    +0.000 A 
ATOM     24  N   UNL     1      53.731   8.915  11.148  0.00  0.00    +0.000 NA
ATOM     25  C   UNL     1      53.413   7.755  10.676  0.00  0.00    +0.000 A 
ATOM     26  N   UNL     1      52.146   7.231  10.676  0.00  0.00    +0.000 N 
ATOM     27  C   UNL     1      51.065   7.894  11.207  0.00  0.00    +0.000 A 
ATOM     28  O   UNL     1      49.948   7.390  11.200  0.00  0.00    +0.000 OA
ATOM     29  C   UNL     1      51.373   9.196  11.768  0.00  0.00    +0.000 A 
ATOM     33  H   UNL     1      51.961   6.319  10.287  0.00  0.00    +0.000 HD
ENDBRANCH  18  20
ENDBRANCH  16  17
ENDBRANCH  15  16
BRANCH  12  11
ATOM     11  C   UNL     1      44.868   5.170  10.221  0.00  0.00    +0.000 C 
BRANCH  11   3
ATOM      3  N   UNL     1      44.923   3.728  10.573  0.00  0.00    +0.000 NA
BRANCH   3   2
ATOM      1  C   UNL     1      42.777   4.288  11.815  0.00  0.00    +0.000 C 
ATOM      2  C   UNL     1      44.060   3.465  11.750  0.00  0.00    +0.000 C 
ENDBRANCH   3   2
BRANCH   3   4
ATOM      4  C   UNL     1      44.512   2.903   9.421  0.00  0.00    +0.000 C 
BRANCH   4   5
ATOM      5  C   UNL     1      45.591   2.643   8.386  0.00  0.00    +0.000 A 
ATOM      6  C   UNL     1      46.199   1.383   8.276  0.00  0.00    +0.000 A 
ATOM      7  C   UNL     1      47.109   1.120   7.248  0.00  0.00    +0.000 A 
ATOM      8  C   UNL     1      47.422   2.112   6.320  0.00  0.00    +0.000 A 
ATOM      9  C   UNL     1      46.842   3.375   6.431  0.00  0.00    +0.000 A 
ATOM     10  C   UNL     1      45.934   3.639   7.459  0.00  0.00    +0.000 A 
ENDBRANCH   4   5
ENDBRANCH   3   4
ENDBRANCH  11   3
ENDBRANCH  12  11
TORSDOF 8
ENDMDL
