MODEL 1
REMARK VINA RESULT:    -7.163      0.000      0.000
REMARK INTER + INTRA:          -9.414
REMARK INTER:                  -8.837
REMARK INTRA:                  -0.577
REMARK UNBOUND:                -0.577
REMARK  Name = 
REMARK  4 active torsions:
REMARK  status: ('A' for Active; 'I' for Inactive)
REMARK    1  A    between atoms: C_2  and  C_4
REMARK    2  A    between atoms: N_11  and  C_12
REMARK    3  A    between atoms: C_12  and  C_13
REMARK    4  A    between atoms: N_15  and  C_16
REMARK                            x       y       z     vdW  Elec       q    Type
REMARK                         _______ _______ _______ _____ _____    ______ ____
ROOT
ATOM      4  C   UNL     1      46.590   2.596   7.576  0.00  0.00    +0.000 A 
ATOM      5  C   UNL     1      46.544   3.986   7.656  0.00  0.00    +0.000 A 
ATOM      6  N   UNL     1      45.755   4.711   8.495  0.00  0.00    +0.000 NA
ATOM      7  C   UNL     1      45.030   3.933   9.328  0.00  0.00    +0.000 A 
ATOM      8  C   UNL     1      45.014   2.540   9.377  0.00  0.00    +0.000 A 
ATOM      9  C   UNL     1      44.125   2.169  10.420  0.00  0.00    +0.000 A 
ATOM     10  C   UNL     1      43.622   3.328  10.971  0.00  0.00    +0.000 A 
ATOM     11  N   UNL     1      44.167   4.390  10.293  0.00  0.00    +0.000 N 
ATOM     20  C   UNL     1      45.818   1.841   8.462  0.00  0.00    +0.000 A 
ENDROOT
BRANCH   4   2
ATOM      1  N   UNL     1      48.572   2.674   6.174  0.00  0.00    +0.000 N 
ATOM      2  C   UNL     1      47.461   1.972   6.559  0.00  0.00    +0.000 C 
ATOM      3  O   UNL     1      47.223   0.864   6.103  0.00  0.00    +0.000 OA
ATOM     21  H   UNL     1      49.218   2.197   5.557  0.00  0.00    +0.000 HD
ATOM     22  H   UNL     1      48.925   3.467   6.690  0.00  0.00    +0.000 HD
ENDBRANCH   4   2
BRANCH  11  12
ATOM     12  C   UNL     1      43.925   5.788  10.593  0.00  0.00    +0.000 C 
BRANCH  12  13
ATOM     13  C   UNL     1      44.781   6.290  11.732  0.00  0.00    +0.000 C 
ATOM     14  O   UNL     1      44.357   6.338  12.887  0.00  0.00    +0.000 OA
ATOM     15  N   UNL     1      46.078   6.635  11.408  0.00  0.00    +0.000 N 
ATOM     23  H   UNL     1      46.359   6.576  10.430  0.00  0.00    +0.000 HD
BRANCH  15  16
ATOM     16  C   UNL     1      47.050   7.004  12.462  0.00  0.00    +0.000 C 
ATOM     17  C   UNL     1      48.480   7.333  11.995  0.00  0.00    +0.000 C 
ATOM     18  N   UNL     1      49.018   6.473  13.072  0.00  0.00    +0.000 NA
ATOM     19  C   UNL     1      47.704   5.805  13.181  0.00  0.00    +0.000 C 
ATOM     24  H   UNL     1      49.272   6.989  13.916  0.00  0.00    +0.000 HD
ENDBRANCH  15  16
ENDBRANCH  12  13
ENDBRANCH  11  12
TORSDOF 4
ENDMDL
MODEL 2
REMARK VINA RESULT:    -6.857      1.886      6.252
REMARK INTER + INTRA:          -9.038
REMARK INTER:                  -8.691
REMARK INTRA:                  -0.347
REMARK UNBOUND:                -0.577
REMARK  Name = 
REMARK  4 active torsions:
REMARK  status: ('A' for Active; 'I' for Inactive)
REMARK    1  A    between atoms: C_2  and  C_4
REMARK    2  A    between atoms: N_11  and  C_12
REMARK    3  A    between atoms: C_12  and  C_13
REMARK    4  A    between atoms: N_15  and  C_16
REMARK                            x       y       z     vdW  Elec       q    Type
REMARK                         _______ _______ _______ _____ _____    ______ ____
ROOT
ATOM      4  C   UNL     1      46.476   6.500  12.823  0.00  0.00    +0.000 A 
ATOM      5  C   UNL     1      46.607   6.605  11.440  0.00  0.00    +0.000 A 
ATOM      6  N   UNL     1      45.980   5.825  10.518  0.00  0.00    +0.000 NA
ATOM      7  C   UNL     1      45.131   4.937  11.080  0.00  0.00    +0.000 A 
ATOM      8  C   UNL     1      44.881   4.758  12.439  0.00  0.00    +0.000 A 
ATOM      9  C   UNL     1      43.903   3.734  12.553  0.00  0.00    +0.000 A 
ATOM     10  C   UNL     1      43.590   3.314  11.278  0.00  0.00    +0.000 A 
ATOM     11  N   UNL     1      44.349   4.041  10.394  0.00  0.00    +0.000 N 
ATOM     20  C   UNL     1      45.584   5.563  13.349  0.00  0.00    +0.000 A 
ENDROOT
BRANCH   4   2
ATOM      1  N   UNL     1      46.756   8.619  13.978  0.00  0.00    +0.000 N 
ATOM      2  C   UNL     1      47.284   7.390  13.681  0.00  0.00    +0.000 C 
ATOM      3  O   UNL     1      48.361   7.037  14.138  0.00  0.00    +0.000 OA
ATOM     21  H   UNL     1      47.265   9.180  14.649  0.00  0.00    +0.000 HD
ATOM     22  H   UNL     1      45.785   8.850  13.821  0.00  0.00    +0.000 HD
ENDBRANCH   4   2
BRANCH  11  12
ATOM     12  C   UNL     1      44.287   3.932   8.950  0.00  0.00    +0.000 C 
BRANCH  12  13
ATOM     13  C   UNL     1      45.215   2.869   8.410  0.00  0.00    +0.000 C 
ATOM     14  O   UNL     1      45.380   1.798   8.996  0.00  0.00    +0.000 OA
ATOM     15  N   UNL     1      45.814   3.147   7.199  0.00  0.00    +0.000 N 
ATOM     23  H   UNL     1      45.636   4.056   6.774  0.00  0.00    +0.000 HD
BRANCH  15  16
ATOM     16  C   UNL     1      46.630   2.125   6.504  0.00  0.00    +0.000 C 
ATOM     17  C   UNL     1      48.132   2.100   6.838  0.00  0.00    +0.000 C 
ATOM     18  N   UNL     1      48.441   2.016   5.394  0.00  0.00    +0.000 NA
ATOM     19  C   UNL     1      47.088   2.525   5.085  0.00  0.00    +0.000 C 
ATOM     24  H   UNL     1      48.591   1.061   5.063  0.00  0.00    +0.000 HD
ENDBRANCH  15  16
ENDBRANCH  12  13
ENDBRANCH  11  12
TORSDOF 4
ENDMDL
MODEL 3
REMARK VINA RESULT:    -6.491      2.355      6.346
REMARK INTER + INTRA:          -8.586
REMARK INTER:                  -8.456
REMARK INTRA:                  -0.129
REMARK UNBOUND:                -0.577
REMARK  Name = 
REMARK  4 active torsions:
REMARK  status: ('A' for Active; 'I' for Inactive)
REMARK    1  A    between atoms: C_2  and  C_4
REMARK    2  A    between atoms: N_11  and  C_12
REMARK    3  A    between atoms: C_12  and  C_13
REMARK    4  A    between atoms: N_15  and  C_16
REMARK                            x       y       z     vdW  Elec       q    Type
REMARK                         _______ _______ _______ _____ _____    ______ ____
ROOT
ATOM      4  C   UNL     1      46.651   4.784  14.142  0.00  0.00    +0.000 A 
ATOM      5  C   UNL     1      46.686   3.508  13.585  0.00  0.00    +0.000 A 
ATOM      6  N   UNL     1      45.930   3.073  12.540  0.00  0.00    +0.000 NA
ATOM      7  C   UNL     1      45.150   4.046  12.022  0.00  0.00    +0.000 A 
ATOM      8  C   UNL     1      45.051   5.366  12.460  0.00  0.00    +0.000 A 
ATOM      9  C   UNL     1      44.129   6.022  11.603  0.00  0.00    +0.000 A 
ATOM     10  C   UNL     1      43.687   5.098  10.680  0.00  0.00    +0.000 A 
ATOM     11  N   UNL     1      44.303   3.901  10.951  0.00  0.00    +0.000 N 
ATOM     20  C   UNL     1      45.824   5.752  13.566  0.00  0.00    +0.000 A 
ENDROOT
BRANCH   4   2
ATOM      1  N   UNL     1      47.085   4.556  16.521  0.00  0.00    +0.000 N 
ATOM      2  C   UNL     1      47.496   5.067  15.319  0.00  0.00    +0.000 C 
ATOM      3  O   UNL     1      48.536   5.702  15.225  0.00  0.00    +0.000 OA
ATOM     21  H   UNL     1      47.720   4.664  17.302  0.00  0.00    +0.000 HD
ATOM     22  H   UNL     1      46.375   3.841  16.598  0.00  0.00    +0.000 HD
ENDBRANCH   4   2
BRANCH  11  12
ATOM     12  C   UNL     1      44.140   2.683  10.184  0.00  0.00    +0.000 C 
BRANCH  12  13
ATOM     13  C   UNL     1      44.691   2.806   8.782  0.00  0.00    +0.000 C 
ATOM     14  O   UNL     1      44.251   3.636   7.986  0.00  0.00    +0.000 OA
ATOM     15  N   UNL     1      45.749   1.975   8.472  0.00  0.00    +0.000 N 
ATOM     23  H   UNL     1      46.056   1.309   9.179  0.00  0.00    +0.000 HD
BRANCH  15  16
ATOM     16  C   UNL     1      46.462   2.105   7.180  0.00  0.00    +0.000 C 
ATOM     17  C   UNL     1      47.769   1.304   7.033  0.00  0.00    +0.000 C 
ATOM     18  N   UNL     1      48.430   2.506   6.480  0.00  0.00    +0.000 NA
ATOM     19  C   UNL     1      47.368   3.349   7.069  0.00  0.00    +0.000 C 
ATOM     24  H   UNL     1      48.437   2.533   5.459  0.00  0.00    +0.000 HD
ENDBRANCH  15  16
ENDBRANCH  12  13
ENDBRANCH  11  12
TORSDOF 4
ENDMDL
MODEL 4
REMARK VINA RESULT:    -6.040      2.621      6.379
REMARK INTER + INTRA:          -8.029
REMARK INTER:                  -7.664
REMARK INTRA:                  -0.365
REMARK UNBOUND:                -0.577
REMARK  Name = 
REMARK  4 active torsions:
REMARK  status: ('A' for Active; 'I' for Inactive)
REMARK    1  A    between atoms: C_2  and  C_4
REMARK    2  A    between atoms: N_11  and  C_12
REMARK    3  A    between atoms: C_12  and  C_13
REMARK    4  A    between atoms: N_15  and  C_16
REMARK                            x       y       z     vdW  Elec       q    Type
REMARK                         _______ _______ _______ _____ _____    ______ ____
ROOT
ATOM      4  C   UNL     1      46.024   8.573  12.257  0.00  0.00    +0.000 A 
ATOM      5  C   UNL     1      44.742   8.084  12.018  0.00  0.00    +0.000 A 
ATOM      6  N   UNL     1      44.323   6.807  12.231  0.00  0.00    +0.000 NA
ATOM      7  C   UNL     1      45.282   6.030  12.780  0.00  0.00    +0.000 A 
ATOM      8  C   UNL     1      46.585   6.406  13.104  0.00  0.00    +0.000 A 
ATOM      9  C   UNL     1      47.217   5.270  13.675  0.00  0.00    +0.000 A 
ATOM     10  C   UNL     1      46.300   4.241  13.680  0.00  0.00    +0.000 A 
ATOM     11  N   UNL     1      45.135   4.710  13.124  0.00  0.00    +0.000 N 
ATOM     20  C   UNL     1      46.977   7.725  12.826  0.00  0.00    +0.000 A 
ENDROOT
BRANCH   4   2
ATOM      1  N   UNL     1      45.350  10.905  12.157  0.00  0.00    +0.000 N 
ATOM      2  C   UNL     1      46.325   9.976  11.907  0.00  0.00    +0.000 C 
ATOM      3  O   UNL     1      47.408  10.304  11.444  0.00  0.00    +0.000 OA
ATOM     21  H   UNL     1      45.601  11.875  12.012  0.00  0.00    +0.000 HD
ATOM     22  H   UNL     1      44.552  10.716  12.746  0.00  0.00    +0.000 HD
ENDBRANCH   4   2
BRANCH  11  12
ATOM     12  C   UNL     1      43.909   3.949  12.983  0.00  0.00    +0.000 C 
BRANCH  12  13
ATOM     13  C   UNL     1      43.809   3.258  11.643  0.00  0.00    +0.000 C 
ATOM     14  O   UNL     1      42.976   2.377  11.431  0.00  0.00    +0.000 OA
ATOM     15  N   UNL     1      44.664   3.716  10.661  0.00  0.00    +0.000 N 
ATOM     23  H   UNL     1      45.332   4.445  10.910  0.00  0.00    +0.000 HD
BRANCH  15  16
ATOM     16  C   UNL     1      44.560   3.216   9.271  0.00  0.00    +0.000 C 
ATOM     17  C   UNL     1      45.469   2.031   8.896  0.00  0.00    +0.000 C 
ATOM     18  N   UNL     1      45.851   2.732   7.651  0.00  0.00    +0.000 NA
ATOM     19  C   UNL     1      45.393   4.007   8.240  0.00  0.00    +0.000 C 
ATOM     24  H   UNL     1      45.300   2.449   6.839  0.00  0.00    +0.000 HD
ENDBRANCH  15  16
ENDBRANCH  12  13
ENDBRANCH  11  12
TORSDOF 4
ENDMDL
MODEL 5
REMARK VINA RESULT:    -6.007      4.005      6.021
REMARK INTER + INTRA:          -7.988
REMARK INTER:                  -7.444
REMARK INTRA:                  -0.544
REMARK UNBOUND:                -0.577
REMARK  Name = 
REMARK  4 active torsions:
REMARK  status: ('A' for Active; 'I' for Inactive)
REMARK    1  A    between atoms: C_2  and  C_4
REMARK    2  A    between atoms: N_11  and  C_12
REMARK    3  A    between atoms: C_12  and  C_13
REMARK    4  A    between atoms: N_15  and  C_16
REMARK                            x       y       z     vdW  Elec       q    Type
REMARK                         _______ _______ _______ _____ _____    ______ ____
ROOT
ATOM      4  C   UNL     1      44.684   4.600  12.359  0.00  0.00    +0.000 A 
ATOM      5  C   UNL     1      45.868   4.146  12.936  0.00  0.00    +0.000 A 
ATOM      6  N   UNL     1      46.890   4.928  13.379  0.00  0.00    +0.000 NA
ATOM      7  C   UNL     1      46.622   6.247  13.265  0.00  0.00    +0.000 A 
ATOM      8  C   UNL     1      45.466   6.828  12.746  0.00  0.00    +0.000 A 
ATOM      9  C   UNL     1      45.623   8.236  12.850  0.00  0.00    +0.000 A 
ATOM     10  C   UNL     1      46.856   8.477  13.418  0.00  0.00    +0.000 A 
ATOM     11  N   UNL     1      47.458   7.265  13.654  0.00  0.00    +0.000 N 
ATOM     20  C   UNL     1      44.460   5.975  12.266  0.00  0.00    +0.000 A 
ENDROOT
BRANCH   4   2
ATOM      1  N   UNL     1      43.736   2.365  12.452  0.00  0.00    +0.000 N 
ATOM      2  C   UNL     1      43.706   3.606  11.872  0.00  0.00    +0.000 C 
ATOM      3  O   UNL     1      42.882   3.883  11.014  0.00  0.00    +0.000 OA
ATOM     21  H   UNL     1      42.998   1.724  12.190  0.00  0.00    +0.000 HD
ATOM     22  H   UNL     1      44.231   2.174  13.312  0.00  0.00    +0.000 HD
ENDBRANCH   4   2
BRANCH  11  12
ATOM     12  C   UNL     1      48.751   7.080  14.281  0.00  0.00    +0.000 C 
BRANCH  12  13
ATOM     13  C   UNL     1      48.637   6.739  15.749  0.00  0.00    +0.000 C 
ATOM     14  O   UNL     1      48.863   7.574  16.626  0.00  0.00    +0.000 OA
ATOM     15  N   UNL     1      48.210   5.459  16.041  0.00  0.00    +0.000 N 
ATOM     23  H   UNL     1      48.048   4.820  15.264  0.00  0.00    +0.000 HD
BRANCH  15  16
ATOM     16  C   UNL     1      47.925   5.055  17.437  0.00  0.00    +0.000 C 
ATOM     17  C   UNL     1      49.087   4.417  18.220  0.00  0.00    +0.000 C 
ATOM     18  N   UNL     1      48.174   3.350  18.685  0.00  0.00    +0.000 NA
ATOM     19  C   UNL     1      47.247   3.676  17.580  0.00  0.00    +0.000 C 
ATOM     24  H   UNL     1      47.771   3.531  19.606  0.00  0.00    +0.000 HD
ENDBRANCH  15  16
ENDBRANCH  12  13
ENDBRANCH  11  12
TORSDOF 4
ENDMDL
MODEL 6
REMARK VINA RESULT:    -5.941      5.431      8.559
REMARK INTER + INTRA:          -7.907
REMARK INTER:                  -7.445
REMARK INTRA:                  -0.461
REMARK UNBOUND:                -0.577
REMARK  Name = 
REMARK  4 active torsions:
REMARK  status: ('A' for Active; 'I' for Inactive)
REMARK    1  A    between atoms: C_2  and  C_4
REMARK    2  A    between atoms: N_11  and  C_12
REMARK    3  A    between atoms: C_12  and  C_13
REMARK    4  A    between atoms: N_15  and  C_16
REMARK                            x       y       z     vdW  Elec       q    Type
REMARK                         _______ _______ _______ _____ _____    ______ ____
ROOT
ATOM      4  C   UNL     1      51.549   2.309  17.518  0.00  0.00    +0.000 A 
ATOM      5  C   UNL     1      50.412   1.727  16.962  0.00  0.00    +0.000 A 
ATOM      6  N   UNL     1      49.239   2.365  16.694  0.00  0.00    +0.000 NA
ATOM      7  C   UNL     1      49.293   3.686  16.969  0.00  0.00    +0.000 A 
ATOM      8  C   UNL     1      50.375   4.394  17.489  0.00  0.00    +0.000 A 
ATOM      9  C   UNL     1      49.977   5.754  17.587  0.00  0.00    +0.000 A 
ATOM     10  C   UNL     1      48.677   5.841  17.137  0.00  0.00    +0.000 A 
ATOM     11  N   UNL     1      48.268   4.580  16.777  0.00  0.00    +0.000 N 
ATOM     20  C   UNL     1      51.548   3.680  17.783  0.00  0.00    +0.000 A 
ENDROOT
BRANCH   4   2
ATOM      1  N   UNL     1      52.467   0.154  18.164  0.00  0.00    +0.000 N 
ATOM      2  C   UNL     1      52.718   1.451  17.802  0.00  0.00    +0.000 C 
ATOM      3  O   UNL     1      53.861   1.867  17.687  0.00  0.00    +0.000 OA
ATOM     21  H   UNL     1      53.271  -0.455  18.254  0.00  0.00    +0.000 HD
ATOM     22  H   UNL     1      51.566  -0.285  18.040  0.00  0.00    +0.000 HD
ENDBRANCH   4   2
BRANCH  11  12
ATOM     12  C   UNL     1      46.975   4.248  16.214  0.00  0.00    +0.000 C 
BRANCH  12  13
ATOM     13  C   UNL     1      46.976   4.287  14.703  0.00  0.00    +0.000 C 
ATOM     14  O   UNL     1      47.287   3.303  14.032  0.00  0.00    +0.000 OA
ATOM     15  N   UNL     1      46.552   5.469  14.129  0.00  0.00    +0.000 N 
ATOM     23  H   UNL     1      46.316   6.244  14.747  0.00  0.00    +0.000 HD
BRANCH  15  16
ATOM     16  C   UNL     1      46.374   5.578  12.662  0.00  0.00    +0.000 C 
ATOM     17  C   UNL     1      46.023   6.973  12.114  0.00  0.00    +0.000 C 
ATOM     18  N   UNL     1      44.960   6.367  11.283  0.00  0.00    +0.000 NA
ATOM     19  C   UNL     1      44.975   5.172  12.153  0.00  0.00    +0.000 C 
ATOM     24  H   UNL     1      45.256   6.165  10.326  0.00  0.00    +0.000 HD
ENDBRANCH  15  16
ENDBRANCH  12  13
ENDBRANCH  11  12
TORSDOF 4
ENDMDL
MODEL 7
REMARK VINA RESULT:    -5.897      3.469      7.359
REMARK INTER + INTRA:          -7.852
REMARK INTER:                  -7.403
REMARK INTRA:                  -0.449
REMARK UNBOUND:                -0.577
REMARK  Name = 
REMARK  4 active torsions:
REMARK  status: ('A' for Active; 'I' for Inactive)
REMARK    1  A    between atoms: C_2  and  C_4
REMARK    2  A    between atoms: N_11  and  C_12
REMARK    3  A    between atoms: C_12  and  C_13
REMARK    4  A    between atoms: N_15  and  C_16
REMARK                            x       y       z     vdW  Elec       q    Type
REMARK                         _______ _______ _______ _____ _____    ______ ____
ROOT
ATOM      4  C   UNL     1      47.676   4.537  16.390  0.00  0.00    +0.000 A 
ATOM      5  C   UNL     1      47.087   4.217  15.169  0.00  0.00    +0.000 A 
ATOM      6  N   UNL     1      47.150   4.965  14.033  0.00  0.00    +0.000 NA
ATOM      7  C   UNL     1      47.919   6.066  14.178  0.00  0.00    +0.000 A 
ATOM      8  C   UNL     1      48.591   6.477  15.328  0.00  0.00    +0.000 A 
ATOM      9  C   UNL     1      49.285   7.671  15.002  0.00  0.00    +0.000 A 
ATOM     10  C   UNL     1      49.018   7.961  13.681  0.00  0.00    +0.000 A 
ATOM     11  N   UNL     1      48.180   6.988  13.195  0.00  0.00    +0.000 N 
ATOM     20  C   UNL     1      48.461   5.689  16.483  0.00  0.00    +0.000 A 
ENDROOT
BRANCH   4   2
ATOM      1  N   UNL     1      48.204   3.865  18.664  0.00  0.00    +0.000 N 
ATOM      2  C   UNL     1      47.452   3.640  17.542  0.00  0.00    +0.000 C 
ATOM      3  O   UNL     1      46.611   2.754  17.511  0.00  0.00    +0.000 OA
ATOM     21  H   UNL     1      47.973   3.316  19.483  0.00  0.00    +0.000 HD
ATOM     22  H   UNL     1      48.727   4.717  18.811  0.00  0.00    +0.000 HD
ENDBRANCH   4   2
BRANCH  11  12
ATOM     12  C   UNL     1      47.695   6.905  11.832  0.00  0.00    +0.000 C 
BRANCH  12  13
ATOM     13  C   UNL     1      46.191   6.781  11.759  0.00  0.00    +0.000 C 
ATOM     14  O   UNL     1      45.453   7.746  11.961  0.00  0.00    +0.000 OA
ATOM     15  N   UNL     1      45.703   5.541  11.399  0.00  0.00    +0.000 N 
ATOM     23  H   UNL     1      46.373   4.787  11.254  0.00  0.00    +0.000 HD
BRANCH  15  16
ATOM     16  C   UNL     1      44.256   5.337  11.157  0.00  0.00    +0.000 C 
ATOM     17  C   UNL     1      43.431   4.793  12.338  0.00  0.00    +0.000 C 
ATOM     18  N   UNL     1      42.794   3.816  11.429  0.00  0.00    +0.000 NA
ATOM     19  C   UNL     1      43.903   4.001  10.469  0.00  0.00    +0.000 C 
ATOM     24  H   UNL     1      41.894   4.128  11.061  0.00  0.00    +0.000 HD
ENDBRANCH  15  16
ENDBRANCH  12  13
ENDBRANCH  11  12
TORSDOF 4
ENDMDL
MODEL 8
REMARK VINA RESULT:    -5.221      5.389      8.429
REMARK INTER + INTRA:          -7.018
REMARK INTER:                  -6.557
REMARK INTRA:                  -0.461
REMARK UNBOUND:                -0.577
REMARK  Name = 
REMARK  4 active torsions:
REMARK  status: ('A' for Active; 'I' for Inactive)
REMARK    1  A    between atoms: C_2  and  C_4
REMARK    2  A    between atoms: N_11  and  C_12
REMARK    3  A    between atoms: C_12  and  C_13
REMARK    4  A    between atoms: N_15  and  C_16
REMARK                            x       y       z     vdW  Elec       q    Type
REMARK                         _______ _______ _______ _____ _____    ______ ____
ROOT
ATOM      4  C   UNL     1      51.331   2.272  17.560  0.00  0.00    +0.000 A 
ATOM      5  C   UNL     1      51.748   3.597  17.466  0.00  0.00    +0.000 A 
ATOM      6  N   UNL     1      50.952   4.665  17.182  0.00  0.00    +0.000 NA
ATOM      7  C   UNL     1      49.651   4.324  17.055  0.00  0.00    +0.000 A 
ATOM      8  C   UNL     1      49.102   3.047  17.164  0.00  0.00    +0.000 A 
ATOM      9  C   UNL     1      47.700   3.178  16.979  0.00  0.00    +0.000 A 
ATOM     10  C   UNL     1      47.432   4.512  16.757  0.00  0.00    +0.000 A 
ATOM     11  N   UNL     1      48.623   5.195  16.793  0.00  0.00    +0.000 N 
ATOM     20  C   UNL     1      49.973   1.976  17.419  0.00  0.00    +0.000 A 
ENDROOT
BRANCH   4   2
ATOM      1  N   UNL     1      51.890   0.012  18.257  0.00  0.00    +0.000 N 
ATOM      2  C   UNL     1      52.344   1.227  17.814  0.00  0.00    +0.000 C 
ATOM      3  O   UNL     1      53.532   1.421  17.607  0.00  0.00    +0.000 OA
ATOM     21  H   UNL     1      52.576  -0.729  18.328  0.00  0.00    +0.000 HD
ATOM     22  H   UNL     1      50.918  -0.258  18.213  0.00  0.00    +0.000 HD
ENDBRANCH   4   2
BRANCH  11  12
ATOM     12  C   UNL     1      48.770   6.630  16.646  0.00  0.00    +0.000 C 
BRANCH  12  13
ATOM     13  C   UNL     1      48.781   7.064  15.199  0.00  0.00    +0.000 C 
ATOM     14  O   UNL     1      49.752   6.862  14.470  0.00  0.00    +0.000 OA
ATOM     15  N   UNL     1      47.618   7.645  14.733  0.00  0.00    +0.000 N 
ATOM     23  H   UNL     1      46.856   7.786  15.395  0.00  0.00    +0.000 HD
BRANCH  15  16
ATOM     16  C   UNL     1      47.459   7.980  13.299  0.00  0.00    +0.000 C 
ATOM     17  C   UNL     1      46.123   8.623  12.888  0.00  0.00    +0.000 C 
ATOM     18  N   UNL     1      46.038   7.690  11.743  0.00  0.00    +0.000 NA
ATOM     19  C   UNL     1      47.012   6.800  12.410  0.00  0.00    +0.000 C 
ATOM     24  H   UNL     1      46.393   8.083  10.870  0.00  0.00    +0.000 HD
ENDBRANCH  15  16
ENDBRANCH  12  13
ENDBRANCH  11  12
TORSDOF 4
ENDMDL
MODEL 9
REMARK VINA RESULT:    -4.906      4.432      6.013
REMARK INTER + INTRA:          -6.630
REMARK INTER:                  -5.982
REMARK INTRA:                  -0.648
REMARK UNBOUND:                -0.577
REMARK  Name = 
REMARK  4 active torsions:
REMARK  status: ('A' for Active; 'I' for Inactive)
REMARK    1  A    between atoms: C_2  and  C_4
REMARK    2  A    between atoms: N_11  and  C_12
REMARK    3  A    between atoms: C_12  and  C_13
REMARK    4  A    between atoms: N_15  and  C_16
REMARK                            x       y       z     vdW  Elec       q    Type
REMARK                         _______ _______ _______ _____ _____    ______ ____
ROOT
ATOM      4  C   UNL     1      46.501   5.149  13.085  0.00  0.00    +0.000 A 
ATOM      5  C   UNL     1      47.588   5.908  13.513  0.00  0.00    +0.000 A 
ATOM      6  N   UNL     1      47.768   7.239  13.292  0.00  0.00    +0.000 NA
ATOM      7  C   UNL     1      46.725   7.803  12.646  0.00  0.00    +0.000 A 
ATOM      8  C   UNL     1      45.567   7.167  12.201  0.00  0.00    +0.000 A 
ATOM      9  C   UNL     1      44.748   8.160  11.602  0.00  0.00    +0.000 A 
ATOM     10  C   UNL     1      45.419   9.361  11.688  0.00  0.00    +0.000 A 
ATOM     11  N   UNL     1      46.621   9.131  12.311  0.00  0.00    +0.000 N 
ATOM     20  C   UNL     1      45.451   5.785  12.421  0.00  0.00    +0.000 A 
ENDROOT
BRANCH   4   2
ATOM      1  N   UNL     1      45.575   2.938  12.690  0.00  0.00    +0.000 N 
ATOM      2  C   UNL     1      46.499   3.697  13.358  0.00  0.00    +0.000 C 
ATOM      3  O   UNL     1      47.305   3.186  14.121  0.00  0.00    +0.000 OA
ATOM     21  H   UNL     1      45.647   1.934  12.801  0.00  0.00    +0.000 HD
ATOM     22  H   UNL     1      45.062   3.279  11.890  0.00  0.00    +0.000 HD
ENDBRANCH   4   2
BRANCH  11  12
ATOM     12  C   UNL     1      47.605  10.145  12.632  0.00  0.00    +0.000 C 
BRANCH  12  13
ATOM     13  C   UNL     1      48.731  10.198  11.625  0.00  0.00    +0.000 C 
ATOM     14  O   UNL     1      48.682  10.936  10.641  0.00  0.00    +0.000 OA
ATOM     15  N   UNL     1      49.832   9.415  11.907  0.00  0.00    +0.000 N 
ATOM     23  H   UNL     1      49.799   8.824  12.736  0.00  0.00    +0.000 HD
BRANCH  15  16
ATOM     16  C   UNL     1      51.051   9.492  11.069  0.00  0.00    +0.000 C 
ATOM     17  C   UNL     1      51.969   8.256  11.075  0.00  0.00    +0.000 C 
ATOM     18  N   UNL     1      53.140   9.140  11.261  0.00  0.00    +0.000 NA
ATOM     19  C   UNL     1      52.242  10.214  11.735  0.00  0.00    +0.000 C 
ATOM     24  H   UNL     1      53.615   9.376  10.388  0.00  0.00    +0.000 HD
ENDBRANCH  15  16
ENDBRANCH  12  13
ENDBRANCH  11  12
TORSDOF 4
ENDMDL
