MODEL 1
REMARK VINA RESULT:    -7.822      0.000      0.000
REMARK INTER + INTRA:         -10.394
REMARK INTER:                  -9.879
REMARK INTRA:                  -0.515
REMARK UNBOUND:                -0.515
REMARK  Name = 
REMARK  5 active torsions:
REMARK  status: ('A' for Active; 'I' for Inactive)
REMARK    1  A    between atoms: N_1  and  C_2
REMARK    2  A    between atoms: C_2  and  C_3
REMARK    3  A    between atoms: C_6  and  C_7
REMARK    4  A    between atoms: C_7  and  N_8
REMARK    5  A    between atoms: C_13  and  C_14
REMARK                            x       y       z     vdW  Elec       q    Type
REMARK                         _______ _______ _______ _____ _____    ______ ____
ROOT
ATOM      8  N   UNL     1      44.795   5.272  10.913  0.00  0.00    +0.000 N 
ATOM      9  C   UNL     1      44.819   6.650  10.864  0.00  0.00    +0.000 A 
ATOM     10  C   UNL     1      45.544   7.111  11.941  0.00  0.00    +0.000 A 
ATOM     11  C   UNL     1      45.949   5.978  12.696  0.00  0.00    +0.000 A 
ATOM     12  C   UNL     1      46.651   5.796  13.898  0.00  0.00    +0.000 A 
ATOM     13  C   UNL     1      46.822   4.492  14.373  0.00  0.00    +0.000 A 
ATOM     17  C   UNL     1      46.305   3.447  13.609  0.00  0.00    +0.000 A 
ATOM     18  N   UNL     1      45.642   3.564  12.423  0.00  0.00    +0.000 NA
ATOM     19  C   UNL     1      45.479   4.846  12.032  0.00  0.00    +0.000 A 
ENDROOT
BRANCH  13  14
ATOM     14  C   UNL     1      47.510   4.180  15.646  0.00  0.00    +0.000 C 
ATOM     15  N   UNL     1      47.450   5.083  16.667  0.00  0.00    +0.000 N 
ATOM     16  O   UNL     1      48.131   3.125  15.794  0.00  0.00    +0.000 OA
ATOM     24  H   UNL     1      46.997   5.985  16.623  0.00  0.00    +0.000 HD
ATOM     25  H   UNL     1      47.945   4.855  17.518  0.00  0.00    +0.000 HD
ENDBRANCH  13  14
BRANCH   8   7
ATOM      7  C   UNL     1      44.067   4.417   9.978  0.00  0.00    +0.000 C 
BRANCH   7   6
ATOM      3  C   UNL     1      46.689   2.143   7.362  0.00  0.00    +0.000 A 
ATOM      4  C   UNL     1      45.918   1.489   8.328  0.00  0.00    +0.000 A 
ATOM      5  C   UNL     1      45.052   2.206   9.159  0.00  0.00    +0.000 A 
ATOM      6  C   UNL     1      44.960   3.603   9.069  0.00  0.00    +0.000 A 
ATOM     20  C   UNL     1      45.704   4.249   8.071  0.00  0.00    +0.000 A 
ATOM     21  C   UNL     1      46.559   3.531   7.227  0.00  0.00    +0.000 A 
BRANCH   3   2
ATOM      2  C   UNL     1      47.637   1.354   6.498  0.00  0.00    +0.000 C 
BRANCH   2   1
ATOM      1  N   UNL     1      48.536   2.235   5.768  0.00  0.00    +0.000 NA
ATOM     22  H   UNL     1      48.183   2.373   4.824  0.00  0.00    +0.000 HD
ATOM     23  H   UNL     1      49.446   1.784   5.682  0.00  0.00    +0.000 HD
ENDBRANCH   2   1
ENDBRANCH   3   2
ENDBRANCH   7   6
ENDBRANCH   8   7
TORSDOF 5
ENDMDL
MODEL 2
REMARK VINA RESULT:    -7.795      1.623      2.392
REMARK INTER + INTRA:         -10.361
REMARK INTER:                  -9.838
REMARK INTRA:                  -0.523
REMARK UNBOUND:                -0.515
REMARK  Name = 
REMARK  5 active torsions:
REMARK  status: ('A' for Active; 'I' for Inactive)
REMARK    1  A    between atoms: N_1  and  C_2
REMARK    2  A    between atoms: C_2  and  C_3
REMARK    3  A    between atoms: C_6  and  C_7
REMARK    4  A    between atoms: C_7  and  N_8
REMARK    5  A    between atoms: C_13  and  C_14
REMARK                            x       y       z     vdW  Elec       q    Type
REMARK                         _______ _______ _______ _____ _____    ______ ____
ROOT
ATOM      8  N   UNL     1      44.219   4.266  10.873  0.00  0.00    +0.000 N 
ATOM      9  C   UNL     1      43.602   3.426  11.775  0.00  0.00    +0.000 A 
ATOM     10  C   UNL     1      44.129   3.667  13.025  0.00  0.00    +0.000 A 
ATOM     11  C   UNL     1      45.128   4.665  12.879  0.00  0.00    +0.000 A 
ATOM     12  C   UNL     1      46.036   5.286  13.752  0.00  0.00    +0.000 A 
ATOM     13  C   UNL     1      46.933   6.217  13.221  0.00  0.00    +0.000 A 
ATOM     17  C   UNL     1      46.856   6.493  11.857  0.00  0.00    +0.000 A 
ATOM     18  N   UNL     1      45.978   5.942  10.970  0.00  0.00    +0.000 NA
ATOM     19  C   UNL     1      45.160   5.028  11.533  0.00  0.00    +0.000 A 
ENDROOT
BRANCH  13  14
ATOM     14  C   UNL     1      47.959   6.906  14.037  0.00  0.00    +0.000 C 
ATOM     15  N   UNL     1      47.652   8.106  14.609  0.00  0.00    +0.000 N 
ATOM     16  O   UNL     1      49.077   6.414  14.203  0.00  0.00    +0.000 OA
ATOM     24  H   UNL     1      46.777   8.599  14.497  0.00  0.00    +0.000 HD
ATOM     25  H   UNL     1      48.377   8.564  15.143  0.00  0.00    +0.000 HD
ENDBRANCH  13  14
BRANCH   8   7
ATOM      7  C   UNL     1      43.978   4.264   9.432  0.00  0.00    +0.000 C 
BRANCH   7   6
ATOM      3  C   UNL     1      46.897   1.989   7.153  0.00  0.00    +0.000 A 
ATOM      4  C   UNL     1      46.745   3.361   6.932  0.00  0.00    +0.000 A 
ATOM      5  C   UNL     1      45.828   4.109   7.676  0.00  0.00    +0.000 A 
ATOM      6  C   UNL     1      45.011   3.496   8.638  0.00  0.00    +0.000 A 
ATOM     20  C   UNL     1      45.198   2.128   8.885  0.00  0.00    +0.000 A 
ATOM     21  C   UNL     1      46.127   1.381   8.153  0.00  0.00    +0.000 A 
BRANCH   3   2
ATOM      2  C   UNL     1      47.871   1.198   6.320  0.00  0.00    +0.000 C 
BRANCH   2   1
ATOM      1  N   UNL     1      48.352   1.981   5.192  0.00  0.00    +0.000 NA
ATOM     22  H   UNL     1      47.589   2.138   4.538  0.00  0.00    +0.000 HD
ATOM     23  H   UNL     1      49.064   1.447   4.697  0.00  0.00    +0.000 HD
ENDBRANCH   2   1
ENDBRANCH   3   2
ENDBRANCH   7   6
ENDBRANCH   8   7
TORSDOF 5
ENDMDL
MODEL 3
REMARK VINA RESULT:    -7.165      2.943      4.036
REMARK INTER + INTRA:          -9.565
REMARK INTER:                  -8.993
REMARK INTRA:                  -0.572
REMARK UNBOUND:                -0.515
REMARK  Name = 
REMARK  5 active torsions:
REMARK  status: ('A' for Active; 'I' for Inactive)
REMARK    1  A    between atoms: N_1  and  C_2
REMARK    2  A    between atoms: C_2  and  C_3
REMARK    3  A    between atoms: C_6  and  C_7
REMARK    4  A    between atoms: C_7  and  N_8
REMARK    5  A    between atoms: C_13  and  C_14
REMARK                            x       y       z     vdW  Elec       q    Type
REMARK                         _______ _______ _______ _____ _____    ______ ____
ROOT
ATOM      8  N   UNL     1      44.891   5.289  11.701  0.00  0.00    +0.000 N 
ATOM      9  C   UNL     1      45.890   4.852  12.545  0.00  0.00    +0.000 A 
ATOM     10  C   UNL     1      46.482   5.952  13.126  0.00  0.00    +0.000 A 
ATOM     11  C   UNL     1      45.846   7.106  12.594  0.00  0.00    +0.000 A 
ATOM     12  C   UNL     1      46.027   8.490  12.748  0.00  0.00    +0.000 A 
ATOM     13  C   UNL     1      45.219   9.349  11.999  0.00  0.00    +0.000 A 
ATOM     17  C   UNL     1      44.261   8.780  11.161  0.00  0.00    +0.000 A 
ATOM     18  N   UNL     1      44.023   7.448  10.995  0.00  0.00    +0.000 NA
ATOM     19  C   UNL     1      44.854   6.667  11.717  0.00  0.00    +0.000 A 
ENDROOT
BRANCH  13  14
ATOM     14  C   UNL     1      45.345  10.824  12.049  0.00  0.00    +0.000 C 
ATOM     15  N   UNL     1      46.573  11.374  12.274  0.00  0.00    +0.000 N 
ATOM     16  O   UNL     1      44.364  11.554  11.891  0.00  0.00    +0.000 OA
ATOM     24  H   UNL     1      47.422  10.855  12.450  0.00  0.00    +0.000 HD
ATOM     25  H   UNL     1      46.628  12.381  12.324  0.00  0.00    +0.000 HD
ENDBRANCH  13  14
BRANCH   8   7
ATOM      7  C   UNL     1      44.078   4.421  10.853  0.00  0.00    +0.000 C 
BRANCH   7   6
ATOM      3  C   UNL     1      46.353   2.591   7.632  0.00  0.00    +0.000 A 
ATOM      4  C   UNL     1      45.690   1.792   8.569  0.00  0.00    +0.000 A 
ATOM      5  C   UNL     1      44.934   2.368   9.594  0.00  0.00    +0.000 A 
ATOM      6  C   UNL     1      44.850   3.761   9.731  0.00  0.00    +0.000 A 
ATOM     20  C   UNL     1      45.483   4.557   8.765  0.00  0.00    +0.000 A 
ATOM     21  C   UNL     1      46.226   3.983   7.728  0.00  0.00    +0.000 A 
BRANCH   3   2
ATOM      2  C   UNL     1      47.185   1.950   6.554  0.00  0.00    +0.000 C 
BRANCH   2   1
ATOM      1  N   UNL     1      48.520   2.528   6.509  0.00  0.00    +0.000 NA
ATOM     22  H   UNL     1      48.728   2.827   5.560  0.00  0.00    +0.000 HD
ATOM     23  H   UNL     1      49.201   1.809   6.751  0.00  0.00    +0.000 HD
ENDBRANCH   2   1
ENDBRANCH   3   2
ENDBRANCH   7   6
ENDBRANCH   8   7
TORSDOF 5
ENDMDL
MODEL 4
REMARK VINA RESULT:    -7.137      2.884      7.019
REMARK INTER + INTRA:          -9.530
REMARK INTER:                  -9.113
REMARK INTRA:                  -0.417
REMARK UNBOUND:                -0.515
REMARK  Name = 
REMARK  5 active torsions:
REMARK  status: ('A' for Active; 'I' for Inactive)
REMARK    1  A    between atoms: N_1  and  C_2
REMARK    2  A    between atoms: C_2  and  C_3
REMARK    3  A    between atoms: C_6  and  C_7
REMARK    4  A    between atoms: C_7  and  N_8
REMARK    5  A    between atoms: C_13  and  C_14
REMARK                            x       y       z     vdW  Elec       q    Type
REMARK                         _______ _______ _______ _____ _____    ______ ____
ROOT
ATOM      8  N   UNL     1      44.252   4.632  10.502  0.00  0.00    +0.000 N 
ATOM      9  C   UNL     1      43.628   3.524  11.036  0.00  0.00    +0.000 A 
ATOM     10  C   UNL     1      44.060   2.409  10.352  0.00  0.00    +0.000 A 
ATOM     11  C   UNL     1      44.954   2.852   9.341  0.00  0.00    +0.000 A 
ATOM     12  C   UNL     1      45.669   2.218   8.312  0.00  0.00    +0.000 A 
ATOM     13  C   UNL     1      46.434   3.011   7.452  0.00  0.00    +0.000 A 
ATOM     17  C   UNL     1      46.461   4.386   7.684  0.00  0.00    +0.000 A 
ATOM     18  N   UNL     1      45.811   5.049   8.683  0.00  0.00    +0.000 NA
ATOM     19  C   UNL     1      45.064   4.237   9.460  0.00  0.00    +0.000 A 
ENDROOT
BRANCH  13  14
ATOM     14  C   UNL     1      47.197   2.460   6.309  0.00  0.00    +0.000 C 
ATOM     15  N   UNL     1      48.508   2.126   6.491  0.00  0.00    +0.000 N 
ATOM     16  O   UNL     1      46.670   2.302   5.207  0.00  0.00    +0.000 OA
ATOM     24  H   UNL     1      49.030   2.255   7.346  0.00  0.00    +0.000 HD
ATOM     25  H   UNL     1      49.011   1.771   5.690  0.00  0.00    +0.000 HD
ENDBRANCH  13  14
BRANCH   8   7
ATOM      7  C   UNL     1      44.002   6.010  10.917  0.00  0.00    +0.000 C 
BRANCH   7   6
ATOM      3  C   UNL     1      47.083   7.755  13.438  0.00  0.00    +0.000 A 
ATOM      4  C   UNL     1      47.084   6.383  13.172  0.00  0.00    +0.000 A 
ATOM      5  C   UNL     1      46.114   5.812  12.342  0.00  0.00    +0.000 A 
ATOM      6  C   UNL     1      45.094   6.597  11.784  0.00  0.00    +0.000 A 
ATOM     20  C   UNL     1      45.122   7.979  12.020  0.00  0.00    +0.000 A 
ATOM     21  C   UNL     1      46.102   8.554  12.837  0.00  0.00    +0.000 A 
BRANCH   3   2
ATOM      2  C   UNL     1      48.120   8.342  14.358  0.00  0.00    +0.000 C 
BRANCH   2   1
ATOM      1  N   UNL     1      47.498   9.103  15.432  0.00  0.00    +0.000 NA
ATOM     22  H   UNL     1      47.662   8.634  16.319  0.00  0.00    +0.000 HD
ATOM     23  H   UNL     1      46.490   9.119  15.285  0.00  0.00    +0.000 HD
ENDBRANCH   2   1
ENDBRANCH   3   2
ENDBRANCH   7   6
ENDBRANCH   8   7
TORSDOF 5
ENDMDL
MODEL 5
REMARK VINA RESULT:    -6.448      3.193      7.503
REMARK INTER + INTRA:          -8.660
REMARK INTER:                  -8.244
REMARK INTRA:                  -0.415
REMARK UNBOUND:                -0.515
REMARK  Name = 
REMARK  5 active torsions:
REMARK  status: ('A' for Active; 'I' for Inactive)
REMARK    1  A    between atoms: N_1  and  C_2
REMARK    2  A    between atoms: C_2  and  C_3
REMARK    3  A    between atoms: C_6  and  C_7
REMARK    4  A    between atoms: C_7  and  N_8
REMARK    5  A    between atoms: C_13  and  C_14
REMARK                            x       y       z     vdW  Elec       q    Type
REMARK                         _______ _______ _______ _____ _____    ______ ____
ROOT
ATOM      8  N   UNL     1      47.308   5.273  15.094  0.00  0.00    +0.000 N 
ATOM      9  C   UNL     1      48.293   6.184  14.778  0.00  0.00    +0.000 A 
ATOM     10  C   UNL     1      48.096   6.605  13.481  0.00  0.00    +0.000 A 
ATOM     11  C   UNL     1      46.972   5.902  12.973  0.00  0.00    +0.000 A 
ATOM     12  C   UNL     1      46.320   5.853  11.730  0.00  0.00    +0.000 A 
ATOM     13  C   UNL     1      45.241   4.976  11.584  0.00  0.00    +0.000 A 
ATOM     17  C   UNL     1      44.861   4.218  12.691  0.00  0.00    +0.000 A 
ATOM     18  N   UNL     1      45.440   4.246  13.925  0.00  0.00    +0.000 NA
ATOM     19  C   UNL     1      46.494   5.086  13.998  0.00  0.00    +0.000 A 
ENDROOT
BRANCH  13  14
ATOM     14  C   UNL     1      44.502   4.810  10.311  0.00  0.00    +0.000 C 
ATOM     15  N   UNL     1      45.207   4.676   9.151  0.00  0.00    +0.000 N 
ATOM     16  O   UNL     1      43.270   4.793  10.287  0.00  0.00    +0.000 OA
ATOM     24  H   UNL     1      46.214   4.715   9.072  0.00  0.00    +0.000 HD
ATOM     25  H   UNL     1      44.679   4.585   8.295  0.00  0.00    +0.000 HD
ENDBRANCH  13  14
BRANCH   8   7
ATOM      7  C   UNL     1      47.217   4.550  16.361  0.00  0.00    +0.000 C 
BRANCH   7   6
ATOM      3  C   UNL     1      50.802   2.281  17.307  0.00  0.00    +0.000 A 
ATOM      4  C   UNL     1      50.662   3.597  17.758  0.00  0.00    +0.000 A 
ATOM      5  C   UNL     1      49.503   4.330  17.482  0.00  0.00    +0.000 A 
ATOM      6  C   UNL     1      48.467   3.775  16.716  0.00  0.00    +0.000 A 
ATOM     20  C   UNL     1      48.594   2.441  16.303  0.00  0.00    +0.000 A 
ATOM     21  C   UNL     1      49.746   1.701  16.592  0.00  0.00    +0.000 A 
BRANCH   3   2
ATOM      2  C   UNL     1      52.070   1.522  17.591  0.00  0.00    +0.000 C 
BRANCH   2   1
ATOM      1  N   UNL     1      51.780   0.200  18.129  0.00  0.00    +0.000 NA
ATOM     22  H   UNL     1      51.283   0.295  19.011  0.00  0.00    +0.000 HD
ATOM     23  H   UNL     1      52.658  -0.275  18.331  0.00  0.00    +0.000 HD
ENDBRANCH   2   1
ENDBRANCH   3   2
ENDBRANCH   7   6
ENDBRANCH   8   7
TORSDOF 5
ENDMDL
MODEL 6
REMARK VINA RESULT:    -5.983      1.920      2.923
REMARK INTER + INTRA:          -8.073
REMARK INTER:                  -8.075
REMARK INTRA:                   0.002
REMARK UNBOUND:                -0.515
REMARK  Name = 
REMARK  5 active torsions:
REMARK  status: ('A' for Active; 'I' for Inactive)
REMARK    1  A    between atoms: N_1  and  C_2
REMARK    2  A    between atoms: C_2  and  C_3
REMARK    3  A    between atoms: C_6  and  C_7
REMARK    4  A    between atoms: C_7  and  N_8
REMARK    5  A    between atoms: C_13  and  C_14
REMARK                            x       y       z     vdW  Elec       q    Type
REMARK                         _______ _______ _______ _____ _____    ______ ____
ROOT
ATOM      8  N   UNL     1      46.245   5.472  13.489  0.00  0.00    +0.000 N 
ATOM      9  C   UNL     1      46.845   6.622  13.020  0.00  0.00    +0.000 A 
ATOM     10  C   UNL     1      47.921   6.911  13.829  0.00  0.00    +0.000 A 
ATOM     11  C   UNL     1      47.964   5.924  14.849  0.00  0.00    +0.000 A 
ATOM     12  C   UNL     1      48.774   5.705  15.975  0.00  0.00    +0.000 A 
ATOM     13  C   UNL     1      48.473   4.620  16.804  0.00  0.00    +0.000 A 
ATOM     17  C   UNL     1      47.399   3.805  16.449  0.00  0.00    +0.000 A 
ATOM     18  N   UNL     1      46.599   3.955  15.355  0.00  0.00    +0.000 NA
ATOM     19  C   UNL     1      46.916   5.035  14.611  0.00  0.00    +0.000 A 
ENDROOT
BRANCH  13  14
ATOM     14  C   UNL     1      49.232   4.313  18.039  0.00  0.00    +0.000 C 
ATOM     15  N   UNL     1      50.261   3.420  17.976  0.00  0.00    +0.000 N 
ATOM     16  O   UNL     1      48.947   4.848  19.112  0.00  0.00    +0.000 OA
ATOM     24  H   UNL     1      50.540   2.908  17.150  0.00  0.00    +0.000 HD
ATOM     25  H   UNL     1      50.749   3.213  18.836  0.00  0.00    +0.000 HD
ENDBRANCH  13  14
BRANCH   8   7
ATOM      7  C   UNL     1      45.029   4.881  12.934  0.00  0.00    +0.000 C 
BRANCH   7   6
ATOM      3  C   UNL     1      45.431   3.814   8.740  0.00  0.00    +0.000 A 
ATOM      4  C   UNL     1      45.030   2.856   9.675  0.00  0.00    +0.000 A 
ATOM      5  C   UNL     1      44.872   3.191  11.023  0.00  0.00    +0.000 A 
ATOM      6  C   UNL     1      45.147   4.490  11.477  0.00  0.00    +0.000 A 
ATOM     20  C   UNL     1      45.509   5.457  10.529  0.00  0.00    +0.000 A 
ATOM     21  C   UNL     1      45.650   5.127   9.176  0.00  0.00    +0.000 A 
BRANCH   3   2
ATOM      2  C   UNL     1      45.622   3.422   7.298  0.00  0.00    +0.000 C 
BRANCH   2   1
ATOM      1  N   UNL     1      46.763   4.113   6.715  0.00  0.00    +0.000 NA
ATOM     22  H   UNL     1      46.568   4.326   5.740  0.00  0.00    +0.000 HD
ATOM     23  H   UNL     1      47.569   3.491   6.728  0.00  0.00    +0.000 HD
ENDBRANCH   2   1
ENDBRANCH   3   2
ENDBRANCH   7   6
ENDBRANCH   8   7
TORSDOF 5
ENDMDL
MODEL 7
REMARK VINA RESULT:    -5.765      4.364      5.756
REMARK INTER + INTRA:          -7.797
REMARK INTER:                  -7.247
REMARK INTRA:                  -0.550
REMARK UNBOUND:                -0.515
REMARK  Name = 
REMARK  5 active torsions:
REMARK  status: ('A' for Active; 'I' for Inactive)
REMARK    1  A    between atoms: N_1  and  C_2
REMARK    2  A    between atoms: C_2  and  C_3
REMARK    3  A    between atoms: C_6  and  C_7
REMARK    4  A    between atoms: C_7  and  N_8
REMARK    5  A    between atoms: C_13  and  C_14
REMARK                            x       y       z     vdW  Elec       q    Type
REMARK                         _______ _______ _______ _____ _____    ______ ____
ROOT
ATOM      8  N   UNL     1      48.574   7.023  14.652  0.00  0.00    +0.000 N 
ATOM      9  C   UNL     1      48.661   8.382  14.871  0.00  0.00    +0.000 A 
ATOM     10  C   UNL     1      48.786   8.596  16.226  0.00  0.00    +0.000 A 
ATOM     11  C   UNL     1      48.741   7.328  16.863  0.00  0.00    +0.000 A 
ATOM     12  C   UNL     1      48.766   6.895  18.199  0.00  0.00    +0.000 A 
ATOM     13  C   UNL     1      48.646   5.525  18.452  0.00  0.00    +0.000 A 
ATOM     17  C   UNL     1      48.532   4.667  17.359  0.00  0.00    +0.000 A 
ATOM     18  N   UNL     1      48.531   5.030  16.044  0.00  0.00    +0.000 NA
ATOM     19  C   UNL     1      48.617   6.365  15.863  0.00  0.00    +0.000 A 
ENDROOT
BRANCH  13  14
ATOM     14  C   UNL     1      48.620   4.956  19.819  0.00  0.00    +0.000 C 
ATOM     15  N   UNL     1      48.551   3.601  19.968  0.00  0.00    +0.000 N 
ATOM     16  O   UNL     1      48.659   5.683  20.814  0.00  0.00    +0.000 OA
ATOM     24  H   UNL     1      48.479   2.934  19.213  0.00  0.00    +0.000 HD
ATOM     25  H   UNL     1      48.514   3.240  20.911  0.00  0.00    +0.000 HD
ENDBRANCH  13  14
BRANCH   8   7
ATOM      7  C   UNL     1      48.365   6.401  13.347  0.00  0.00    +0.000 C 
BRANCH   7   6
ATOM      3  C   UNL     1      44.218   5.454  12.453  0.00  0.00    +0.000 A 
ATOM      4  C   UNL     1      45.079   4.463  12.933  0.00  0.00    +0.000 A 
ATOM      5  C   UNL     1      46.409   4.760  13.248  0.00  0.00    +0.000 A 
ATOM      6  C   UNL     1      46.922   6.051  13.058  0.00  0.00    +0.000 A 
ATOM     20  C   UNL     1      46.043   7.051  12.616  0.00  0.00    +0.000 A 
ATOM     21  C   UNL     1      44.708   6.760  12.316  0.00  0.00    +0.000 A 
BRANCH   3   2
ATOM      2  C   UNL     1      42.799   5.105  12.093  0.00  0.00    +0.000 C 
BRANCH   2   1
ATOM      1  N   UNL     1      42.025   6.301  11.792  0.00  0.00    +0.000 NA
ATOM     22  H   UNL     1      41.034   6.078  11.811  0.00  0.00    +0.000 HD
ATOM     23  H   UNL     1      42.243   6.607  10.845  0.00  0.00    +0.000 HD
ENDBRANCH   2   1
ENDBRANCH   3   2
ENDBRANCH   7   6
ENDBRANCH   8   7
TORSDOF 5
ENDMDL
MODEL 8
REMARK VINA RESULT:    -5.696      3.775      8.051
REMARK INTER + INTRA:          -7.709
REMARK INTER:                  -7.194
REMARK INTRA:                  -0.516
REMARK UNBOUND:                -0.515
REMARK  Name = 
REMARK  5 active torsions:
REMARK  status: ('A' for Active; 'I' for Inactive)
REMARK    1  A    between atoms: N_1  and  C_2
REMARK    2  A    between atoms: C_2  and  C_3
REMARK    3  A    between atoms: C_6  and  C_7
REMARK    4  A    between atoms: C_7  and  N_8
REMARK    5  A    between atoms: C_13  and  C_14
REMARK                            x       y       z     vdW  Elec       q    Type
REMARK                         _______ _______ _______ _____ _____    ______ ____
ROOT
ATOM      8  N   UNL     1      48.078   7.080  14.177  0.00  0.00    +0.000 N 
ATOM      9  C   UNL     1      47.679   8.320  13.723  0.00  0.00    +0.000 A 
ATOM     10  C   UNL     1      46.534   8.160  12.973  0.00  0.00    +0.000 A 
ATOM     11  C   UNL     1      46.240   6.771  12.939  0.00  0.00    +0.000 A 
ATOM     12  C   UNL     1      45.257   5.988  12.312  0.00  0.00    +0.000 A 
ATOM     13  C   UNL     1      45.317   4.600  12.472  0.00  0.00    +0.000 A 
ATOM     17  C   UNL     1      46.337   4.078  13.266  0.00  0.00    +0.000 A 
ATOM     18  N   UNL     1      47.298   4.792  13.919  0.00  0.00    +0.000 NA
ATOM     19  C   UNL     1      47.209   6.121  13.702  0.00  0.00    +0.000 A 
ENDROOT
BRANCH  13  14
ATOM     14  C   UNL     1      44.359   3.671  11.829  0.00  0.00    +0.000 C 
ATOM     15  N   UNL     1      44.114   2.465  12.417  0.00  0.00    +0.000 N 
ATOM     16  O   UNL     1      43.788   3.971  10.778  0.00  0.00    +0.000 OA
ATOM     24  H   UNL     1      44.563   2.122  13.255  0.00  0.00    +0.000 HD
ATOM     25  H   UNL     1      43.473   1.842  11.946  0.00  0.00    +0.000 HD
ENDBRANCH  13  14
BRANCH   8   7
ATOM      7  C   UNL     1      49.291   6.828  14.953  0.00  0.00    +0.000 C 
BRANCH   7   6
ATOM      3  C   UNL     1      48.475   5.775  19.090  0.00  0.00    +0.000 A 
ATOM      4  C   UNL     1      48.952   4.810  18.198  0.00  0.00    +0.000 A 
ATOM      5  C   UNL     1      49.242   5.141  16.871  0.00  0.00    +0.000 A 
ATOM      6  C   UNL     1      49.029   6.442  16.392  0.00  0.00    +0.000 A 
ATOM     20  C   UNL     1      48.590   7.415  17.300  0.00  0.00    +0.000 A 
ATOM     21  C   UNL     1      48.316   7.090  18.633  0.00  0.00    +0.000 A 
BRANCH   3   2
ATOM      2  C   UNL     1      48.142   5.389  20.506  0.00  0.00    +0.000 C 
BRANCH   2   1
ATOM      1  N   UNL     1      48.452   3.988  20.754  0.00  0.00    +0.000 NA
ATOM     22  H   UNL     1      47.790   3.401  20.253  0.00  0.00    +0.000 HD
ATOM     23  H   UNL     1      48.332   3.792  21.747  0.00  0.00    +0.000 HD
ENDBRANCH   2   1
ENDBRANCH   3   2
ENDBRANCH   7   6
ENDBRANCH   8   7
TORSDOF 5
ENDMDL
MODEL 9
REMARK VINA RESULT:    -5.649      4.371      6.450
REMARK INTER + INTRA:          -7.650
REMARK INTER:                  -7.261
REMARK INTRA:                  -0.388
REMARK UNBOUND:                -0.515
REMARK  Name = 
REMARK  5 active torsions:
REMARK  status: ('A' for Active; 'I' for Inactive)
REMARK    1  A    between atoms: N_1  and  C_2
REMARK    2  A    between atoms: C_2  and  C_3
REMARK    3  A    between atoms: C_6  and  C_7
REMARK    4  A    between atoms: C_7  and  N_8
REMARK    5  A    between atoms: C_13  and  C_14
REMARK                            x       y       z     vdW  Elec       q    Type
REMARK                         _______ _______ _______ _____ _____    ______ ____
ROOT
ATOM      8  N   UNL     1      47.272   7.053  12.719  0.00  0.00    +0.000 N 
ATOM      9  C   UNL     1      47.728   6.573  13.928  0.00  0.00    +0.000 A 
ATOM     10  C   UNL     1      47.249   5.292  14.096  0.00  0.00    +0.000 A 
ATOM     11  C   UNL     1      46.444   4.989  12.966  0.00  0.00    +0.000 A 
ATOM     12  C   UNL     1      45.659   3.890  12.582  0.00  0.00    +0.000 A 
ATOM     13  C   UNL     1      44.944   3.974  11.384  0.00  0.00    +0.000 A 
ATOM     17  C   UNL     1      45.072   5.138  10.628  0.00  0.00    +0.000 A 
ATOM     18  N   UNL     1      45.840   6.222  10.938  0.00  0.00    +0.000 NA
ATOM     19  C   UNL     1      46.481   6.097  12.120  0.00  0.00    +0.000 A 
ENDROOT
BRANCH  13  14
ATOM     14  C   UNL     1      44.054   2.895  10.897  0.00  0.00    +0.000 C 
ATOM     15  N   UNL     1      44.467   2.121   9.852  0.00  0.00    +0.000 N 
ATOM     16  O   UNL     1      42.956   2.689  11.418  0.00  0.00    +0.000 OA
ATOM     24  H   UNL     1      45.331   2.241   9.342  0.00  0.00    +0.000 HD
ATOM     25  H   UNL     1      43.832   1.406   9.526  0.00  0.00    +0.000 HD
ENDBRANCH  13  14
BRANCH   8   7
ATOM      7  C   UNL     1      47.513   8.403  12.214  0.00  0.00    +0.000 C 
BRANCH   7   6
ATOM      3  C   UNL     1      51.577   9.132  10.854  0.00  0.00    +0.000 A 
ATOM      4  C   UNL     1      51.113   7.823  11.017  0.00  0.00    +0.000 A 
ATOM      5  C   UNL     1      49.800   7.574  11.430  0.00  0.00    +0.000 A 
ATOM      6  C   UNL     1      48.926   8.631  11.724  0.00  0.00    +0.000 A 
ATOM     20  C   UNL     1      49.384   9.941  11.518  0.00  0.00    +0.000 A 
ATOM     21  C   UNL     1      50.692  10.192  11.089  0.00  0.00    +0.000 A 
BRANCH   3   2
ATOM      2  C   UNL     1      53.003   9.376  10.437  0.00  0.00    +0.000 C 
BRANCH   2   1
ATOM      1  N   UNL     1      53.931   8.658  11.299  0.00  0.00    +0.000 NA
ATOM     22  H   UNL     1      54.744   9.240  11.480  0.00  0.00    +0.000 HD
ATOM     23  H   UNL     1      54.261   7.827  10.811  0.00  0.00    +0.000 HD
ENDBRANCH   2   1
ENDBRANCH   3   2
ENDBRANCH   7   6
ENDBRANCH   8   7
TORSDOF 5
ENDMDL
