MODEL 1
REMARK VINA RESULT:    -7.649      0.000      0.000
REMARK INTER + INTRA:         -14.173
REMARK INTER:                 -12.121
REMARK INTRA:                  -2.052
REMARK UNBOUND:                -2.052
REMARK  Name = 
REMARK  11 active torsions:
REMARK  status: ('A' for Active; 'I' for Inactive)
REMARK    1  A    between atoms: C_1  and  C_2
REMARK    2  A    between atoms: C_2  and  C_3
REMARK    3  A    between atoms: C_3  and  O_4
REMARK    4  A    between atoms: O_4  and  C_5
REMARK    5  A    between atoms: C_12  and  C_13
REMARK    6  A    between atoms: N_15  and  C_16
REMARK    7  A    between atoms: C_16  and  C_17
REMARK    8  A    between atoms: C_20  and  C_21
REMARK    9  A    between atoms: C_21  and  N_22
REMARK   10  A    between atoms: N_22  and  C_23
REMARK   11  A    between atoms: C_23  and  C_24
REMARK                            x       y       z     vdW  Elec       q    Type
REMARK                         _______ _______ _______ _____ _____    ______ ____
ROOT
ATOM     13  C   UNL     1      48.815   6.984  14.758  0.00  0.00    +0.000 C 
ATOM     14  O   UNL     1      49.688   6.961  13.892  0.00  0.00    +0.000 OA
ATOM     15  N   UNL     1      47.653   7.682  14.567  0.00  0.00    +0.000 N 
ATOM     33  H   UNL     1      46.955   7.724  15.299  0.00  0.00    +0.000 HD
ENDROOT
BRANCH  13  12
ATOM      5  C   UNL     1      47.236   4.239  16.129  0.00  0.00    +0.000 A 
ATOM      6  N   UNL     1      46.889   3.137  16.823  0.00  0.00    +0.000 NA
ATOM      7  C   UNL     1      47.548   2.871  17.953  0.00  0.00    +0.000 A 
ATOM      8  N   UNL     1      48.529   3.589  18.496  0.00  0.00    +0.000 NA
ATOM      9  C   UNL     1      48.864   4.659  17.758  0.00  0.00    +0.000 A 
ATOM     10  S   UNL     1      50.091   5.698  18.302  0.00  0.00    +0.000 S 
ATOM     11  C   UNL     1      49.942   6.675  16.922  0.00  0.00    +0.000 A 
ATOM     12  C   UNL     1      48.978   6.240  16.019  0.00  0.00    +0.000 A 
ATOM     32  C   UNL     1      48.302   5.055  16.547  0.00  0.00    +0.000 A 
BRANCH   5   4
ATOM      4  O   UNL     1      46.536   4.553  14.987  0.00  0.00    +0.000 OA
BRANCH   4   3
ATOM      3  C   UNL     1      47.040   3.988  13.772  0.00  0.00    +0.000 C 
BRANCH   3   2
ATOM      1  C   UNL     1      44.544   3.900  13.406  0.00  0.00    +0.000 C 
ATOM      2  C   UNL     1      45.892   3.309  13.036  0.00  0.00    +0.000 C 
ENDBRANCH   3   2
ENDBRANCH   4   3
ENDBRANCH   5   4
ENDBRANCH  13  12
BRANCH  15  16
ATOM     16  C   UNL     1      47.398   8.415  13.348  0.00  0.00    +0.000 C 
BRANCH  16  17
ATOM     17  C   UNL     1      46.475   7.647  12.436  0.00  0.00    +0.000 A 
ATOM     18  C   UNL     1      45.085   7.776  12.558  0.00  0.00    +0.000 A 
ATOM     19  C   UNL     1      44.226   6.998  11.778  0.00  0.00    +0.000 A 
ATOM     20  C   UNL     1      44.734   6.069  10.857  0.00  0.00    +0.000 A 
ATOM     30  C   UNL     1      46.125   5.962  10.715  0.00  0.00    +0.000 A 
ATOM     31  C   UNL     1      46.985   6.738  11.499  0.00  0.00    +0.000 A 
BRANCH  20  21
ATOM     21  C   UNL     1      43.804   5.151  10.095  0.00  0.00    +0.000 C 
BRANCH  21  22
ATOM     22  N   UNL     1      44.448   4.587   8.911  0.00  0.00    +0.000 NA
ATOM     34  H   UNL     1      45.367   5.010   8.796  0.00  0.00    +0.000 HD
BRANCH  22  23
ATOM     23  C   UNL     1      44.602   3.138   9.030  0.00  0.00    +0.000 C 
BRANCH  23  24
ATOM     24  C   UNL     1      45.646   2.620   8.064  0.00  0.00    +0.000 A 
ATOM     25  C   UNL     1      46.199   1.342   8.214  0.00  0.00    +0.000 A 
ATOM     26  C   UNL     1      47.150   0.867   7.307  0.00  0.00    +0.000 A 
ATOM     27  C   UNL     1      47.553   1.666   6.238  0.00  0.00    +0.000 A 
ATOM     28  C   UNL     1      47.010   2.939   6.075  0.00  0.00    +0.000 A 
ATOM     29  C   UNL     1      46.060   3.413   6.982  0.00  0.00    +0.000 A 
ENDBRANCH  23  24
ENDBRANCH  22  23
ENDBRANCH  21  22
ENDBRANCH  20  21
ENDBRANCH  16  17
ENDBRANCH  15  16
TORSDOF 10
ENDMDL
MODEL 2
REMARK VINA RESULT:    -7.594      2.128      2.839
REMARK INTER + INTRA:         -14.085
REMARK INTER:                 -12.331
REMARK INTRA:                  -1.754
REMARK UNBOUND:                -2.052
REMARK  Name = 
REMARK  11 active torsions:
REMARK  status: ('A' for Active; 'I' for Inactive)
REMARK    1  A    between atoms: C_1  and  C_2
REMARK    2  A    between atoms: C_2  and  C_3
REMARK    3  A    between atoms: C_3  and  O_4
REMARK    4  A    between atoms: O_4  and  C_5
REMARK    5  A    between atoms: C_12  and  C_13
REMARK    6  A    between atoms: N_15  and  C_16
REMARK    7  A    between atoms: C_16  and  C_17
REMARK    8  A    between atoms: C_20  and  C_21
REMARK    9  A    between atoms: C_21  and  N_22
REMARK   10  A    between atoms: N_22  and  C_23
REMARK   11  A    between atoms: C_23  and  C_24
REMARK                            x       y       z     vdW  Elec       q    Type
REMARK                         _______ _______ _______ _____ _____    ______ ____
ROOT
ATOM     13  C   UNL     1      48.961   6.992  16.098  0.00  0.00    +0.000 C 
ATOM     14  O   UNL     1      50.070   6.474  15.984  0.00  0.00    +0.000 OA
ATOM     15  N   UNL     1      48.095   7.039  15.038  0.00  0.00    +0.000 N 
ATOM     33  H   UNL     1      47.198   7.497  15.131  0.00  0.00    +0.000 HD
ENDROOT
BRANCH  13  12
ATOM      5  C   UNL     1      48.203   5.617  19.170  0.00  0.00    +0.000 A 
ATOM      6  N   UNL     1      47.977   5.368  20.475  0.00  0.00    +0.000 NA
ATOM      7  C   UNL     1      47.724   6.403  21.280  0.00  0.00    +0.000 A 
ATOM      8  N   UNL     1      47.658   7.688  20.935  0.00  0.00    +0.000 NA
ATOM      9  C   UNL     1      47.921   7.895  19.635  0.00  0.00    +0.000 A 
ATOM     10  S   UNL     1      47.872   9.473  19.014  0.00  0.00    +0.000 S 
ATOM     11  C   UNL     1      48.312   8.930  17.466  0.00  0.00    +0.000 A 
ATOM     12  C   UNL     1      48.514   7.556  17.384  0.00  0.00    +0.000 A 
ATOM     32  C   UNL     1      48.233   6.933  18.677  0.00  0.00    +0.000 A 
BRANCH   5   4
ATOM      4  O   UNL     1      48.420   4.558  18.319  0.00  0.00    +0.000 OA
BRANCH   4   3
ATOM      3  C   UNL     1      47.282   4.113  17.573  0.00  0.00    +0.000 C 
BRANCH   3   2
ATOM      1  C   UNL     1      48.922   2.389  16.731  0.00  0.00    +0.000 C 
ATOM      2  C   UNL     1      47.768   3.308  16.375  0.00  0.00    +0.000 C 
ENDBRANCH   3   2
ENDBRANCH   4   3
ENDBRANCH   5   4
ENDBRANCH  13  12
BRANCH  15  16
ATOM     16  C   UNL     1      48.441   6.483  13.749  0.00  0.00    +0.000 C 
BRANCH  16  17
ATOM     17  C   UNL     1      47.205   6.093  12.979  0.00  0.00    +0.000 A 
ATOM     18  C   UNL     1      46.988   6.585  11.685  0.00  0.00    +0.000 A 
ATOM     19  C   UNL     1      45.801   6.299  11.004  0.00  0.00    +0.000 A 
ATOM     20  C   UNL     1      44.802   5.515  11.599  0.00  0.00    +0.000 A 
ATOM     30  C   UNL     1      45.033   4.998  12.881  0.00  0.00    +0.000 A 
ATOM     31  C   UNL     1      46.219   5.288  13.565  0.00  0.00    +0.000 A 
BRANCH  20  21
ATOM     21  C   UNL     1      43.476   5.300  10.904  0.00  0.00    +0.000 C 
BRANCH  21  22
ATOM     22  N   UNL     1      43.639   4.621   9.620  0.00  0.00    +0.000 NA
ATOM     34  H   UNL     1      44.297   5.145   9.046  0.00  0.00    +0.000 HD
BRANCH  22  23
ATOM     23  C   UNL     1      44.144   3.260   9.800  0.00  0.00    +0.000 C 
BRANCH  23  24
ATOM     24  C   UNL     1      45.238   2.948   8.802  0.00  0.00    +0.000 A 
ATOM     25  C   UNL     1      45.723   1.643   8.645  0.00  0.00    +0.000 A 
ATOM     26  C   UNL     1      46.722   1.363   7.709  0.00  0.00    +0.000 A 
ATOM     27  C   UNL     1      47.242   2.386   6.917  0.00  0.00    +0.000 A 
ATOM     28  C   UNL     1      46.766   3.688   7.060  0.00  0.00    +0.000 A 
ATOM     29  C   UNL     1      45.769   3.968   7.997  0.00  0.00    +0.000 A 
ENDBRANCH  23  24
ENDBRANCH  22  23
ENDBRANCH  21  22
ENDBRANCH  20  21
ENDBRANCH  16  17
ENDBRANCH  15  16
TORSDOF 10
ENDMDL
MODEL 3
REMARK VINA RESULT:    -6.777      1.536      2.309
REMARK INTER + INTRA:         -12.791
REMARK INTER:                 -10.769
REMARK INTRA:                  -2.023
REMARK UNBOUND:                -2.052
REMARK  Name = 
REMARK  11 active torsions:
REMARK  status: ('A' for Active; 'I' for Inactive)
REMARK    1  A    between atoms: C_1  and  C_2
REMARK    2  A    between atoms: C_2  and  C_3
REMARK    3  A    between atoms: C_3  and  O_4
REMARK    4  A    between atoms: O_4  and  C_5
REMARK    5  A    between atoms: C_12  and  C_13
REMARK    6  A    between atoms: N_15  and  C_16
REMARK    7  A    between atoms: C_16  and  C_17
REMARK    8  A    between atoms: C_20  and  C_21
REMARK    9  A    between atoms: C_21  and  N_22
REMARK   10  A    between atoms: N_22  and  C_23
REMARK   11  A    between atoms: C_23  and  C_24
REMARK                            x       y       z     vdW  Elec       q    Type
REMARK                         _______ _______ _______ _____ _____    ______ ____
ROOT
ATOM     13  C   UNL     1      48.935   8.631  16.012  0.00  0.00    +0.000 C 
ATOM     14  O   UNL     1      48.065   9.440  16.330  0.00  0.00    +0.000 OA
ATOM     15  N   UNL     1      49.234   8.401  14.696  0.00  0.00    +0.000 N 
ATOM     33  H   UNL     1      49.928   7.709  14.443  0.00  0.00    +0.000 HD
ENDROOT
BRANCH  13  12
ATOM      5  C   UNL     1      49.439   5.285  16.687  0.00  0.00    +0.000 A 
ATOM      6  N   UNL     1      49.898   4.083  17.088  0.00  0.00    +0.000 NA
ATOM      7  C   UNL     1      50.779   4.047  18.091  0.00  0.00    +0.000 A 
ATOM      8  N   UNL     1      51.263   5.086  18.768  0.00  0.00    +0.000 NA
ATOM      9  C   UNL     1      50.805   6.264  18.317  0.00  0.00    +0.000 A 
ATOM     10  S   UNL     1      51.308   7.700  19.070  0.00  0.00    +0.000 S 
ATOM     11  C   UNL     1      50.398   8.643  17.989  0.00  0.00    +0.000 A 
ATOM     12  C   UNL     1      49.705   7.903  17.036  0.00  0.00    +0.000 A 
ATOM     32  C   UNL     1      49.916   6.474  17.266  0.00  0.00    +0.000 A 
BRANCH   5   4
ATOM      4  O   UNL     1      48.497   5.336  15.685  0.00  0.00    +0.000 OA
BRANCH   4   3
ATOM      3  C   UNL     1      47.413   4.409  15.799  0.00  0.00    +0.000 C 
BRANCH   3   2
ATOM      1  C   UNL     1      46.889   3.609  13.463  0.00  0.00    +0.000 C 
ATOM      2  C   UNL     1      46.510   4.561  14.582  0.00  0.00    +0.000 C 
ENDBRANCH   3   2
ENDBRANCH   4   3
ENDBRANCH   5   4
ENDBRANCH  13  12
BRANCH  15  16
ATOM     16  C   UNL     1      48.550   9.094  13.629  0.00  0.00    +0.000 C 
BRANCH  16  17
ATOM     17  C   UNL     1      47.540   8.196  12.959  0.00  0.00    +0.000 A 
ATOM     18  C   UNL     1      47.938   7.304  11.955  0.00  0.00    +0.000 A 
ATOM     19  C   UNL     1      46.992   6.536  11.269  0.00  0.00    +0.000 A 
ATOM     20  C   UNL     1      45.626   6.643  11.569  0.00  0.00    +0.000 A 
ATOM     30  C   UNL     1      45.232   7.514  12.595  0.00  0.00    +0.000 A 
ATOM     31  C   UNL     1      46.179   8.285  13.278  0.00  0.00    +0.000 A 
BRANCH  20  21
ATOM     21  C   UNL     1      44.597   5.893  10.751  0.00  0.00    +0.000 C 
BRANCH  21  22
ATOM     22  N   UNL     1      45.177   5.330   9.535  0.00  0.00    +0.000 NA
ATOM     34  H   UNL     1      46.181   5.221   9.662  0.00  0.00    +0.000 HD
BRANCH  22  23
ATOM     23  C   UNL     1      44.593   4.025   9.222  0.00  0.00    +0.000 C 
BRANCH  23  24
ATOM     24  C   UNL     1      45.544   3.185   8.399  0.00  0.00    +0.000 A 
ATOM     25  C   UNL     1      46.352   3.765   7.412  0.00  0.00    +0.000 A 
ATOM     26  C   UNL     1      47.239   2.982   6.668  0.00  0.00    +0.000 A 
ATOM     27  C   UNL     1      47.329   1.612   6.908  0.00  0.00    +0.000 A 
ATOM     28  C   UNL     1      46.534   1.023   7.888  0.00  0.00    +0.000 A 
ATOM     29  C   UNL     1      45.647   1.804   8.631  0.00  0.00    +0.000 A 
ENDBRANCH  23  24
ENDBRANCH  22  23
ENDBRANCH  21  22
ENDBRANCH  20  21
ENDBRANCH  16  17
ENDBRANCH  15  16
TORSDOF 10
ENDMDL
MODEL 4
REMARK VINA RESULT:    -6.576      2.322      3.279
REMARK INTER + INTRA:         -12.473
REMARK INTER:                 -10.862
REMARK INTRA:                  -1.611
REMARK UNBOUND:                -2.052
REMARK  Name = 
REMARK  11 active torsions:
REMARK  status: ('A' for Active; 'I' for Inactive)
REMARK    1  A    between atoms: C_1  and  C_2
REMARK    2  A    between atoms: C_2  and  C_3
REMARK    3  A    between atoms: C_3  and  O_4
REMARK    4  A    between atoms: O_4  and  C_5
REMARK    5  A    between atoms: C_12  and  C_13
REMARK    6  A    between atoms: N_15  and  C_16
REMARK    7  A    between atoms: C_16  and  C_17
REMARK    8  A    between atoms: C_20  and  C_21
REMARK    9  A    between atoms: C_21  and  N_22
REMARK   10  A    between atoms: N_22  and  C_23
REMARK   11  A    between atoms: C_23  and  C_24
REMARK                            x       y       z     vdW  Elec       q    Type
REMARK                         _______ _______ _______ _____ _____    ______ ____
ROOT
ATOM     13  C   UNL     1      50.672   6.435  16.920  0.00  0.00    +0.000 C 
ATOM     14  O   UNL     1      50.313   7.342  17.670  0.00  0.00    +0.000 OA
ATOM     15  N   UNL     1      50.277   6.409  15.609  0.00  0.00    +0.000 N 
ATOM     33  H   UNL     1      50.549   5.642  15.009  0.00  0.00    +0.000 HD
ENDROOT
BRANCH  13  12
ATOM      5  C   UNL     1      50.396   2.998  17.068  0.00  0.00    +0.000 A 
ATOM      6  N   UNL     1      50.603   1.668  17.124  0.00  0.00    +0.000 NA
ATOM      7  C   UNL     1      51.783   1.232  17.571  0.00  0.00    +0.000 A 
ATOM      8  N   UNL     1      52.805   1.975  17.989  0.00  0.00    +0.000 NA
ATOM      9  C   UNL     1      52.570   3.293  17.887  0.00  0.00    +0.000 A 
ATOM     10  S   UNL     1      53.761   4.395  18.384  0.00  0.00    +0.000 S 
ATOM     11  C   UNL     1      52.792   5.717  17.937  0.00  0.00    +0.000 A 
ATOM     12  C   UNL     1      51.560   5.361  17.398  0.00  0.00    +0.000 A 
ATOM     32  C   UNL     1      51.413   3.906  17.412  0.00  0.00    +0.000 A 
BRANCH   5   4
ATOM      4  O   UNL     1      49.170   3.464  16.652  0.00  0.00    +0.000 OA
BRANCH   4   3
ATOM      3  C   UNL     1      48.030   2.773  17.174  0.00  0.00    +0.000 C 
BRANCH   3   2
ATOM      1  C   UNL     1      47.457   5.003  18.209  0.00  0.00    +0.000 C 
ATOM      2  C   UNL     1      46.933   3.789  17.464  0.00  0.00    +0.000 C 
ENDBRANCH   3   2
ENDBRANCH   4   3
ENDBRANCH   5   4
ENDBRANCH  13  12
BRANCH  15  16
ATOM     16  C   UNL     1      49.430   7.438  15.050  0.00  0.00    +0.000 C 
BRANCH  16  17
ATOM     17  C   UNL     1      48.272   6.837  14.295  0.00  0.00    +0.000 A 
ATOM     18  C   UNL     1      47.810   5.552  14.607  0.00  0.00    +0.000 A 
ATOM     19  C   UNL     1      46.798   4.956  13.849  0.00  0.00    +0.000 A 
ATOM     20  C   UNL     1      46.224   5.629  12.761  0.00  0.00    +0.000 A 
ATOM     30  C   UNL     1      46.666   6.927  12.468  0.00  0.00    +0.000 A 
ATOM     31  C   UNL     1      47.683   7.522  13.224  0.00  0.00    +0.000 A 
BRANCH  20  21
ATOM     21  C   UNL     1      45.208   4.938  11.877  0.00  0.00    +0.000 C 
BRANCH  21  22
ATOM     22  N   UNL     1      45.493   5.143  10.459  0.00  0.00    +0.000 NA
ATOM     34  H   UNL     1      46.466   4.904  10.276  0.00  0.00    +0.000 HD
BRANCH  22  23
ATOM     23  C   UNL     1      44.632   4.313   9.618  0.00  0.00    +0.000 C 
BRANCH  23  24
ATOM     24  C   UNL     1      45.452   3.430   8.702  0.00  0.00    +0.000 A 
ATOM     25  C   UNL     1      46.237   3.979   7.680  0.00  0.00    +0.000 A 
ATOM     26  C   UNL     1      47.002   3.156   6.851  0.00  0.00    +0.000 A 
ATOM     27  C   UNL     1      46.994   1.775   7.039  0.00  0.00    +0.000 A 
ATOM     28  C   UNL     1      46.219   1.215   8.054  0.00  0.00    +0.000 A 
ATOM     29  C   UNL     1      45.453   2.038   8.882  0.00  0.00    +0.000 A 
ENDBRANCH  23  24
ENDBRANCH  22  23
ENDBRANCH  21  22
ENDBRANCH  20  21
ENDBRANCH  16  17
ENDBRANCH  15  16
TORSDOF 10
ENDMDL
MODEL 5
REMARK VINA RESULT:    -6.562      2.170      3.341
REMARK INTER + INTRA:         -12.451
REMARK INTER:                 -10.686
REMARK INTRA:                  -1.765
REMARK UNBOUND:                -2.052
REMARK  Name = 
REMARK  11 active torsions:
REMARK  status: ('A' for Active; 'I' for Inactive)
REMARK    1  A    between atoms: C_1  and  C_2
REMARK    2  A    between atoms: C_2  and  C_3
REMARK    3  A    between atoms: C_3  and  O_4
REMARK    4  A    between atoms: O_4  and  C_5
REMARK    5  A    between atoms: C_12  and  C_13
REMARK    6  A    between atoms: N_15  and  C_16
REMARK    7  A    between atoms: C_16  and  C_17
REMARK    8  A    between atoms: C_20  and  C_21
REMARK    9  A    between atoms: C_21  and  N_22
REMARK   10  A    between atoms: N_22  and  C_23
REMARK   11  A    between atoms: C_23  and  C_24
REMARK                            x       y       z     vdW  Elec       q    Type
REMARK                         _______ _______ _______ _____ _____    ______ ____
ROOT
ATOM     13  C   UNL     1      49.495   8.082  14.542  0.00  0.00    +0.000 C 
ATOM     14  O   UNL     1      48.770   8.896  15.110  0.00  0.00    +0.000 OA
ATOM     15  N   UNL     1      49.149   7.561  13.324  0.00  0.00    +0.000 N 
ATOM     33  H   UNL     1      49.735   6.866  12.880  0.00  0.00    +0.000 HD
ENDROOT
BRANCH  13  12
ATOM      5  C   UNL     1      50.336   6.035  17.189  0.00  0.00    +0.000 A 
ATOM      6  N   UNL     1      50.935   5.206  18.067  0.00  0.00    +0.000 NA
ATOM      7  C   UNL     1      52.269   5.134  18.056  0.00  0.00    +0.000 A 
ATOM      8  N   UNL     1      53.101   5.810  17.267  0.00  0.00    +0.000 NA
ATOM      9  C   UNL     1      52.463   6.599  16.388  0.00  0.00    +0.000 A 
ATOM     10  S   UNL     1      53.365   7.546  15.306  0.00  0.00    +0.000 S 
ATOM     11  C   UNL     1      51.953   8.159  14.588  0.00  0.00    +0.000 A 
ATOM     12  C   UNL     1      50.776   7.660  15.137  0.00  0.00    +0.000 A 
ATOM     32  C   UNL     1      51.086   6.760  16.247  0.00  0.00    +0.000 A 
BRANCH   5   4
ATOM      4  O   UNL     1      48.966   6.154  17.217  0.00  0.00    +0.000 OA
BRANCH   4   3
ATOM      3  C   UNL     1      48.233   5.055  16.666  0.00  0.00    +0.000 C 
BRANCH   3   2
ATOM      1  C   UNL     1      47.351   2.842  17.500  0.00  0.00    +0.000 C 
ATOM      2  C   UNL     1      47.529   4.319  17.799  0.00  0.00    +0.000 C 
ENDBRANCH   3   2
ENDBRANCH   4   3
ENDBRANCH   5   4
ENDBRANCH  13  12
BRANCH  15  16
ATOM     16  C   UNL     1      47.926   7.942  12.654  0.00  0.00    +0.000 C 
BRANCH  16  17
ATOM     17  C   UNL     1      46.868   6.879  12.811  0.00  0.00    +0.000 A 
ATOM     18  C   UNL     1      47.216   5.584  13.217  0.00  0.00    +0.000 A 
ATOM     19  C   UNL     1      46.252   4.573  13.274  0.00  0.00    +0.000 A 
ATOM     20  C   UNL     1      44.918   4.831  12.926  0.00  0.00    +0.000 A 
ATOM     30  C   UNL     1      44.565   6.135  12.549  0.00  0.00    +0.000 A 
ATOM     31  C   UNL     1      45.531   7.146  12.487  0.00  0.00    +0.000 A 
BRANCH  20  21
ATOM     21  C   UNL     1      43.902   3.710  12.883  0.00  0.00    +0.000 C 
BRANCH  21  22
ATOM     22  N   UNL     1      44.230   2.719  11.861  0.00  0.00    +0.000 NA
ATOM     34  H   UNL     1      43.873   1.810  12.150  0.00  0.00    +0.000 HD
BRANCH  22  23
ATOM     23  C   UNL     1      43.642   3.073  10.569  0.00  0.00    +0.000 C 
BRANCH  23  24
ATOM     24  C   UNL     1      44.693   3.096   9.481  0.00  0.00    +0.000 A 
ATOM     25  C   UNL     1      45.159   4.306   8.950  0.00  0.00    +0.000 A 
ATOM     26  C   UNL     1      46.141   4.316   7.956  0.00  0.00    +0.000 A 
ATOM     27  C   UNL     1      46.670   3.115   7.487  0.00  0.00    +0.000 A 
ATOM     28  C   UNL     1      46.218   1.904   8.008  0.00  0.00    +0.000 A 
ATOM     29  C   UNL     1      45.236   1.894   9.000  0.00  0.00    +0.000 A 
ENDBRANCH  23  24
ENDBRANCH  22  23
ENDBRANCH  21  22
ENDBRANCH  20  21
ENDBRANCH  16  17
ENDBRANCH  15  16
TORSDOF 10
ENDMDL
MODEL 6
REMARK VINA RESULT:    -6.442      3.592      6.200
REMARK INTER + INTRA:         -12.261
REMARK INTER:                 -10.320
REMARK INTRA:                  -1.941
REMARK UNBOUND:                -2.052
REMARK  Name = 
REMARK  11 active torsions:
REMARK  status: ('A' for Active; 'I' for Inactive)
REMARK    1  A    between atoms: C_1  and  C_2
REMARK    2  A    between atoms: C_2  and  C_3
REMARK    3  A    between atoms: C_3  and  O_4
REMARK    4  A    between atoms: O_4  and  C_5
REMARK    5  A    between atoms: C_12  and  C_13
REMARK    6  A    between atoms: N_15  and  C_16
REMARK    7  A    between atoms: C_16  and  C_17
REMARK    8  A    between atoms: C_20  and  C_21
REMARK    9  A    between atoms: C_21  and  N_22
REMARK   10  A    between atoms: N_22  and  C_23
REMARK   11  A    between atoms: C_23  and  C_24
REMARK                            x       y       z     vdW  Elec       q    Type
REMARK                         _______ _______ _______ _____ _____    ______ ____
ROOT
ATOM     13  C   UNL     1      47.655   9.055  12.621  0.00  0.00    +0.000 C 
ATOM     14  O   UNL     1      46.983   9.168  13.645  0.00  0.00    +0.000 OA
ATOM     15  N   UNL     1      48.160   7.841  12.241  0.00  0.00    +0.000 N 
ATOM     33  H   UNL     1      48.739   7.764  11.415  0.00  0.00    +0.000 HD
ENDROOT
BRANCH  13  12
ATOM      5  C   UNL     1      50.447  10.212  10.957  0.00  0.00    +0.000 A 
ATOM      6  N   UNL     1      51.325  10.802  10.121  0.00  0.00    +0.000 NA
ATOM      7  C   UNL     1      50.911  11.856   9.414  0.00  0.00    +0.000 A 
ATOM      8  N   UNL     1      49.703  12.415   9.443  0.00  0.00    +0.000 NA
ATOM      9  C   UNL     1      48.851  11.778  10.262  0.00  0.00    +0.000 A 
ATOM     10  S   UNL     1      47.265  12.359  10.434  0.00  0.00    +0.000 S 
ATOM     11  C   UNL     1      46.871  11.102  11.507  0.00  0.00    +0.000 A 
ATOM     12  C   UNL     1      47.915  10.217  11.752  0.00  0.00    +0.000 A 
ATOM     32  C   UNL     1      49.115  10.653  11.039  0.00  0.00    +0.000 A 
BRANCH   5   4
ATOM      4  O   UNL     1      50.871   9.153  11.726  0.00  0.00    +0.000 OA
BRANCH   4   3
ATOM      3  C   UNL     1      51.739   9.482  12.816  0.00  0.00    +0.000 C 
BRANCH   3   2
ATOM      1  C   UNL     1      50.397   9.992  14.893  0.00  0.00    +0.000 C 
ATOM      2  C   UNL     1      51.138   8.929  14.102  0.00  0.00    +0.000 C 
ENDBRANCH   3   2
ENDBRANCH   4   3
ENDBRANCH   5   4
ENDBRANCH  13  12
BRANCH  15  16
ATOM     16  C   UNL     1      47.927   6.644  13.018  0.00  0.00    +0.000 C 
BRANCH  16  17
ATOM     17  C   UNL     1      46.753   5.868  12.478  0.00  0.00    +0.000 A 
ATOM     18  C   UNL     1      46.211   4.801  13.206  0.00  0.00    +0.000 A 
ATOM     19  C   UNL     1      45.182   4.021  12.669  0.00  0.00    +0.000 A 
ATOM     20  C   UNL     1      44.672   4.288  11.390  0.00  0.00    +0.000 A 
ATOM     30  C   UNL     1      45.195   5.374  10.674  0.00  0.00    +0.000 A 
ATOM     31  C   UNL     1      46.227   6.152  11.211  0.00  0.00    +0.000 A 
BRANCH  20  21
ATOM     21  C   UNL     1      43.637   3.376  10.768  0.00  0.00    +0.000 C 
BRANCH  21  22
ATOM     22  N   UNL     1      43.980   3.026   9.391  0.00  0.00    +0.000 NA
ATOM     34  H   UNL     1      44.330   3.854   8.912  0.00  0.00    +0.000 HD
BRANCH  22  23
ATOM     23  C   UNL     1      45.003   1.982   9.347  0.00  0.00    +0.000 C 
BRANCH  23  24
ATOM     24  C   UNL     1      45.881   2.130   8.123  0.00  0.00    +0.000 A 
ATOM     25  C   UNL     1      45.917   3.329   7.400  0.00  0.00    +0.000 A 
ATOM     26  C   UNL     1      46.742   3.461   6.280  0.00  0.00    +0.000 A 
ATOM     27  C   UNL     1      47.544   2.394   5.876  0.00  0.00    +0.000 A 
ATOM     28  C   UNL     1      47.520   1.196   6.588  0.00  0.00    +0.000 A 
ATOM     29  C   UNL     1      46.694   1.065   7.706  0.00  0.00    +0.000 A 
ENDBRANCH  23  24
ENDBRANCH  22  23
ENDBRANCH  21  22
ENDBRANCH  20  21
ENDBRANCH  16  17
ENDBRANCH  15  16
TORSDOF 10
ENDMDL
MODEL 7
REMARK VINA RESULT:    -6.439      3.163      5.483
REMARK INTER + INTRA:         -12.255
REMARK INTER:                 -10.496
REMARK INTRA:                  -1.759
REMARK UNBOUND:                -2.052
REMARK  Name = 
REMARK  11 active torsions:
REMARK  status: ('A' for Active; 'I' for Inactive)
REMARK    1  A    between atoms: C_1  and  C_2
REMARK    2  A    between atoms: C_2  and  C_3
REMARK    3  A    between atoms: C_3  and  O_4
REMARK    4  A    between atoms: O_4  and  C_5
REMARK    5  A    between atoms: C_12  and  C_13
REMARK    6  A    between atoms: N_15  and  C_16
REMARK    7  A    between atoms: C_16  and  C_17
REMARK    8  A    between atoms: C_20  and  C_21
REMARK    9  A    between atoms: C_21  and  N_22
REMARK   10  A    between atoms: N_22  and  C_23
REMARK   11  A    between atoms: C_23  and  C_24
REMARK                            x       y       z     vdW  Elec       q    Type
REMARK                         _______ _______ _______ _____ _____    ______ ____
ROOT
ATOM     13  C   UNL     1      49.234   8.361  13.544  0.00  0.00    +0.000 C 
ATOM     14  O   UNL     1      48.716   8.801  14.569  0.00  0.00    +0.000 OA
ATOM     15  N   UNL     1      48.951   7.098  13.098  0.00  0.00    +0.000 N 
ATOM     33  H   UNL     1      49.408   6.733  12.273  0.00  0.00    +0.000 HD
ENDROOT
BRANCH  13  12
ATOM      5  C   UNL     1      48.790  10.637  10.988  0.00  0.00    +0.000 A 
ATOM      6  N   UNL     1      48.893  11.637  10.091  0.00  0.00    +0.000 NA
ATOM      7  C   UNL     1      50.106  12.135   9.838  0.00  0.00    +0.000 A 
ATOM      8  N   UNL     1      51.259  11.744  10.375  0.00  0.00    +0.000 NA
ATOM      9  C   UNL     1      51.109  10.769  11.285  0.00  0.00    +0.000 A 
ATOM     10  S   UNL     1      52.477  10.137  12.067  0.00  0.00    +0.000 S 
ATOM     11  C   UNL     1      51.520   9.083  12.994  0.00  0.00    +0.000 A 
ATOM     12  C   UNL     1      50.155   9.188  12.745  0.00  0.00    +0.000 A 
ATOM     32  C   UNL     1      49.917  10.169  11.686  0.00  0.00    +0.000 A 
BRANCH   5   4
ATOM      4  O   UNL     1      47.554  10.083  11.227  0.00  0.00    +0.000 OA
BRANCH   4   3
ATOM      3  C   UNL     1      46.625  10.909  11.937  0.00  0.00    +0.000 C 
BRANCH   3   2
ATOM      1  C   UNL     1      44.510   9.898  11.002  0.00  0.00    +0.000 C 
ATOM      2  C   UNL     1      45.374  10.094  12.235  0.00  0.00    +0.000 C 
ENDBRANCH   3   2
ENDBRANCH   4   3
ENDBRANCH   5   4
ENDBRANCH  13  12
BRANCH  15  16
ATOM     16  C   UNL     1      48.036   6.231  13.804  0.00  0.00    +0.000 C 
BRANCH  16  17
ATOM     17  C   UNL     1      46.831   5.909  12.956  0.00  0.00    +0.000 A 
ATOM     18  C   UNL     1      45.977   4.855  13.304  0.00  0.00    +0.000 A 
ATOM     19  C   UNL     1      44.913   4.496  12.472  0.00  0.00    +0.000 A 
ATOM     20  C   UNL     1      44.676   5.182  11.272  0.00  0.00    +0.000 A 
ATOM     30  C   UNL     1      45.513   6.257  10.940  0.00  0.00    +0.000 A 
ATOM     31  C   UNL     1      46.581   6.613  11.770  0.00  0.00    +0.000 A 
BRANCH  20  21
ATOM     21  C   UNL     1      43.592   4.721  10.322  0.00  0.00    +0.000 C 
BRANCH  21  22
ATOM     22  N   UNL     1      44.148   4.215   9.069  0.00  0.00    +0.000 NA
ATOM     34  H   UNL     1      44.911   4.821   8.773  0.00  0.00    +0.000 HD
BRANCH  22  23
ATOM     23  C   UNL     1      44.654   2.852   9.224  0.00  0.00    +0.000 C 
BRANCH  23  24
ATOM     24  C   UNL     1      45.678   2.527   8.159  0.00  0.00    +0.000 A 
ATOM     25  C   UNL     1      46.317   1.281   8.126  0.00  0.00    +0.000 A 
ATOM     26  C   UNL     1      47.250   0.984   7.128  0.00  0.00    +0.000 A 
ATOM     27  C   UNL     1      47.549   1.932   6.151  0.00  0.00    +0.000 A 
ATOM     28  C   UNL     1      46.919   3.175   6.169  0.00  0.00    +0.000 A 
ATOM     29  C   UNL     1      45.988   3.471   7.167  0.00  0.00    +0.000 A 
ENDBRANCH  23  24
ENDBRANCH  22  23
ENDBRANCH  21  22
ENDBRANCH  20  21
ENDBRANCH  16  17
ENDBRANCH  15  16
TORSDOF 10
ENDMDL
MODEL 8
REMARK VINA RESULT:    -6.402      2.009      3.561
REMARK INTER + INTRA:         -12.197
REMARK INTER:                 -10.709
REMARK INTRA:                  -1.488
REMARK UNBOUND:                -2.052
REMARK  Name = 
REMARK  11 active torsions:
REMARK  status: ('A' for Active; 'I' for Inactive)
REMARK    1  A    between atoms: C_1  and  C_2
REMARK    2  A    between atoms: C_2  and  C_3
REMARK    3  A    between atoms: C_3  and  O_4
REMARK    4  A    between atoms: O_4  and  C_5
REMARK    5  A    between atoms: C_12  and  C_13
REMARK    6  A    between atoms: N_15  and  C_16
REMARK    7  A    between atoms: C_16  and  C_17
REMARK    8  A    between atoms: C_20  and  C_21
REMARK    9  A    between atoms: C_21  and  N_22
REMARK   10  A    between atoms: N_22  and  C_23
REMARK   11  A    between atoms: C_23  and  C_24
REMARK                            x       y       z     vdW  Elec       q    Type
REMARK                         _______ _______ _______ _____ _____    ______ ____
ROOT
ATOM     13  C   UNL     1      48.443   6.959  14.604  0.00  0.00    +0.000 C 
ATOM     14  O   UNL     1      49.140   6.551  13.677  0.00  0.00    +0.000 OA
ATOM     15  N   UNL     1      47.367   7.773  14.369  0.00  0.00    +0.000 N 
ATOM     33  H   UNL     1      46.819   8.131  15.140  0.00  0.00    +0.000 HD
ENDROOT
BRANCH  13  12
ATOM      5  C   UNL     1      49.775   8.605  17.328  0.00  0.00    +0.000 A 
ATOM      6  N   UNL     1      50.133   9.032  18.555  0.00  0.00    +0.000 NA
ATOM      7  C   UNL     1      50.044   8.172  19.573  0.00  0.00    +0.000 A 
ATOM      8  N   UNL     1      49.640   6.905  19.518  0.00  0.00    +0.000 NA
ATOM      9  C   UNL     1      49.263   6.530  18.285  0.00  0.00    +0.000 A 
ATOM     10  S   UNL     1      48.727   4.941  18.023  0.00  0.00    +0.000 S 
ATOM     11  C   UNL     1      48.435   5.259  16.380  0.00  0.00    +0.000 A 
ATOM     12  C   UNL     1      48.723   6.564  15.995  0.00  0.00    +0.000 A 
ATOM     32  C   UNL     1      49.263   7.310  17.132  0.00  0.00    +0.000 A 
BRANCH   5   4
ATOM      4  O   UNL     1      49.903   9.464  16.261  0.00  0.00    +0.000 OA
BRANCH   4   3
ATOM      3  C   UNL     1      51.244   9.758  15.855  0.00  0.00    +0.000 C 
BRANCH   3   2
ATOM      1  C   UNL     1      51.521   9.855  13.348  0.00  0.00    +0.000 C 
ATOM      2  C   UNL     1      51.553   8.976  14.585  0.00  0.00    +0.000 C 
ENDBRANCH   3   2
ENDBRANCH   4   3
ENDBRANCH   5   4
ENDBRANCH  13  12
BRANCH  15  16
ATOM     16  C   UNL     1      47.003   8.184  13.032  0.00  0.00    +0.000 C 
BRANCH  16  17
ATOM     17  C   UNL     1      46.135   7.147  12.364  0.00  0.00    +0.000 A 
ATOM     18  C   UNL     1      44.974   6.680  12.992  0.00  0.00    +0.000 A 
ATOM     19  C   UNL     1      44.217   5.654  12.417  0.00  0.00    +0.000 A 
ATOM     20  C   UNL     1      44.604   5.069  11.202  0.00  0.00    +0.000 A 
ATOM     30  C   UNL     1      45.750   5.559  10.560  0.00  0.00    +0.000 A 
ATOM     31  C   UNL     1      46.510   6.582  11.137  0.00  0.00    +0.000 A 
BRANCH  20  21
ATOM     21  C   UNL     1      43.846   3.887  10.640  0.00  0.00    +0.000 C 
BRANCH  21  22
ATOM     22  N   UNL     1      44.688   2.697  10.546  0.00  0.00    +0.000 NA
ATOM     34  H   UNL     1      44.491   2.083  11.333  0.00  0.00    +0.000 HD
BRANCH  22  23
ATOM     23  C   UNL     1      44.442   1.969   9.301  0.00  0.00    +0.000 C 
BRANCH  23  24
ATOM     24  C   UNL     1      45.585   2.154   8.326  0.00  0.00    +0.000 A 
ATOM     25  C   UNL     1      46.448   1.096   8.014  0.00  0.00    +0.000 A 
ATOM     26  C   UNL     1      47.490   1.273   7.100  0.00  0.00    +0.000 A 
ATOM     27  C   UNL     1      47.676   2.510   6.487  0.00  0.00    +0.000 A 
ATOM     28  C   UNL     1      46.824   3.571   6.786  0.00  0.00    +0.000 A 
ATOM     29  C   UNL     1      45.783   3.395   7.700  0.00  0.00    +0.000 A 
ENDBRANCH  23  24
ENDBRANCH  22  23
ENDBRANCH  21  22
ENDBRANCH  20  21
ENDBRANCH  16  17
ENDBRANCH  15  16
TORSDOF 10
ENDMDL
MODEL 9
REMARK VINA RESULT:    -6.224      3.760      9.712
REMARK INTER + INTRA:         -11.915
REMARK INTER:                  -9.208
REMARK INTRA:                  -2.707
REMARK UNBOUND:                -2.052
REMARK  Name = 
REMARK  11 active torsions:
REMARK  status: ('A' for Active; 'I' for Inactive)
REMARK    1  A    between atoms: C_1  and  C_2
REMARK    2  A    between atoms: C_2  and  C_3
REMARK    3  A    between atoms: C_3  and  O_4
REMARK    4  A    between atoms: O_4  and  C_5
REMARK    5  A    between atoms: C_12  and  C_13
REMARK    6  A    between atoms: N_15  and  C_16
REMARK    7  A    between atoms: C_16  and  C_17
REMARK    8  A    between atoms: C_20  and  C_21
REMARK    9  A    between atoms: C_21  and  N_22
REMARK   10  A    between atoms: N_22  and  C_23
REMARK   11  A    between atoms: C_23  and  C_24
REMARK                            x       y       z     vdW  Elec       q    Type
REMARK                         _______ _______ _______ _____ _____    ______ ____
ROOT
ATOM     13  C   UNL     1      47.143   4.245  14.622  0.00  0.00    +0.000 C 
ATOM     14  O   UNL     1      47.238   3.062  14.299  0.00  0.00    +0.000 OA
ATOM     15  N   UNL     1      47.121   4.615  15.940  0.00  0.00    +0.000 N 
ATOM     33  H   UNL     1      47.009   5.587  16.197  0.00  0.00    +0.000 HD
ENDROOT
BRANCH  13  12
ATOM      5  C   UNL     1      49.007   7.085  14.013  0.00  0.00    +0.000 A 
ATOM      6  N   UNL     1      49.629   8.156  13.481  0.00  0.00    +0.000 NA
ATOM      7  C   UNL     1      49.142   8.668  12.348  0.00  0.00    +0.000 A 
ATOM      8  N   UNL     1      48.082   8.241  11.666  0.00  0.00    +0.000 NA
ATOM      9  C   UNL     1      47.512   7.155  12.212  0.00  0.00    +0.000 A 
ATOM     10  S   UNL     1      46.138   6.476  11.482  0.00  0.00    +0.000 S 
ATOM     11  C   UNL     1      46.069   5.243  12.648  0.00  0.00    +0.000 A 
ATOM     12  C   UNL     1      47.078   5.308  13.603  0.00  0.00    +0.000 A 
ATOM     32  C   UNL     1      47.915   6.483  13.364  0.00  0.00    +0.000 A 
BRANCH   5   4
ATOM      4  O   UNL     1      49.468   6.572  15.204  0.00  0.00    +0.000 OA
BRANCH   4   3
ATOM      3  C   UNL     1      49.429   7.463  16.323  0.00  0.00    +0.000 C 
BRANCH   3   2
ATOM      1  C   UNL     1      51.869   6.832  16.180  0.00  0.00    +0.000 C 
ATOM      2  C   UNL     1      50.759   7.381  17.059  0.00  0.00    +0.000 C 
ENDBRANCH   3   2
ENDBRANCH   4   3
ENDBRANCH   5   4
ENDBRANCH  13  12
BRANCH  15  16
ATOM     16  C   UNL     1      47.211   3.641  17.004  0.00  0.00    +0.000 C 
BRANCH  16  17
ATOM     17  C   UNL     1      48.648   3.304  17.311  0.00  0.00    +0.000 A 
ATOM     18  C   UNL     1      49.449   4.198  18.034  0.00  0.00    +0.000 A 
ATOM     19  C   UNL     1      50.806   3.931  18.241  0.00  0.00    +0.000 A 
ATOM     20  C   UNL     1      51.395   2.765  17.730  0.00  0.00    +0.000 A 
ATOM     30  C   UNL     1      50.586   1.857  17.033  0.00  0.00    +0.000 A 
ATOM     31  C   UNL     1      49.229   2.126  16.822  0.00  0.00    +0.000 A 
BRANCH  20  21
ATOM     21  C   UNL     1      52.885   2.533  17.861  0.00  0.00    +0.000 C 
BRANCH  21  22
ATOM     22  N   UNL     1      53.267   2.224  19.237  0.00  0.00    +0.000 NA
ATOM     34  H   UNL     1      53.682   1.295  19.268  0.00  0.00    +0.000 HD
BRANCH  22  23
ATOM     23  C   UNL     1      54.232   3.195  19.751  0.00  0.00    +0.000 C 
BRANCH  23  24
ATOM     24  C   UNL     1      53.538   4.450  20.234  0.00  0.00    +0.000 A 
ATOM     25  C   UNL     1      52.680   4.422  21.341  0.00  0.00    +0.000 A 
ATOM     26  C   UNL     1      52.057   5.590  21.789  0.00  0.00    +0.000 A 
ATOM     27  C   UNL     1      52.289   6.799  21.135  0.00  0.00    +0.000 A 
ATOM     28  C   UNL     1      53.142   6.842  20.034  0.00  0.00    +0.000 A 
ATOM     29  C   UNL     1      53.764   5.675  19.586  0.00  0.00    +0.000 A 
ENDBRANCH  23  24
ENDBRANCH  22  23
ENDBRANCH  21  22
ENDBRANCH  20  21
ENDBRANCH  16  17
ENDBRANCH  15  16
TORSDOF 10
ENDMDL
