MODEL 1
REMARK VINA RESULT:    -6.838      0.000      0.000
REMARK INTER + INTRA:         -13.631
REMARK INTER:                 -12.435
REMARK INTRA:                  -1.196
REMARK UNBOUND:                -1.196
REMARK  Name = 
REMARK  15 active torsions:
REMARK  status: ('A' for Active; 'I' for Inactive)
REMARK    1  A    between atoms: C_1  and  C_2
REMARK    2  A    between atoms: C_2  and  C_3
REMARK    3  A    between atoms: C_3  and  C_4
REMARK    4  A    between atoms: C_4  and  C_5
REMARK    5  A    between atoms: C_5  and  C_6
REMARK    6  A    between atoms: C_6  and  C_7
REMARK    7  A    between atoms: C_7  and  C_8
REMARK    8  A    between atoms: C_8  and  C_9
REMARK    9  A    between atoms: C_9  and  C_10
REMARK   10  A    between atoms: C_10  and  N_11
REMARK   11  A    between atoms: N_11  and  C_12
REMARK   12  A    between atoms: C_12  and  C_13
REMARK   13  A    between atoms: C_16  and  C_17
REMARK   14  A    between atoms: C_17  and  N_18
REMARK   15  A    between atoms: C_19  and  C_21
REMARK                            x       y       z     vdW  Elec       q    Type
REMARK                         _______ _______ _______ _____ _____    ______ ____
ROOT
ATOM     13  C   UNL     1      44.514   5.470  12.457  0.00  0.00    +0.000 A 
ATOM     14  C   UNL     1      44.968   6.769  12.192  0.00  0.00    +0.000 A 
ATOM     15  C   UNL     1      46.190   7.214  12.699  0.00  0.00    +0.000 A 
ATOM     16  C   UNL     1      46.985   6.364  13.477  0.00  0.00    +0.000 A 
ATOM     31  C   UNL     1      46.516   5.077  13.772  0.00  0.00    +0.000 A 
ATOM     32  C   UNL     1      45.297   4.628  13.258  0.00  0.00    +0.000 A 
ENDROOT
BRANCH  13  12
ATOM     12  C   UNL     1      43.235   4.966  11.828  0.00  0.00    +0.000 C 
BRANCH  12  11
ATOM     11  N   UNL     1      43.198   5.167  10.377  0.00  0.00    +0.000 NA
ATOM     33  H   UNL     1      42.309   4.826  10.016  0.00  0.00    +0.000 HD
BRANCH  11  10
ATOM     10  C   UNL     1      44.290   4.454   9.716  0.00  0.00    +0.000 C 
BRANCH  10   9
ATOM      9  C   UNL     1      44.231   2.974  10.067  0.00  0.00    +0.000 C 
BRANCH   9   8
ATOM      8  C   UNL     1      44.894   2.165   8.959  0.00  0.00    +0.000 C 
BRANCH   8   7
ATOM      7  C   UNL     1      45.303   3.065   7.806  0.00  0.00    +0.000 C 
BRANCH   7   6
ATOM      6  C   UNL     1      46.626   2.597   7.215  0.00  0.00    +0.000 C 
BRANCH   6   5
ATOM      5  C   UNL     1      46.840   3.220   5.844  0.00  0.00    +0.000 C 
BRANCH   5   4
ATOM      4  C   UNL     1      47.511   2.230   4.903  0.00  0.00    +0.000 C 
BRANCH   4   3
ATOM      3  C   UNL     1      47.413   0.815   5.459  0.00  0.00    +0.000 C 
BRANCH   3   2
ATOM      1  C   UNL     1      46.392   0.590   3.182  0.00  0.00    +0.000 C 
ATOM      2  C   UNL     1      46.918  -0.157   4.395  0.00  0.00    +0.000 C 
ENDBRANCH   3   2
ENDBRANCH   4   3
ENDBRANCH   5   4
ENDBRANCH   6   5
ENDBRANCH   7   6
ENDBRANCH   8   7
ENDBRANCH   9   8
ENDBRANCH  10   9
ENDBRANCH  11  10
ENDBRANCH  12  11
ENDBRANCH  13  12
BRANCH  16  17
ATOM     17  C   UNL     1      48.318   6.827  14.002  0.00  0.00    +0.000 C 
BRANCH  17  18
ATOM     18  N   UNL     1      48.311   6.929  15.437  0.00  0.00    +0.000 N 
ATOM     19  C   UNL     1      49.465   6.775  16.161  0.00  0.00    +0.000 C 
ATOM     20  O   UNL     1      50.557   6.611  15.622  0.00  0.00    +0.000 OA
ATOM     34  H   UNL     1      47.412   6.860  15.901  0.00  0.00    +0.000 HD
BRANCH  19  21
ATOM     21  C   UNL     1      49.339   6.877  17.617  0.00  0.00    +0.000 A 
ATOM     22  C   UNL     1      49.525   8.103  18.243  0.00  0.00    +0.000 A 
ATOM     23  S   UNL     1      49.306   8.047  19.934  0.00  0.00    +0.000 S 
ATOM     24  C   UNL     1      48.999   6.373  19.893  0.00  0.00    +0.000 A 
ATOM     25  N   UNL     1      48.750   5.679  21.037  0.00  0.00    +0.000 NA
ATOM     26  C   UNL     1      48.567   4.413  20.862  0.00  0.00    +0.000 A 
ATOM     27  N   UNL     1      48.604   3.778  19.647  0.00  0.00    +0.000 N 
ATOM     28  C   UNL     1      48.815   4.443  18.464  0.00  0.00    +0.000 A 
ATOM     29  O   UNL     1      48.780   3.852  17.387  0.00  0.00    +0.000 OA
ATOM     30  C   UNL     1      49.045   5.868  18.606  0.00  0.00    +0.000 A 
ATOM     35  H   UNL     1      48.436   2.785  19.578  0.00  0.00    +0.000 HD
ENDBRANCH  19  21
ENDBRANCH  17  18
ENDBRANCH  16  17
TORSDOF 14
ENDMDL
MODEL 2
REMARK VINA RESULT:    -6.758      1.778      2.346
REMARK INTER + INTRA:         -13.484
REMARK INTER:                 -11.636
REMARK INTRA:                  -1.848
REMARK UNBOUND:                -1.196
REMARK  Name = 
REMARK  15 active torsions:
REMARK  status: ('A' for Active; 'I' for Inactive)
REMARK    1  A    between atoms: C_1  and  C_2
REMARK    2  A    between atoms: C_2  and  C_3
REMARK    3  A    between atoms: C_3  and  C_4
REMARK    4  A    between atoms: C_4  and  C_5
REMARK    5  A    between atoms: C_5  and  C_6
REMARK    6  A    between atoms: C_6  and  C_7
REMARK    7  A    between atoms: C_7  and  C_8
REMARK    8  A    between atoms: C_8  and  C_9
REMARK    9  A    between atoms: C_9  and  C_10
REMARK   10  A    between atoms: C_10  and  N_11
REMARK   11  A    between atoms: N_11  and  C_12
REMARK   12  A    between atoms: C_12  and  C_13
REMARK   13  A    between atoms: C_16  and  C_17
REMARK   14  A    between atoms: C_17  and  N_18
REMARK   15  A    between atoms: C_19  and  C_21
REMARK                            x       y       z     vdW  Elec       q    Type
REMARK                         _______ _______ _______ _____ _____    ______ ____
ROOT
ATOM     13  C   UNL     1      44.756   6.964  11.638  0.00  0.00    +0.000 A 
ATOM     14  C   UNL     1      45.897   6.291  11.179  0.00  0.00    +0.000 A 
ATOM     15  C   UNL     1      47.167   6.655  11.628  0.00  0.00    +0.000 A 
ATOM     16  C   UNL     1      47.321   7.697  12.550  0.00  0.00    +0.000 A 
ATOM     31  C   UNL     1      46.185   8.394  12.983  0.00  0.00    +0.000 A 
ATOM     32  C   UNL     1      44.912   8.024  12.540  0.00  0.00    +0.000 A 
ENDROOT
BRANCH  13  12
ATOM     12  C   UNL     1      43.379   6.503  11.218  0.00  0.00    +0.000 C 
BRANCH  12  11
ATOM     11  N   UNL     1      42.655   5.822  12.295  0.00  0.00    +0.000 NA
ATOM     33  H   UNL     1      42.471   6.487  13.045  0.00  0.00    +0.000 HD
BRANCH  11  10
ATOM     10  C   UNL     1      43.427   4.700  12.825  0.00  0.00    +0.000 C 
BRANCH  10   9
ATOM      9  C   UNL     1      43.130   3.441  12.023  0.00  0.00    +0.000 C 
BRANCH   9   8
ATOM      8  C   UNL     1      44.380   3.022  11.258  0.00  0.00    +0.000 C 
BRANCH   8   7
ATOM      7  C   UNL     1      44.201   3.254   9.767  0.00  0.00    +0.000 C 
BRANCH   7   6
ATOM      6  C   UNL     1      45.441   2.800   9.010  0.00  0.00    +0.000 C 
BRANCH   6   5
ATOM      5  C   UNL     1      45.458   3.405   7.615  0.00  0.00    +0.000 C 
BRANCH   5   4
ATOM      4  C   UNL     1      46.840   3.275   6.989  0.00  0.00    +0.000 C 
BRANCH   4   3
ATOM      3  C   UNL     1      47.359   1.851   7.134  0.00  0.00    +0.000 C 
BRANCH   3   2
ATOM      1  C   UNL     1      46.903   1.970   4.673  0.00  0.00    +0.000 C 
ATOM      2  C   UNL     1      47.652   1.236   5.771  0.00  0.00    +0.000 C 
ENDBRANCH   3   2
ENDBRANCH   4   3
ENDBRANCH   5   4
ENDBRANCH   6   5
ENDBRANCH   7   6
ENDBRANCH   8   7
ENDBRANCH   9   8
ENDBRANCH  10   9
ENDBRANCH  11  10
ENDBRANCH  12  11
ENDBRANCH  13  12
BRANCH  16  17
ATOM     17  C   UNL     1      48.686   8.074  13.062  0.00  0.00    +0.000 C 
BRANCH  17  18
ATOM     18  N   UNL     1      49.070   7.261  14.185  0.00  0.00    +0.000 N 
ATOM     19  C   UNL     1      48.884   7.700  15.470  0.00  0.00    +0.000 C 
ATOM     20  O   UNL     1      48.328   8.767  15.722  0.00  0.00    +0.000 OA
ATOM     34  H   UNL     1      49.702   6.489  14.003  0.00  0.00    +0.000 HD
BRANCH  19  21
ATOM     21  C   UNL     1      49.331   6.801  16.537  0.00  0.00    +0.000 A 
ATOM     22  C   UNL     1      50.346   7.199  17.398  0.00  0.00    +0.000 A 
ATOM     23  S   UNL     1      50.713   6.046  18.600  0.00  0.00    +0.000 S 
ATOM     24  C   UNL     1      49.560   4.956  17.983  0.00  0.00    +0.000 A 
ATOM     25  N   UNL     1      49.378   3.734  18.553  0.00  0.00    +0.000 NA
ATOM     26  C   UNL     1      48.496   2.998  17.964  0.00  0.00    +0.000 A 
ATOM     27  N   UNL     1      47.774   3.375  16.861  0.00  0.00    +0.000 N 
ATOM     28  C   UNL     1      47.898   4.612  16.274  0.00  0.00    +0.000 A 
ATOM     29  O   UNL     1      47.191   4.938  15.324  0.00  0.00    +0.000 OA
ATOM     30  C   UNL     1      48.892   5.472  16.888  0.00  0.00    +0.000 A 
ATOM     35  H   UNL     1      47.085   2.757  16.457  0.00  0.00    +0.000 HD
ENDBRANCH  19  21
ENDBRANCH  17  18
ENDBRANCH  16  17
TORSDOF 14
ENDMDL
MODEL 3
REMARK VINA RESULT:    -6.664      4.719     10.746
REMARK INTER + INTRA:         -13.313
REMARK INTER:                 -10.036
REMARK INTRA:                  -3.276
REMARK UNBOUND:                -1.196
REMARK  Name = 
REMARK  15 active torsions:
REMARK  status: ('A' for Active; 'I' for Inactive)
REMARK    1  A    between atoms: C_1  and  C_2
REMARK    2  A    between atoms: C_2  and  C_3
REMARK    3  A    between atoms: C_3  and  C_4
REMARK    4  A    between atoms: C_4  and  C_5
REMARK    5  A    between atoms: C_5  and  C_6
REMARK    6  A    between atoms: C_6  and  C_7
REMARK    7  A    between atoms: C_7  and  C_8
REMARK    8  A    between atoms: C_8  and  C_9
REMARK    9  A    between atoms: C_9  and  C_10
REMARK   10  A    between atoms: C_10  and  N_11
REMARK   11  A    between atoms: N_11  and  C_12
REMARK   12  A    between atoms: C_12  and  C_13
REMARK   13  A    between atoms: C_16  and  C_17
REMARK   14  A    between atoms: C_17  and  N_18
REMARK   15  A    between atoms: C_19  and  C_21
REMARK                            x       y       z     vdW  Elec       q    Type
REMARK                         _______ _______ _______ _____ _____    ______ ____
ROOT
ATOM     13  C   UNL     1      51.607   3.932  17.731  0.00  0.00    +0.000 A 
ATOM     14  C   UNL     1      50.813   5.060  17.479  0.00  0.00    +0.000 A 
ATOM     15  C   UNL     1      49.456   4.924  17.183  0.00  0.00    +0.000 A 
ATOM     16  C   UNL     1      48.865   3.655  17.138  0.00  0.00    +0.000 A 
ATOM     31  C   UNL     1      49.666   2.525  17.354  0.00  0.00    +0.000 A 
ATOM     32  C   UNL     1      51.022   2.662  17.660  0.00  0.00    +0.000 A 
ENDROOT
BRANCH  13  12
ATOM     12  C   UNL     1      53.053   4.095  18.142  0.00  0.00    +0.000 C 
BRANCH  12  11
ATOM     11  N   UNL     1      53.598   5.410  17.794  0.00  0.00    +0.000 NA
ATOM     33  H   UNL     1      54.303   5.296  17.068  0.00  0.00    +0.000 HD
BRANCH  11  10
ATOM     10  C   UNL     1      54.205   6.055  18.957  0.00  0.00    +0.000 C 
BRANCH  10   9
ATOM      9  C   UNL     1      53.185   6.953  19.643  0.00  0.00    +0.000 C 
BRANCH   9   8
ATOM      8  C   UNL     1      52.733   6.302  20.945  0.00  0.00    +0.000 C 
BRANCH   8   7
ATOM      7  C   UNL     1      51.218   6.301  21.048  0.00  0.00    +0.000 C 
BRANCH   7   6
ATOM      6  C   UNL     1      50.710   4.898  21.348  0.00  0.00    +0.000 C 
BRANCH   6   5
ATOM      5  C   UNL     1      49.273   4.745  20.873  0.00  0.00    +0.000 C 
BRANCH   5   4
ATOM      4  C   UNL     1      48.551   6.085  20.906  0.00  0.00    +0.000 C 
BRANCH   4   3
ATOM      3  C   UNL     1      47.388   6.088  19.923  0.00  0.00    +0.000 C 
BRANCH   3   2
ATOM      1  C   UNL     1      48.725   8.064  19.157  0.00  0.00    +0.000 C 
ATOM      2  C   UNL     1      47.379   7.365  19.091  0.00  0.00    +0.000 C 
ENDBRANCH   3   2
ENDBRANCH   4   3
ENDBRANCH   5   4
ENDBRANCH   6   5
ENDBRANCH   7   6
ENDBRANCH   8   7
ENDBRANCH   9   8
ENDBRANCH  10   9
ENDBRANCH  11  10
ENDBRANCH  12  11
ENDBRANCH  13  12
BRANCH  16  17
ATOM     17  C   UNL     1      47.396   3.503  16.848  0.00  0.00    +0.000 C 
BRANCH  17  18
ATOM     18  N   UNL     1      46.945   4.480  15.894  0.00  0.00    +0.000 N 
ATOM     19  C   UNL     1      46.949   4.208  14.550  0.00  0.00    +0.000 C 
ATOM     20  O   UNL     1      47.270   3.107  14.107  0.00  0.00    +0.000 OA
ATOM     34  H   UNL     1      46.874   5.440  16.213  0.00  0.00    +0.000 HD
BRANCH  19  21
ATOM     21  C   UNL     1      46.490   5.282  13.666  0.00  0.00    +0.000 A 
ATOM     22  C   UNL     1      47.291   6.398  13.460  0.00  0.00    +0.000 A 
ATOM     23  S   UNL     1      46.618   7.531  12.376  0.00  0.00    +0.000 S 
ATOM     24  C   UNL     1      45.213   6.590  12.181  0.00  0.00    +0.000 A 
ATOM     25  N   UNL     1      44.196   7.010  11.379  0.00  0.00    +0.000 NA
ATOM     26  C   UNL     1      43.179   6.216  11.350  0.00  0.00    +0.000 A 
ATOM     27  N   UNL     1      43.088   5.036  12.043  0.00  0.00    +0.000 N 
ATOM     28  C   UNL     1      44.103   4.555  12.834  0.00  0.00    +0.000 A 
ATOM     29  O   UNL     1      44.012   3.465  13.393  0.00  0.00    +0.000 OA
ATOM     30  C   UNL     1      45.264   5.421  12.917  0.00  0.00    +0.000 A 
ATOM     35  H   UNL     1      42.269   4.451  11.964  0.00  0.00    +0.000 HD
ENDBRANCH  19  21
ENDBRANCH  17  18
ENDBRANCH  16  17
TORSDOF 14
ENDMDL
MODEL 4
REMARK VINA RESULT:    -6.598      2.299      3.086
REMARK INTER + INTRA:         -13.194
REMARK INTER:                 -11.512
REMARK INTRA:                  -1.682
REMARK UNBOUND:                -1.196
REMARK  Name = 
REMARK  15 active torsions:
REMARK  status: ('A' for Active; 'I' for Inactive)
REMARK    1  A    between atoms: C_1  and  C_2
REMARK    2  A    between atoms: C_2  and  C_3
REMARK    3  A    between atoms: C_3  and  C_4
REMARK    4  A    between atoms: C_4  and  C_5
REMARK    5  A    between atoms: C_5  and  C_6
REMARK    6  A    between atoms: C_6  and  C_7
REMARK    7  A    between atoms: C_7  and  C_8
REMARK    8  A    between atoms: C_8  and  C_9
REMARK    9  A    between atoms: C_9  and  C_10
REMARK   10  A    between atoms: C_10  and  N_11
REMARK   11  A    between atoms: N_11  and  C_12
REMARK   12  A    between atoms: C_12  and  C_13
REMARK   13  A    between atoms: C_16  and  C_17
REMARK   14  A    between atoms: C_17  and  N_18
REMARK   15  A    between atoms: C_19  and  C_21
REMARK                            x       y       z     vdW  Elec       q    Type
REMARK                         _______ _______ _______ _____ _____    ______ ____
ROOT
ATOM     13  C   UNL     1      45.899   7.072  12.281  0.00  0.00    +0.000 A 
ATOM     14  C   UNL     1      46.241   8.426  12.155  0.00  0.00    +0.000 A 
ATOM     15  C   UNL     1      47.570   8.837  12.266  0.00  0.00    +0.000 A 
ATOM     16  C   UNL     1      48.584   7.901  12.502  0.00  0.00    +0.000 A 
ATOM     31  C   UNL     1      48.239   6.553  12.664  0.00  0.00    +0.000 A 
ATOM     32  C   UNL     1      46.910   6.139  12.543  0.00  0.00    +0.000 A 
ENDROOT
BRANCH  13  12
ATOM     12  C   UNL     1      44.471   6.624  12.066  0.00  0.00    +0.000 C 
BRANCH  12  11
ATOM     11  N   UNL     1      43.915   5.924  13.227  0.00  0.00    +0.000 NA
ATOM     33  H   UNL     1      44.653   5.386  13.677  0.00  0.00    +0.000 HD
BRANCH  11  10
ATOM     10  C   UNL     1      42.834   5.022  12.833  0.00  0.00    +0.000 C 
BRANCH  10   9
ATOM      9  C   UNL     1      43.037   4.565  11.396  0.00  0.00    +0.000 C 
BRANCH   9   8
ATOM      8  C   UNL     1      43.514   3.118  11.388  0.00  0.00    +0.000 C 
BRANCH   8   7
ATOM      7  C   UNL     1      44.471   2.873  10.233  0.00  0.00    +0.000 C 
BRANCH   7   6
ATOM      6  C   UNL     1      44.627   4.137   9.401  0.00  0.00    +0.000 C 
BRANCH   6   5
ATOM      5  C   UNL     1      44.875   3.781   7.943  0.00  0.00    +0.000 C 
BRANCH   5   4
ATOM      4  C   UNL     1      46.360   3.866   7.613  0.00  0.00    +0.000 C 
BRANCH   4   3
ATOM      3  C   UNL     1      46.683   3.024   6.386  0.00  0.00    +0.000 C 
BRANCH   3   2
ATOM      1  C   UNL     1      47.206   0.756   7.314  0.00  0.00    +0.000 C 
ATOM      2  C   UNL     1      47.783   2.015   6.691  0.00  0.00    +0.000 C 
ENDBRANCH   3   2
ENDBRANCH   4   3
ENDBRANCH   5   4
ENDBRANCH   6   5
ENDBRANCH   7   6
ENDBRANCH   8   7
ENDBRANCH   9   8
ENDBRANCH  10   9
ENDBRANCH  11  10
ENDBRANCH  12  11
ENDBRANCH  13  12
BRANCH  16  17
ATOM     17  C   UNL     1      50.023   8.335  12.594  0.00  0.00    +0.000 C 
BRANCH  17  18
ATOM     18  N   UNL     1      50.742   7.566  13.574  0.00  0.00    +0.000 N 
ATOM     19  C   UNL     1      50.873   8.012  14.864  0.00  0.00    +0.000 C 
ATOM     20  O   UNL     1      50.332   9.043  15.256  0.00  0.00    +0.000 OA
ATOM     34  H   UNL     1      51.355   6.834  13.229  0.00  0.00    +0.000 HD
BRANCH  19  21
ATOM     21  C   UNL     1      51.644   7.160  15.773  0.00  0.00    +0.000 A 
ATOM     22  C   UNL     1      53.029   7.261  15.808  0.00  0.00    +0.000 A 
ATOM     23  S   UNL     1      53.760   6.223  16.947  0.00  0.00    +0.000 S 
ATOM     24  C   UNL     1      52.255   5.569  17.399  0.00  0.00    +0.000 A 
ATOM     25  N   UNL     1      52.172   4.589  18.339  0.00  0.00    +0.000 NA
ATOM     26  C   UNL     1      50.974   4.163  18.560  0.00  0.00    +0.000 A 
ATOM     27  N   UNL     1      49.849   4.633  17.931  0.00  0.00    +0.000 N 
ATOM     28  C   UNL     1      49.880   5.646  17.003  0.00  0.00    +0.000 A 
ATOM     29  O   UNL     1      48.846   6.084  16.505  0.00  0.00    +0.000 OA
ATOM     30  C   UNL     1      51.208   6.147  16.704  0.00  0.00    +0.000 A 
ATOM     35  H   UNL     1      48.936   4.267  18.162  0.00  0.00    +0.000 HD
ENDBRANCH  19  21
ENDBRANCH  17  18
ENDBRANCH  16  17
TORSDOF 14
ENDMDL
MODEL 5
REMARK VINA RESULT:    -6.528      3.018      3.710
REMARK INTER + INTRA:         -13.067
REMARK INTER:                 -11.611
REMARK INTRA:                  -1.456
REMARK UNBOUND:                -1.196
REMARK  Name = 
REMARK  15 active torsions:
REMARK  status: ('A' for Active; 'I' for Inactive)
REMARK    1  A    between atoms: C_1  and  C_2
REMARK    2  A    between atoms: C_2  and  C_3
REMARK    3  A    between atoms: C_3  and  C_4
REMARK    4  A    between atoms: C_4  and  C_5
REMARK    5  A    between atoms: C_5  and  C_6
REMARK    6  A    between atoms: C_6  and  C_7
REMARK    7  A    between atoms: C_7  and  C_8
REMARK    8  A    between atoms: C_8  and  C_9
REMARK    9  A    between atoms: C_9  and  C_10
REMARK   10  A    between atoms: C_10  and  N_11
REMARK   11  A    between atoms: N_11  and  C_12
REMARK   12  A    between atoms: C_12  and  C_13
REMARK   13  A    between atoms: C_16  and  C_17
REMARK   14  A    between atoms: C_17  and  N_18
REMARK   15  A    between atoms: C_19  and  C_21
REMARK                            x       y       z     vdW  Elec       q    Type
REMARK                         _______ _______ _______ _____ _____    ______ ____
ROOT
ATOM     13  C   UNL     1      46.978   4.826  14.299  0.00  0.00    +0.000 A 
ATOM     14  C   UNL     1      47.703   6.008  14.094  0.00  0.00    +0.000 A 
ATOM     15  C   UNL     1      48.490   6.546  15.112  0.00  0.00    +0.000 A 
ATOM     16  C   UNL     1      48.572   5.908  16.357  0.00  0.00    +0.000 A 
ATOM     31  C   UNL     1      47.819   4.747  16.574  0.00  0.00    +0.000 A 
ATOM     32  C   UNL     1      47.038   4.203  15.551  0.00  0.00    +0.000 A 
ENDROOT
BRANCH  13  12
ATOM     12  C   UNL     1      46.202   4.201  13.162  0.00  0.00    +0.000 C 
BRANCH  12  11
ATOM     11  N   UNL     1      45.112   5.053  12.681  0.00  0.00    +0.000 NA
ATOM     33  H   UNL     1      44.224   4.666  12.994  0.00  0.00    +0.000 HD
BRANCH  11  10
ATOM     10  C   UNL     1      45.112   5.139  11.222  0.00  0.00    +0.000 C 
BRANCH  10   9
ATOM      9  C   UNL     1      43.890   4.427  10.660  0.00  0.00    +0.000 C 
BRANCH   9   8
ATOM      8  C   UNL     1      44.215   3.881   9.275  0.00  0.00    +0.000 C 
BRANCH   8   7
ATOM      7  C   UNL     1      44.695   2.442   9.362  0.00  0.00    +0.000 C 
BRANCH   7   6
ATOM      6  C   UNL     1      45.835   2.205   8.383  0.00  0.00    +0.000 C 
BRANCH   6   5
ATOM      5  C   UNL     1      46.223   3.508   7.700  0.00  0.00    +0.000 C 
BRANCH   5   4
ATOM      4  C   UNL     1      46.603   3.262   6.247  0.00  0.00    +0.000 C 
BRANCH   4   3
ATOM      3  C   UNL     1      47.418   1.982   6.119  0.00  0.00    +0.000 C 
BRANCH   3   2
ATOM      1  C   UNL     1      46.917   0.342   4.291  0.00  0.00    +0.000 C 
ATOM      2  C   UNL     1      47.646   1.623   4.655  0.00  0.00    +0.000 C 
ENDBRANCH   3   2
ENDBRANCH   4   3
ENDBRANCH   5   4
ENDBRANCH   6   5
ENDBRANCH   7   6
ENDBRANCH   8   7
ENDBRANCH   9   8
ENDBRANCH  10   9
ENDBRANCH  11  10
ENDBRANCH  12  11
ENDBRANCH  13  12
BRANCH  16  17
ATOM     17  C   UNL     1      49.443   6.467  17.450  0.00  0.00    +0.000 C 
BRANCH  17  18
ATOM     18  N   UNL     1      50.413   5.502  17.894  0.00  0.00    +0.000 N 
ATOM     19  C   UNL     1      51.643   5.411  17.294  0.00  0.00    +0.000 C 
ATOM     20  O   UNL     1      51.996   6.184  16.406  0.00  0.00    +0.000 OA
ATOM     34  H   UNL     1      50.076   4.738  18.470  0.00  0.00    +0.000 HD
BRANCH  19  21
ATOM     21  C   UNL     1      52.545   4.378  17.811  0.00  0.00    +0.000 A 
ATOM     22  C   UNL     1      53.752   4.743  18.393  0.00  0.00    +0.000 A 
ATOM     23  S   UNL     1      54.658   3.418  18.971  0.00  0.00    +0.000 S 
ATOM     24  C   UNL     1      53.489   2.309  18.422  0.00  0.00    +0.000 A 
ATOM     25  N   UNL     1      53.664   0.969  18.586  0.00  0.00    +0.000 NA
ATOM     26  C   UNL     1      52.716   0.244  18.094  0.00  0.00    +0.000 A 
ATOM     27  N   UNL     1      51.605   0.737  17.459  0.00  0.00    +0.000 N 
ATOM     28  C   UNL     1      51.368   2.081  17.304  0.00  0.00    +0.000 A 
ATOM     29  O   UNL     1      50.332   2.489  16.783  0.00  0.00    +0.000 OA
ATOM     30  C   UNL     1      52.414   2.941  17.823  0.00  0.00    +0.000 A 
ATOM     35  H   UNL     1      50.890   0.115  17.110  0.00  0.00    +0.000 HD
ENDBRANCH  19  21
ENDBRANCH  17  18
ENDBRANCH  16  17
TORSDOF 14
ENDMDL
MODEL 6
REMARK VINA RESULT:    -6.489      4.651     10.079
REMARK INTER + INTRA:         -12.996
REMARK INTER:                  -9.626
REMARK INTRA:                  -3.369
REMARK UNBOUND:                -1.196
REMARK  Name = 
REMARK  15 active torsions:
REMARK  status: ('A' for Active; 'I' for Inactive)
REMARK    1  A    between atoms: C_1  and  C_2
REMARK    2  A    between atoms: C_2  and  C_3
REMARK    3  A    between atoms: C_3  and  C_4
REMARK    4  A    between atoms: C_4  and  C_5
REMARK    5  A    between atoms: C_5  and  C_6
REMARK    6  A    between atoms: C_6  and  C_7
REMARK    7  A    between atoms: C_7  and  C_8
REMARK    8  A    between atoms: C_8  and  C_9
REMARK    9  A    between atoms: C_9  and  C_10
REMARK   10  A    between atoms: C_10  and  N_11
REMARK   11  A    between atoms: N_11  and  C_12
REMARK   12  A    between atoms: C_12  and  C_13
REMARK   13  A    between atoms: C_16  and  C_17
REMARK   14  A    between atoms: C_17  and  N_18
REMARK   15  A    between atoms: C_19  and  C_21
REMARK                            x       y       z     vdW  Elec       q    Type
REMARK                         _______ _______ _______ _____ _____    ______ ____
ROOT
ATOM     13  C   UNL     1      48.064   5.572  20.567  0.00  0.00    +0.000 A 
ATOM     14  C   UNL     1      48.838   4.461  20.207  0.00  0.00    +0.000 A 
ATOM     15  C   UNL     1      48.685   3.860  18.957  0.00  0.00    +0.000 A 
ATOM     16  C   UNL     1      47.756   4.365  18.038  0.00  0.00    +0.000 A 
ATOM     31  C   UNL     1      46.956   5.453  18.410  0.00  0.00    +0.000 A 
ATOM     32  C   UNL     1      47.115   6.060  19.659  0.00  0.00    +0.000 A 
ENDROOT
BRANCH  13  12
ATOM     12  C   UNL     1      48.301   6.272  21.885  0.00  0.00    +0.000 C 
BRANCH  12  11
ATOM     11  N   UNL     1      49.600   6.949  21.944  0.00  0.00    +0.000 NA
ATOM     33  H   UNL     1      49.924   6.964  22.909  0.00  0.00    +0.000 HD
BRANCH  11  10
ATOM     10  C   UNL     1      49.504   8.320  21.447  0.00  0.00    +0.000 C 
BRANCH  10   9
ATOM      9  C   UNL     1      50.352   8.478  20.193  0.00  0.00    +0.000 C 
BRANCH   9   8
ATOM      8  C   UNL     1      49.493   9.047  19.070  0.00  0.00    +0.000 C 
BRANCH   8   7
ATOM      7  C   UNL     1      49.552   8.155  17.842  0.00  0.00    +0.000 C 
BRANCH   7   6
ATOM      6  C   UNL     1      50.427   6.940  18.114  0.00  0.00    +0.000 C 
BRANCH   6   5
ATOM      5  C   UNL     1      50.959   6.370  16.808  0.00  0.00    +0.000 C 
BRANCH   5   4
ATOM      4  C   UNL     1      52.167   5.478  17.063  0.00  0.00    +0.000 C 
BRANCH   4   3
ATOM      3  C   UNL     1      52.442   5.369  18.557  0.00  0.00    +0.000 C 
BRANCH   3   2
ATOM      1  C   UNL     1      52.120   2.985  17.858  0.00  0.00    +0.000 C 
ATOM      2  C   UNL     1      52.523   3.911  18.991  0.00  0.00    +0.000 C 
ENDBRANCH   3   2
ENDBRANCH   4   3
ENDBRANCH   5   4
ENDBRANCH   6   5
ENDBRANCH   7   6
ENDBRANCH   8   7
ENDBRANCH   9   8
ENDBRANCH  10   9
ENDBRANCH  11  10
ENDBRANCH  12  11
ENDBRANCH  13  12
BRANCH  16  17
ATOM     17  C   UNL     1      47.607   3.740  16.676  0.00  0.00    +0.000 C 
BRANCH  17  18
ATOM     18  N   UNL     1      47.034   4.665  15.735  0.00  0.00    +0.000 N 
ATOM     19  C   UNL     1      46.878   4.323  14.416  0.00  0.00    +0.000 C 
ATOM     20  O   UNL     1      47.154   3.202  13.995  0.00  0.00    +0.000 OA
ATOM     34  H   UNL     1      46.993   5.640  16.010  0.00  0.00    +0.000 HD
BRANCH  19  21
ATOM     21  C   UNL     1      46.305   5.349  13.541  0.00  0.00    +0.000 A 
ATOM     22  C   UNL     1      47.026   6.502  13.262  0.00  0.00    +0.000 A 
ATOM     23  S   UNL     1      46.224   7.569  12.199  0.00  0.00    +0.000 S 
ATOM     24  C   UNL     1      44.866   6.546  12.111  0.00  0.00    +0.000 A 
ATOM     25  N   UNL     1      43.780   6.889  11.366  0.00  0.00    +0.000 NA
ATOM     26  C   UNL     1      42.811   6.038  11.416  0.00  0.00    +0.000 A 
ATOM     27  N   UNL     1      42.830   4.872  12.138  0.00  0.00    +0.000 N 
ATOM     28  C   UNL     1      43.918   4.468  12.874  0.00  0.00    +0.000 A 
ATOM     29  O   UNL     1      43.924   3.388  13.459  0.00  0.00    +0.000 OA
ATOM     30  C   UNL     1      45.029   5.400  12.867  0.00  0.00    +0.000 A 
ATOM     35  H   UNL     1      42.043   4.240  12.121  0.00  0.00    +0.000 HD
ENDBRANCH  19  21
ENDBRANCH  17  18
ENDBRANCH  16  17
TORSDOF 14
ENDMDL
MODEL 7
REMARK VINA RESULT:    -6.433      4.597      9.810
REMARK INTER + INTRA:         -12.894
REMARK INTER:                  -9.608
REMARK INTRA:                  -3.287
REMARK UNBOUND:                -1.196
REMARK  Name = 
REMARK  15 active torsions:
REMARK  status: ('A' for Active; 'I' for Inactive)
REMARK    1  A    between atoms: C_1  and  C_2
REMARK    2  A    between atoms: C_2  and  C_3
REMARK    3  A    between atoms: C_3  and  C_4
REMARK    4  A    between atoms: C_4  and  C_5
REMARK    5  A    between atoms: C_5  and  C_6
REMARK    6  A    between atoms: C_6  and  C_7
REMARK    7  A    between atoms: C_7  and  C_8
REMARK    8  A    between atoms: C_8  and  C_9
REMARK    9  A    between atoms: C_9  and  C_10
REMARK   10  A    between atoms: C_10  and  N_11
REMARK   11  A    between atoms: N_11  and  C_12
REMARK   12  A    between atoms: C_12  and  C_13
REMARK   13  A    between atoms: C_16  and  C_17
REMARK   14  A    between atoms: C_17  and  N_18
REMARK   15  A    between atoms: C_19  and  C_21
REMARK                            x       y       z     vdW  Elec       q    Type
REMARK                         _______ _______ _______ _____ _____    ______ ____
ROOT
ATOM     13  C   UNL     1      48.171   5.396  20.402  0.00  0.00    +0.000 A 
ATOM     14  C   UNL     1      47.239   5.954  19.516  0.00  0.00    +0.000 A 
ATOM     15  C   UNL     1      47.016   5.381  18.263  0.00  0.00    +0.000 A 
ATOM     16  C   UNL     1      47.719   4.235  17.873  0.00  0.00    +0.000 A 
ATOM     31  C   UNL     1      48.677   3.697  18.743  0.00  0.00    +0.000 A 
ATOM     32  C   UNL     1      48.894   4.265  20.001  0.00  0.00    +0.000 A 
ENDROOT
BRANCH  13  12
ATOM     12  C   UNL     1      48.338   5.968  21.791  0.00  0.00    +0.000 C 
BRANCH  12  11
ATOM     11  N   UNL     1      49.350   7.026  21.852  0.00  0.00    +0.000 NA
ATOM     33  H   UNL     1      49.836   6.971  22.745  0.00  0.00    +0.000 HD
BRANCH  11  10
ATOM     10  C   UNL     1      48.741   8.348  21.718  0.00  0.00    +0.000 C 
BRANCH  10   9
ATOM      9  C   UNL     1      49.321   9.066  20.507  0.00  0.00    +0.000 C 
BRANCH   9   8
ATOM      8  C   UNL     1      50.464   8.241  19.929  0.00  0.00    +0.000 C 
BRANCH   8   7
ATOM      7  C   UNL     1      50.179   7.863  18.486  0.00  0.00    +0.000 C 
BRANCH   7   6
ATOM      6  C   UNL     1      51.149   6.787  18.021  0.00  0.00    +0.000 C 
BRANCH   6   5
ATOM      5  C   UNL     1      50.616   6.099  16.774  0.00  0.00    +0.000 C 
BRANCH   5   4
ATOM      4  C   UNL     1      49.593   6.980  16.070  0.00  0.00    +0.000 C 
BRANCH   4   3
ATOM      3  C   UNL     1      50.111   7.411  14.704  0.00  0.00    +0.000 C 
BRANCH   3   2
ATOM      1  C   UNL     1      52.371   8.453  14.405  0.00  0.00    +0.000 C 
ATOM      2  C   UNL     1      50.928   8.694  14.810  0.00  0.00    +0.000 C 
ENDBRANCH   3   2
ENDBRANCH   4   3
ENDBRANCH   5   4
ENDBRANCH   6   5
ENDBRANCH   7   6
ENDBRANCH   8   7
ENDBRANCH   9   8
ENDBRANCH  10   9
ENDBRANCH  11  10
ENDBRANCH  12  11
ENDBRANCH  13  12
BRANCH  16  17
ATOM     17  C   UNL     1      47.462   3.595  16.535  0.00  0.00    +0.000 C 
BRANCH  17  18
ATOM     18  N   UNL     1      46.855   4.522  15.617  0.00  0.00    +0.000 N 
ATOM     19  C   UNL     1      46.789   4.246  14.276  0.00  0.00    +0.000 C 
ATOM     20  O   UNL     1      47.179   3.178  13.809  0.00  0.00    +0.000 OA
ATOM     34  H   UNL     1      46.718   5.473  15.943  0.00  0.00    +0.000 HD
BRANCH  19  21
ATOM     21  C   UNL     1      46.170   5.270  13.430  0.00  0.00    +0.000 A 
ATOM     22  C   UNL     1      46.830   6.471  13.203  0.00  0.00    +0.000 A 
ATOM     23  S   UNL     1      45.983   7.530  12.168  0.00  0.00    +0.000 S 
ATOM     24  C   UNL     1      44.685   6.438  12.024  0.00  0.00    +0.000 A 
ATOM     25  N   UNL     1      43.591   6.748  11.277  0.00  0.00    +0.000 NA
ATOM     26  C   UNL     1      42.669   5.844  11.282  0.00  0.00    +0.000 A 
ATOM     27  N   UNL     1      42.745   4.655  11.962  0.00  0.00    +0.000 N 
ATOM     28  C   UNL     1      43.844   4.285  12.699  0.00  0.00    +0.000 A 
ATOM     29  O   UNL     1      43.903   3.186  13.245  0.00  0.00    +0.000 OA
ATOM     30  C   UNL     1      44.902   5.276  12.740  0.00  0.00    +0.000 A 
ATOM     35  H   UNL     1      41.994   3.982  11.912  0.00  0.00    +0.000 HD
ENDBRANCH  19  21
ENDBRANCH  17  18
ENDBRANCH  16  17
TORSDOF 14
ENDMDL
MODEL 8
REMARK VINA RESULT:    -6.140      4.173     10.122
REMARK INTER + INTRA:         -12.361
REMARK INTER:                  -9.637
REMARK INTRA:                  -2.724
REMARK UNBOUND:                -1.196
REMARK  Name = 
REMARK  15 active torsions:
REMARK  status: ('A' for Active; 'I' for Inactive)
REMARK    1  A    between atoms: C_1  and  C_2
REMARK    2  A    between atoms: C_2  and  C_3
REMARK    3  A    between atoms: C_3  and  C_4
REMARK    4  A    between atoms: C_4  and  C_5
REMARK    5  A    between atoms: C_5  and  C_6
REMARK    6  A    between atoms: C_6  and  C_7
REMARK    7  A    between atoms: C_7  and  C_8
REMARK    8  A    between atoms: C_8  and  C_9
REMARK    9  A    between atoms: C_9  and  C_10
REMARK   10  A    between atoms: C_10  and  N_11
REMARK   11  A    between atoms: N_11  and  C_12
REMARK   12  A    between atoms: C_12  and  C_13
REMARK   13  A    between atoms: C_16  and  C_17
REMARK   14  A    between atoms: C_17  and  N_18
REMARK   15  A    between atoms: C_19  and  C_21
REMARK                            x       y       z     vdW  Elec       q    Type
REMARK                         _______ _______ _______ _____ _____    ______ ____
ROOT
ATOM     13  C   UNL     1      48.706   5.155  19.400  0.00  0.00    +0.000 A 
ATOM     14  C   UNL     1      49.110   4.401  18.289  0.00  0.00    +0.000 A 
ATOM     15  C   UNL     1      49.167   4.978  17.020  0.00  0.00    +0.000 A 
ATOM     16  C   UNL     1      48.825   6.324  16.837  0.00  0.00    +0.000 A 
ATOM     31  C   UNL     1      48.386   7.068  17.940  0.00  0.00    +0.000 A 
ATOM     32  C   UNL     1      48.338   6.493  19.213  0.00  0.00    +0.000 A 
ENDROOT
BRANCH  13  12
ATOM     12  C   UNL     1      48.736   4.549  20.784  0.00  0.00    +0.000 C 
BRANCH  12  11
ATOM     11  N   UNL     1      50.086   4.497  21.352  0.00  0.00    +0.000 NA
ATOM     33  H   UNL     1      50.166   3.673  21.945  0.00  0.00    +0.000 HD
BRANCH  11  10
ATOM     10  C   UNL     1      50.372   5.690  22.147  0.00  0.00    +0.000 C 
BRANCH  10   9
ATOM      9  C   UNL     1      51.686   6.312  21.696  0.00  0.00    +0.000 C 
BRANCH   9   8
ATOM      8  C   UNL     1      51.402   7.424  20.693  0.00  0.00    +0.000 C 
BRANCH   8   7
ATOM      7  C   UNL     1      52.209   7.221  19.422  0.00  0.00    +0.000 C 
BRANCH   7   6
ATOM      6  C   UNL     1      52.949   5.893  19.474  0.00  0.00    +0.000 C 
BRANCH   6   5
ATOM      5  C   UNL     1      52.674   5.086  18.213  0.00  0.00    +0.000 C 
BRANCH   5   4
ATOM      4  C   UNL     1      53.921   4.332  17.774  0.00  0.00    +0.000 C 
BRANCH   4   3
ATOM      3  C   UNL     1      53.690   2.829  17.852  0.00  0.00    +0.000 C 
BRANCH   3   2
ATOM      1  C   UNL     1      51.879   1.141  17.466  0.00  0.00    +0.000 C 
ATOM      2  C   UNL     1      52.209   2.513  18.025  0.00  0.00    +0.000 C 
ENDBRANCH   3   2
ENDBRANCH   4   3
ENDBRANCH   5   4
ENDBRANCH   6   5
ENDBRANCH   7   6
ENDBRANCH   8   7
ENDBRANCH   9   8
ENDBRANCH  10   9
ENDBRANCH  11  10
ENDBRANCH  12  11
ENDBRANCH  13  12
BRANCH  16  17
ATOM     17  C   UNL     1      48.913   6.960  15.475  0.00  0.00    +0.000 C 
BRANCH  17  18
ATOM     18  N   UNL     1      47.697   6.773  14.729  0.00  0.00    +0.000 N 
ATOM     19  C   UNL     1      47.717   6.219  13.475  0.00  0.00    +0.000 C 
ATOM     20  O   UNL     1      48.753   5.799  12.963  0.00  0.00    +0.000 OA
ATOM     34  H   UNL     1      46.880   7.288  15.039  0.00  0.00    +0.000 HD
BRANCH  19  21
ATOM     21  C   UNL     1      46.425   6.095  12.796  0.00  0.00    +0.000 A 
ATOM     22  C   UNL     1      45.801   7.226  12.285  0.00  0.00    +0.000 A 
ATOM     23  S   UNL     1      44.324   6.894  11.497  0.00  0.00    +0.000 S 
ATOM     24  C   UNL     1      44.446   5.234  11.853  0.00  0.00    +0.000 A 
ATOM     25  N   UNL     1      43.472   4.364  11.470  0.00  0.00    +0.000 NA
ATOM     26  C   UNL     1      43.677   3.142  11.834  0.00  0.00    +0.000 A 
ATOM     27  N   UNL     1      44.770   2.709  12.540  0.00  0.00    +0.000 N 
ATOM     28  C   UNL     1      45.795   3.544  12.914  0.00  0.00    +0.000 A 
ATOM     29  O   UNL     1      46.789   3.111  13.493  0.00  0.00    +0.000 OA
ATOM     30  C   UNL     1      45.605   4.934  12.546  0.00  0.00    +0.000 A 
ATOM     35  H   UNL     1      44.879   1.734  12.779  0.00  0.00    +0.000 HD
ENDBRANCH  19  21
ENDBRANCH  17  18
ENDBRANCH  16  17
TORSDOF 14
ENDMDL
MODEL 9
REMARK VINA RESULT:    -6.072      3.828      9.843
REMARK INTER + INTRA:         -12.238
REMARK INTER:                  -9.862
REMARK INTRA:                  -2.376
REMARK UNBOUND:                -1.196
REMARK  Name = 
REMARK  15 active torsions:
REMARK  status: ('A' for Active; 'I' for Inactive)
REMARK    1  A    between atoms: C_1  and  C_2
REMARK    2  A    between atoms: C_2  and  C_3
REMARK    3  A    between atoms: C_3  and  C_4
REMARK    4  A    between atoms: C_4  and  C_5
REMARK    5  A    between atoms: C_5  and  C_6
REMARK    6  A    between atoms: C_6  and  C_7
REMARK    7  A    between atoms: C_7  and  C_8
REMARK    8  A    between atoms: C_8  and  C_9
REMARK    9  A    between atoms: C_9  and  C_10
REMARK   10  A    between atoms: C_10  and  N_11
REMARK   11  A    between atoms: N_11  and  C_12
REMARK   12  A    between atoms: C_12  and  C_13
REMARK   13  A    between atoms: C_16  and  C_17
REMARK   14  A    between atoms: C_17  and  N_18
REMARK   15  A    between atoms: C_19  and  C_21
REMARK                            x       y       z     vdW  Elec       q    Type
REMARK                         _______ _______ _______ _____ _____    ______ ____
ROOT
ATOM     13  C   UNL     1      50.265   7.756  15.384  0.00  0.00    +0.000 A 
ATOM     14  C   UNL     1      48.881   7.540  15.447  0.00  0.00    +0.000 A 
ATOM     15  C   UNL     1      48.100   7.579  14.291  0.00  0.00    +0.000 A 
ATOM     16  C   UNL     1      48.691   7.830  13.046  0.00  0.00    +0.000 A 
ATOM     31  C   UNL     1      50.068   8.082  12.986  0.00  0.00    +0.000 A 
ATOM     32  C   UNL     1      50.851   8.034  14.143  0.00  0.00    +0.000 A 
ENDROOT
BRANCH  13  12
ATOM     12  C   UNL     1      51.115   7.620  16.626  0.00  0.00    +0.000 C 
BRANCH  12  11
ATOM     11  N   UNL     1      50.861   8.679  17.607  0.00  0.00    +0.000 NA
ATOM     33  H   UNL     1      51.741   9.137  17.838  0.00  0.00    +0.000 HD
BRANCH  11  10
ATOM     10  C   UNL     1      50.265   8.138  18.827  0.00  0.00    +0.000 C 
BRANCH  10   9
ATOM      9  C   UNL     1      50.618   6.664  18.968  0.00  0.00    +0.000 C 
BRANCH   9   8
ATOM      8  C   UNL     1      49.391   5.894  19.442  0.00  0.00    +0.000 C 
BRANCH   8   7
ATOM      7  C   UNL     1      48.123   6.480  18.845  0.00  0.00    +0.000 C 
BRANCH   7   6
ATOM      6  C   UNL     1      47.091   5.385  18.618  0.00  0.00    +0.000 C 
BRANCH   6   5
ATOM      5  C   UNL     1      47.319   4.718  17.270  0.00  0.00    +0.000 C 
BRANCH   5   4
ATOM      4  C   UNL     1      47.283   3.202  17.407  0.00  0.00    +0.000 C 
BRANCH   4   3
ATOM      3  C   UNL     1      48.588   2.690  18.003  0.00  0.00    +0.000 C 
BRANCH   3   2
ATOM      1  C   UNL     1      51.009   2.460  17.400  0.00  0.00    +0.000 C 
ATOM      2  C   UNL     1      49.580   2.320  16.907  0.00  0.00    +0.000 C 
ENDBRANCH   3   2
ENDBRANCH   4   3
ENDBRANCH   5   4
ENDBRANCH   6   5
ENDBRANCH   7   6
ENDBRANCH   8   7
ENDBRANCH   9   8
ENDBRANCH  10   9
ENDBRANCH  11  10
ENDBRANCH  12  11
ENDBRANCH  13  12
BRANCH  16  17
ATOM     17  C   UNL     1      47.859   7.844  11.791  0.00  0.00    +0.000 C 
BRANCH  17  18
ATOM     18  N   UNL     1      47.103   6.628  11.649  0.00  0.00    +0.000 N 
ATOM     19  C   UNL     1      45.732   6.644  11.666  0.00  0.00    +0.000 C 
ATOM     20  O   UNL     1      45.092   7.691  11.734  0.00  0.00    +0.000 OA
ATOM     34  H   UNL     1      47.598   5.755  11.797  0.00  0.00    +0.000 HD
BRANCH  19  21
ATOM     21  C   UNL     1      45.063   5.347  11.536  0.00  0.00    +0.000 A 
ATOM     22  C   UNL     1      44.371   4.815  12.615  0.00  0.00    +0.000 A 
ATOM     23  S   UNL     1      43.625   3.318  12.277  0.00  0.00    +0.000 S 
ATOM     24  C   UNL     1      44.241   3.308  10.690  0.00  0.00    +0.000 A 
ATOM     25  N   UNL     1      43.988   2.270   9.848  0.00  0.00    +0.000 NA
ATOM     26  C   UNL     1      44.544   2.377   8.688  0.00  0.00    +0.000 A 
ATOM     27  N   UNL     1      45.325   3.432   8.290  0.00  0.00    +0.000 N 
ATOM     28  C   UNL     1      45.576   4.519   9.093  0.00  0.00    +0.000 A 
ATOM     29  O   UNL     1      46.230   5.475   8.682  0.00  0.00    +0.000 OA
ATOM     30  C   UNL     1      44.989   4.439  10.416  0.00  0.00    +0.000 A 
ATOM     35  H   UNL     1      45.718   3.464   7.361  0.00  0.00    +0.000 HD
ENDBRANCH  19  21
ENDBRANCH  17  18
ENDBRANCH  16  17
TORSDOF 14
ENDMDL
