MODEL 1
REMARK VINA RESULT:    -8.582      0.000      0.000
REMARK INTER + INTRA:         -11.977
REMARK INTER:                 -11.091
REMARK INTRA:                  -0.886
REMARK UNBOUND:                -0.886
REMARK  Name = 
REMARK  7 active torsions:
REMARK  status: ('A' for Active; 'I' for Inactive)
REMARK    1  A    between atoms: C_1  and  C_2
REMARK    2  A    between atoms: C_2  and  C_3
REMARK    3  A    between atoms: C_2  and  C_4
REMARK    4  A    between atoms: C_2  and  C_15
REMARK    5  A    between atoms: C_4  and  N_5
REMARK    6  A    between atoms: C_9  and  C_10
REMARK    7  A    between atoms: C_19  and  N_20
REMARK                            x       y       z     vdW  Elec       q    Type
REMARK                         _______ _______ _______ _____ _____    ______ ____
ROOT
ATOM      1  C   UNL     1      42.860   6.258  11.428  0.00  0.00    +0.000 C 
ATOM      2  C   UNL     1      43.623   5.068  12.050  0.00  0.00    +0.000 C 
ATOM      3  C   UNL     1      42.962   4.673  13.394  0.00  0.00    +0.000 C 
ENDROOT
BRANCH   2  15
ATOM     15  C   UNL     1      45.083   5.496  12.337  0.00  0.00    +0.000 A 
ATOM     16  C   UNL     1      45.720   6.427  11.498  0.00  0.00    +0.000 A 
ATOM     17  C   UNL     1      47.007   6.878  11.774  0.00  0.00    +0.000 A 
ATOM     18  C   UNL     1      47.672   6.429  12.912  0.00  0.00    +0.000 A 
ATOM     19  C   UNL     1      47.087   5.510  13.788  0.00  0.00    +0.000 A 
ATOM     26  C   UNL     1      45.809   5.032  13.456  0.00  0.00    +0.000 A 
BRANCH  19  20
ATOM     20  N   UNL     1      47.717   5.117  14.948  0.00  0.00    +0.000 N 
ATOM     21  C   UNL     1      47.431   3.823  15.578  0.00  0.00    +0.000 C 
ATOM     22  C   UNL     1      47.007   4.031  17.046  0.00  0.00    +0.000 C 
ATOM     23  N   UNL     1      47.992   4.808  17.831  0.00  0.00    +0.000 NA
ATOM     24  C   UNL     1      48.219   6.105  17.154  0.00  0.00    +0.000 C 
ATOM     25  C   UNL     1      48.659   5.979  15.673  0.00  0.00    +0.000 C 
ATOM     30  H   UNL     1      48.873   4.294  17.819  0.00  0.00    +0.000 HD
ENDBRANCH  19  20
ENDBRANCH   2  15
BRANCH   2   4
ATOM      4  C   UNL     1      43.545   3.840  11.084  0.00  0.00    +0.000 C 
BRANCH   4   5
ATOM      5  N   UNL     1      43.777   4.185   9.687  0.00  0.00    +0.000 N 
ATOM      6  C   UNL     1      44.760   3.538   8.967  0.00  0.00    +0.000 A 
ATOM      7  C   UNL     1      45.129   2.214   9.178  0.00  0.00    +0.000 A 
ATOM      8  C   UNL     1      46.084   1.626   8.345  0.00  0.00    +0.000 A 
ATOM      9  C   UNL     1      46.636   2.360   7.299  0.00  0.00    +0.000 A 
ATOM     13  C   UNL     1      46.213   3.670   7.162  0.00  0.00    +0.000 A 
ATOM     14  N   UNL     1      45.304   4.268   7.975  0.00  0.00    +0.000 NA
ATOM     27  H   UNL     1      43.848   5.174   9.459  0.00  0.00    +0.000 HD
BRANCH   9  10
ATOM     10  C   UNL     1      47.612   1.702   6.398  0.00  0.00    +0.000 C 
ATOM     11  N   UNL     1      48.806   2.317   6.147  0.00  0.00    +0.000 N 
ATOM     12  O   UNL     1      47.360   0.623   5.874  0.00  0.00    +0.000 OA
ATOM     28  H   UNL     1      49.102   3.215   6.500  0.00  0.00    +0.000 HD
ATOM     29  H   UNL     1      49.429   1.841   5.506  0.00  0.00    +0.000 HD
ENDBRANCH   9  10
ENDBRANCH   4   5
ENDBRANCH   2   4
TORSDOF 5
ENDMDL
MODEL 2
REMARK VINA RESULT:    -8.259      2.879      4.525
REMARK INTER + INTRA:         -11.559
REMARK INTER:                 -10.720
REMARK INTRA:                  -0.840
REMARK UNBOUND:                -0.886
REMARK  Name = 
REMARK  7 active torsions:
REMARK  status: ('A' for Active; 'I' for Inactive)
REMARK    1  A    between atoms: C_1  and  C_2
REMARK    2  A    between atoms: C_2  and  C_3
REMARK    3  A    between atoms: C_2  and  C_4
REMARK    4  A    between atoms: C_2  and  C_15
REMARK    5  A    between atoms: C_4  and  N_5
REMARK    6  A    between atoms: C_9  and  C_10
REMARK    7  A    between atoms: C_19  and  N_20
REMARK                            x       y       z     vdW  Elec       q    Type
REMARK                         _______ _______ _______ _____ _____    ______ ____
ROOT
ATOM      1  C   UNL     1      43.184   4.757  13.393  0.00  0.00    +0.000 C 
ATOM      2  C   UNL     1      44.147   4.633  12.192  0.00  0.00    +0.000 C 
ATOM      3  C   UNL     1      45.067   3.402  12.388  0.00  0.00    +0.000 C 
ENDROOT
BRANCH   2  15
ATOM     15  C   UNL     1      45.039   5.897  12.124  0.00  0.00    +0.000 A 
ATOM     16  C   UNL     1      46.438   5.774  12.184  0.00  0.00    +0.000 A 
ATOM     17  C   UNL     1      47.262   6.888  12.057  0.00  0.00    +0.000 A 
ATOM     18  C   UNL     1      46.704   8.144  11.837  0.00  0.00    +0.000 A 
ATOM     19  C   UNL     1      45.321   8.328  11.759  0.00  0.00    +0.000 A 
ATOM     26  C   UNL     1      44.511   7.195  11.943  0.00  0.00    +0.000 A 
BRANCH  19  20
ATOM     20  N   UNL     1      44.770   9.559  11.475  0.00  0.00    +0.000 N 
ATOM     21  C   UNL     1      43.486   9.684  10.776  0.00  0.00    +0.000 C 
ATOM     22  C   UNL     1      43.649  10.568   9.523  0.00  0.00    +0.000 C 
ATOM     23  N   UNL     1      44.235  11.895   9.821  0.00  0.00    +0.000 NA
ATOM     24  C   UNL     1      45.533  11.696  10.505  0.00  0.00    +0.000 C 
ATOM     25  C   UNL     1      45.450  10.823  11.782  0.00  0.00    +0.000 C 
ATOM     30  H   UNL     1      43.611  12.370  10.472  0.00  0.00    +0.000 HD
ENDBRANCH  19  20
ENDBRANCH   2  15
BRANCH   2   4
ATOM      4  C   UNL     1      43.317   4.424  10.882  0.00  0.00    +0.000 C 
BRANCH   4   5
ATOM      5  N   UNL     1      43.989   4.911   9.685  0.00  0.00    +0.000 N 
ATOM      6  C   UNL     1      44.862   4.093   8.997  0.00  0.00    +0.000 A 
ATOM      7  C   UNL     1      44.724   2.713   8.914  0.00  0.00    +0.000 A 
ATOM      8  C   UNL     1      45.618   1.979   8.130  0.00  0.00    +0.000 A 
ATOM      9  C   UNL     1      46.620   2.639   7.423  0.00  0.00    +0.000 A 
ATOM     13  C   UNL     1      46.685   4.013   7.563  0.00  0.00    +0.000 A 
ATOM     14  N   UNL     1      45.841   4.743   8.339  0.00  0.00    +0.000 NA
ATOM     27  H   UNL     1      44.426   5.829   9.739  0.00  0.00    +0.000 HD
BRANCH   9  10
ATOM     10  C   UNL     1      47.528   1.847   6.560  0.00  0.00    +0.000 C 
ATOM     11  N   UNL     1      48.584   2.469   5.955  0.00  0.00    +0.000 N 
ATOM     12  O   UNL     1      47.342   0.648   6.376  0.00  0.00    +0.000 OA
ATOM     28  H   UNL     1      48.811   3.451   6.013  0.00  0.00    +0.000 HD
ATOM     29  H   UNL     1      49.161   1.893   5.356  0.00  0.00    +0.000 HD
ENDBRANCH   9  10
ENDBRANCH   4   5
ENDBRANCH   2   4
TORSDOF 5
ENDMDL
MODEL 3
REMARK VINA RESULT:    -8.052      2.195      2.766
REMARK INTER + INTRA:         -11.292
REMARK INTER:                 -10.463
REMARK INTRA:                  -0.828
REMARK UNBOUND:                -0.886
REMARK  Name = 
REMARK  7 active torsions:
REMARK  status: ('A' for Active; 'I' for Inactive)
REMARK    1  A    between atoms: C_1  and  C_2
REMARK    2  A    between atoms: C_2  and  C_3
REMARK    3  A    between atoms: C_2  and  C_4
REMARK    4  A    between atoms: C_2  and  C_15
REMARK    5  A    between atoms: C_4  and  N_5
REMARK    6  A    between atoms: C_9  and  C_10
REMARK    7  A    between atoms: C_19  and  N_20
REMARK                            x       y       z     vdW  Elec       q    Type
REMARK                         _______ _______ _______ _____ _____    ______ ____
ROOT
ATOM      1  C   UNL     1      43.205   4.720  13.316  0.00  0.00    +0.000 C 
ATOM      2  C   UNL     1      44.150   4.651  12.096  0.00  0.00    +0.000 C 
ATOM      3  C   UNL     1      45.272   3.618  12.366  0.00  0.00    +0.000 C 
ENDROOT
BRANCH   2  15
ATOM     15  C   UNL     1      44.809   6.037  11.887  0.00  0.00    +0.000 A 
ATOM     16  C   UNL     1      44.011   7.162  11.617  0.00  0.00    +0.000 A 
ATOM     17  C   UNL     1      44.573   8.429  11.494  0.00  0.00    +0.000 A 
ATOM     18  C   UNL     1      45.944   8.600  11.667  0.00  0.00    +0.000 A 
ATOM     19  C   UNL     1      46.788   7.521  11.945  0.00  0.00    +0.000 A 
ATOM     26  C   UNL     1      46.200   6.247  12.013  0.00  0.00    +0.000 A 
BRANCH  19  20
ATOM     20  N   UNL     1      48.134   7.700  12.183  0.00  0.00    +0.000 N 
ATOM     21  C   UNL     1      48.921   6.710  12.927  0.00  0.00    +0.000 C 
ATOM     22  C   UNL     1      49.628   7.384  14.121  0.00  0.00    +0.000 C 
ATOM     23  N   UNL     1      50.455   8.546  13.725  0.00  0.00    +0.000 NA
ATOM     24  C   UNL     1      49.598   9.512  12.999  0.00  0.00    +0.000 C 
ATOM     25  C   UNL     1      48.859   8.910  11.777  0.00  0.00    +0.000 C 
ATOM     30  H   UNL     1      51.166   8.213  13.075  0.00  0.00    +0.000 HD
ENDBRANCH  19  20
ENDBRANCH   2  15
BRANCH   2   4
ATOM      4  C   UNL     1      43.342   4.186  10.840  0.00  0.00    +0.000 C 
BRANCH   4   5
ATOM      5  N   UNL     1      43.907   4.652   9.581  0.00  0.00    +0.000 N 
ATOM      6  C   UNL     1      44.850   3.891   8.919  0.00  0.00    +0.000 A 
ATOM      7  C   UNL     1      44.880   2.502   8.948  0.00  0.00    +0.000 A 
ATOM      8  C   UNL     1      45.830   1.820   8.182  0.00  0.00    +0.000 A 
ATOM      9  C   UNL     1      46.717   2.536   7.383  0.00  0.00    +0.000 A 
ATOM     13  C   UNL     1      46.617   3.915   7.416  0.00  0.00    +0.000 A 
ATOM     14  N   UNL     1      45.717   4.598   8.170  0.00  0.00    +0.000 NA
ATOM     27  H   UNL     1      44.229   5.616   9.546  0.00  0.00    +0.000 HD
BRANCH   9  10
ATOM     10  C   UNL     1      47.685   1.791   6.543  0.00  0.00    +0.000 C 
ATOM     11  N   UNL     1      48.880   2.375   6.227  0.00  0.00    +0.000 N 
ATOM     12  O   UNL     1      47.427   0.668   6.125  0.00  0.00    +0.000 OA
ATOM     28  H   UNL     1      49.180   3.302   6.491  0.00  0.00    +0.000 HD
ATOM     29  H   UNL     1      49.497   1.839   5.631  0.00  0.00    +0.000 HD
ENDBRANCH   9  10
ENDBRANCH   4   5
ENDBRANCH   2   4
TORSDOF 5
ENDMDL
MODEL 4
REMARK VINA RESULT:    -6.890      3.501      7.788
REMARK INTER + INTRA:          -9.790
REMARK INTER:                  -8.682
REMARK INTRA:                  -1.107
REMARK UNBOUND:                -0.886
REMARK  Name = 
REMARK  7 active torsions:
REMARK  status: ('A' for Active; 'I' for Inactive)
REMARK    1  A    between atoms: C_1  and  C_2
REMARK    2  A    between atoms: C_2  and  C_3
REMARK    3  A    between atoms: C_2  and  C_4
REMARK    4  A    between atoms: C_2  and  C_15
REMARK    5  A    between atoms: C_4  and  N_5
REMARK    6  A    between atoms: C_9  and  C_10
REMARK    7  A    between atoms: C_19  and  N_20
REMARK                            x       y       z     vdW  Elec       q    Type
REMARK                         _______ _______ _______ _____ _____    ______ ____
ROOT
ATOM      1  C   UNL     1      49.364   9.802  11.945  0.00  0.00    +0.000 C 
ATOM      2  C   UNL     1      49.029   8.460  12.634  0.00  0.00    +0.000 C 
ATOM      3  C   UNL     1      49.931   7.341  12.057  0.00  0.00    +0.000 C 
ENDROOT
BRANCH   2  15
ATOM     15  C   UNL     1      47.554   8.093  12.338  0.00  0.00    +0.000 A 
ATOM     16  C   UNL     1      46.582   9.104  12.247  0.00  0.00    +0.000 A 
ATOM     17  C   UNL     1      45.264   8.805  11.915  0.00  0.00    +0.000 A 
ATOM     18  C   UNL     1      44.898   7.490  11.639  0.00  0.00    +0.000 A 
ATOM     19  C   UNL     1      45.822   6.444  11.705  0.00  0.00    +0.000 A 
ATOM     26  C   UNL     1      47.132   6.767  12.094  0.00  0.00    +0.000 A 
BRANCH  19  20
ATOM     20  N   UNL     1      45.476   5.153  11.367  0.00  0.00    +0.000 N 
ATOM     21  C   UNL     1      45.216   4.766   9.976  0.00  0.00    +0.000 C 
ATOM     22  C   UNL     1      43.821   4.121   9.857  0.00  0.00    +0.000 C 
ATOM     23  N   UNL     1      43.627   2.981  10.781  0.00  0.00    +0.000 NA
ATOM     24  C   UNL     1      43.884   3.444  12.164  0.00  0.00    +0.000 C 
ATOM     25  C   UNL     1      45.275   4.097  12.367  0.00  0.00    +0.000 C 
ATOM     30  H   UNL     1      44.329   2.276  10.555  0.00  0.00    +0.000 HD
ENDBRANCH  19  20
ENDBRANCH   2  15
BRANCH   2   4
ATOM      4  C   UNL     1      49.313   8.580  14.167  0.00  0.00    +0.000 C 
BRANCH   4   5
ATOM      5  N   UNL     1      50.048   7.447  14.713  0.00  0.00    +0.000 N 
ATOM      6  C   UNL     1      49.402   6.514  15.499  0.00  0.00    +0.000 A 
ATOM      7  C   UNL     1      48.068   6.158  15.337  0.00  0.00    +0.000 A 
ATOM      8  C   UNL     1      47.526   5.147  16.134  0.00  0.00    +0.000 A 
ATOM      9  C   UNL     1      48.330   4.491  17.062  0.00  0.00    +0.000 A 
ATOM     13  C   UNL     1      49.645   4.909  17.157  0.00  0.00    +0.000 A 
ATOM     14  N   UNL     1      50.186   5.906  16.409  0.00  0.00    +0.000 NA
ATOM     27  H   UNL     1      50.938   7.646  15.164  0.00  0.00    +0.000 HD
BRANCH   9  10
ATOM     10  C   UNL     1      47.748   3.389  17.863  0.00  0.00    +0.000 C 
ATOM     11  N   UNL     1      48.352   3.025  19.034  0.00  0.00    +0.000 N 
ATOM     12  O   UNL     1      46.740   2.798  17.489  0.00  0.00    +0.000 OA
ATOM     28  H   UNL     1      49.197   3.422  19.419  0.00  0.00    +0.000 HD
ATOM     29  H   UNL     1      47.932   2.252  19.534  0.00  0.00    +0.000 HD
ENDBRANCH   9  10
ENDBRANCH   4   5
ENDBRANCH   2   4
TORSDOF 5
ENDMDL
MODEL 5
REMARK VINA RESULT:    -6.821      2.984      4.884
REMARK INTER + INTRA:          -9.700
REMARK INTER:                  -8.885
REMARK INTRA:                  -0.816
REMARK UNBOUND:                -0.886
REMARK  Name = 
REMARK  7 active torsions:
REMARK  status: ('A' for Active; 'I' for Inactive)
REMARK    1  A    between atoms: C_1  and  C_2
REMARK    2  A    between atoms: C_2  and  C_3
REMARK    3  A    between atoms: C_2  and  C_4
REMARK    4  A    between atoms: C_2  and  C_15
REMARK    5  A    between atoms: C_4  and  N_5
REMARK    6  A    between atoms: C_9  and  C_10
REMARK    7  A    between atoms: C_19  and  N_20
REMARK                            x       y       z     vdW  Elec       q    Type
REMARK                         _______ _______ _______ _____ _____    ______ ____
ROOT
ATOM      1  C   UNL     1      48.841   7.728  11.894  0.00  0.00    +0.000 C 
ATOM      2  C   UNL     1      48.047   8.695  12.799  0.00  0.00    +0.000 C 
ATOM      3  C   UNL     1      48.482  10.154  12.509  0.00  0.00    +0.000 C 
ENDROOT
BRANCH   2  15
ATOM     15  C   UNL     1      48.369   8.381  14.281  0.00  0.00    +0.000 A 
ATOM     16  C   UNL     1      48.449   9.424  15.220  0.00  0.00    +0.000 A 
ATOM     17  C   UNL     1      48.669   9.161  16.568  0.00  0.00    +0.000 A 
ATOM     18  C   UNL     1      48.786   7.846  17.010  0.00  0.00    +0.000 A 
ATOM     19  C   UNL     1      48.706   6.767  16.125  0.00  0.00    +0.000 A 
ATOM     26  C   UNL     1      48.536   7.064  14.763  0.00  0.00    +0.000 A 
BRANCH  19  20
ATOM     20  N   UNL     1      48.754   5.463  16.571  0.00  0.00    +0.000 N 
ATOM     21  C   UNL     1      47.743   4.478  16.173  0.00  0.00    +0.000 C 
ATOM     22  C   UNL     1      47.102   3.841  17.423  0.00  0.00    +0.000 C 
ATOM     23  N   UNL     1      48.096   3.253  18.349  0.00  0.00    +0.000 NA
ATOM     24  C   UNL     1      49.071   4.303  18.726  0.00  0.00    +0.000 C 
ATOM     25  C   UNL     1      49.766   4.984  17.520  0.00  0.00    +0.000 C 
ATOM     30  H   UNL     1      48.602   2.528  17.841  0.00  0.00    +0.000 HD
ENDBRANCH  19  20
ENDBRANCH   2  15
BRANCH   2   4
ATOM      4  C   UNL     1      46.520   8.564  12.486  0.00  0.00    +0.000 C 
BRANCH   4   5
ATOM      5  N   UNL     1      45.857   7.521  13.256  0.00  0.00    +0.000 N 
ATOM      6  C   UNL     1      45.360   6.400  12.621  0.00  0.00    +0.000 A 
ATOM      7  C   UNL     1      45.932   5.837  11.487  0.00  0.00    +0.000 A 
ATOM      8  C   UNL     1      45.399   4.657  10.963  0.00  0.00    +0.000 A 
ATOM      9  C   UNL     1      44.320   4.045  11.594  0.00  0.00    +0.000 A 
ATOM     13  C   UNL     1      43.812   4.674  12.716  0.00  0.00    +0.000 A 
ATOM     14  N   UNL     1      44.300   5.833  13.229  0.00  0.00    +0.000 NA
ATOM     27  H   UNL     1      45.150   7.817  13.925  0.00  0.00    +0.000 HD
BRANCH   9  10
ATOM     10  C   UNL     1      43.800   2.768  11.049  0.00  0.00    +0.000 C 
ATOM     11  N   UNL     1      44.380   2.236   9.931  0.00  0.00    +0.000 N 
ATOM     12  O   UNL     1      42.858   2.190  11.580  0.00  0.00    +0.000 OA
ATOM     28  H   UNL     1      45.136   2.641   9.400  0.00  0.00    +0.000 HD
ATOM     29  H   UNL     1      43.975   1.377   9.583  0.00  0.00    +0.000 HD
ENDBRANCH   9  10
ENDBRANCH   4   5
ENDBRANCH   2   4
TORSDOF 5
ENDMDL
MODEL 6
REMARK VINA RESULT:    -6.815      2.961      4.947
REMARK INTER + INTRA:          -9.692
REMARK INTER:                  -8.822
REMARK INTRA:                  -0.870
REMARK UNBOUND:                -0.886
REMARK  Name = 
REMARK  7 active torsions:
REMARK  status: ('A' for Active; 'I' for Inactive)
REMARK    1  A    between atoms: C_1  and  C_2
REMARK    2  A    between atoms: C_2  and  C_3
REMARK    3  A    between atoms: C_2  and  C_4
REMARK    4  A    between atoms: C_2  and  C_15
REMARK    5  A    between atoms: C_4  and  N_5
REMARK    6  A    between atoms: C_9  and  C_10
REMARK    7  A    between atoms: C_19  and  N_20
REMARK                            x       y       z     vdW  Elec       q    Type
REMARK                         _______ _______ _______ _____ _____    ______ ____
ROOT
ATOM      1  C   UNL     1      48.921   7.665  11.891  0.00  0.00    +0.000 C 
ATOM      2  C   UNL     1      48.469   8.262  13.242  0.00  0.00    +0.000 C 
ATOM      3  C   UNL     1      48.829   9.767  13.291  0.00  0.00    +0.000 C 
ENDROOT
BRANCH   2  15
ATOM     15  C   UNL     1      49.225   7.547  14.390  0.00  0.00    +0.000 A 
ATOM     16  C   UNL     1      50.583   7.827  14.620  0.00  0.00    +0.000 A 
ATOM     17  C   UNL     1      51.265   7.250  15.686  0.00  0.00    +0.000 A 
ATOM     18  C   UNL     1      50.593   6.402  16.563  0.00  0.00    +0.000 A 
ATOM     19  C   UNL     1      49.241   6.092  16.391  0.00  0.00    +0.000 A 
ATOM     26  C   UNL     1      48.592   6.648  15.277  0.00  0.00    +0.000 A 
BRANCH  19  20
ATOM     20  N   UNL     1      48.560   5.307  17.296  0.00  0.00    +0.000 N 
ATOM     21  C   UNL     1      48.528   5.633  18.726  0.00  0.00    +0.000 C 
ATOM     22  C   UNL     1      49.024   4.431  19.555  0.00  0.00    +0.000 C 
ATOM     23  N   UNL     1      48.282   3.182  19.268  0.00  0.00    +0.000 NA
ATOM     24  C   UNL     1      48.371   2.902  17.816  0.00  0.00    +0.000 C 
ATOM     25  C   UNL     1      47.880   4.063  16.915  0.00  0.00    +0.000 C 
ATOM     30  H   UNL     1      47.301   3.346  19.492  0.00  0.00    +0.000 HD
ENDBRANCH  19  20
ENDBRANCH   2  15
BRANCH   2   4
ATOM      4  C   UNL     1      46.918   8.121  13.379  0.00  0.00    +0.000 C 
BRANCH   4   5
ATOM      5  N   UNL     1      46.251   7.794  12.125  0.00  0.00    +0.000 N 
ATOM      6  C   UNL     1      45.727   6.533  11.926  0.00  0.00    +0.000 A 
ATOM      7  C   UNL     1      45.198   5.747  12.943  0.00  0.00    +0.000 A 
ATOM      8  C   UNL     1      44.620   4.514  12.628  0.00  0.00    +0.000 A 
ATOM      9  C   UNL     1      44.558   4.098  11.301  0.00  0.00    +0.000 A 
ATOM     13  C   UNL     1      45.109   4.942  10.354  0.00  0.00    +0.000 A 
ATOM     14  N   UNL     1      45.696   6.133  10.641  0.00  0.00    +0.000 NA
ATOM     27  H   UNL     1      46.729   8.053  11.265  0.00  0.00    +0.000 HD
BRANCH   9  10
ATOM     10  C   UNL     1      43.899   2.809  10.984  0.00  0.00    +0.000 C 
ATOM     11  N   UNL     1      44.352   2.071   9.927  0.00  0.00    +0.000 N 
ATOM     12  O   UNL     1      42.953   2.401  11.650  0.00  0.00    +0.000 OA
ATOM     28  H   UNL     1      45.100   2.325   9.298  0.00  0.00    +0.000 HD
ATOM     29  H   UNL     1      43.855   1.211   9.735  0.00  0.00    +0.000 HD
ENDBRANCH   9  10
ENDBRANCH   4   5
ENDBRANCH   2   4
TORSDOF 5
ENDMDL
MODEL 7
REMARK VINA RESULT:    -6.578      3.265      6.287
REMARK INTER + INTRA:          -9.386
REMARK INTER:                  -8.166
REMARK INTRA:                  -1.220
REMARK UNBOUND:                -0.886
REMARK  Name = 
REMARK  7 active torsions:
REMARK  status: ('A' for Active; 'I' for Inactive)
REMARK    1  A    between atoms: C_1  and  C_2
REMARK    2  A    between atoms: C_2  and  C_3
REMARK    3  A    between atoms: C_2  and  C_4
REMARK    4  A    between atoms: C_2  and  C_15
REMARK    5  A    between atoms: C_4  and  N_5
REMARK    6  A    between atoms: C_9  and  C_10
REMARK    7  A    between atoms: C_19  and  N_20
REMARK                            x       y       z     vdW  Elec       q    Type
REMARK                         _______ _______ _______ _____ _____    ______ ____
ROOT
ATOM      1  C   UNL     1      48.414   3.972  18.909  0.00  0.00    +0.000 C 
ATOM      2  C   UNL     1      48.701   3.913  17.393  0.00  0.00    +0.000 C 
ATOM      3  C   UNL     1      49.307   2.534  17.032  0.00  0.00    +0.000 C 
ENDROOT
BRANCH   2  15
ATOM     15  C   UNL     1      49.736   5.006  17.030  0.00  0.00    +0.000 A 
ATOM     16  C   UNL     1      51.083   4.849  17.398  0.00  0.00    +0.000 A 
ATOM     17  C   UNL     1      52.043   5.784  17.024  0.00  0.00    +0.000 A 
ATOM     18  C   UNL     1      51.680   6.882  16.249  0.00  0.00    +0.000 A 
ATOM     19  C   UNL     1      50.357   7.087  15.845  0.00  0.00    +0.000 A 
ATOM     26  C   UNL     1      49.401   6.156  16.281  0.00  0.00    +0.000 A 
BRANCH  19  20
ATOM     20  N   UNL     1      50.009   8.136  15.021  0.00  0.00    +0.000 N 
ATOM     21  C   UNL     1      50.422   9.513  15.313  0.00  0.00    +0.000 C 
ATOM     22  C   UNL     1      49.189  10.437  15.367  0.00  0.00    +0.000 C 
ATOM     23  N   UNL     1      48.359  10.369  14.142  0.00  0.00    +0.000 NA
ATOM     24  C   UNL     1      47.961   8.961  13.918  0.00  0.00    +0.000 C 
ATOM     25  C   UNL     1      49.150   7.969  13.843  0.00  0.00    +0.000 C 
ATOM     30  H   UNL     1      48.943  10.655  13.357  0.00  0.00    +0.000 HD
ENDBRANCH  19  20
ENDBRANCH   2  15
BRANCH   2   4
ATOM      4  C   UNL     1      47.360   4.083  16.605  0.00  0.00    +0.000 C 
BRANCH   4   5
ATOM      5  N   UNL     1      47.339   3.372  15.334  0.00  0.00    +0.000 N 
ATOM      6  C   UNL     1      46.709   3.927  14.238  0.00  0.00    +0.000 A 
ATOM      7  C   UNL     1      46.639   5.294  13.998  0.00  0.00    +0.000 A 
ATOM      8  C   UNL     1      46.046   5.755  12.820  0.00  0.00    +0.000 A 
ATOM      9  C   UNL     1      45.554   4.843  11.891  0.00  0.00    +0.000 A 
ATOM     13  C   UNL     1      45.664   3.502  12.211  0.00  0.00    +0.000 A 
ATOM     14  N   UNL     1      46.216   3.033  13.360  0.00  0.00    +0.000 NA
ATOM     27  H   UNL     1      47.077   2.389  15.357  0.00  0.00    +0.000 HD
BRANCH   9  10
ATOM     10  C   UNL     1      44.971   5.351  10.626  0.00  0.00    +0.000 C 
ATOM     11  N   UNL     1      43.684   5.811  10.623  0.00  0.00    +0.000 N 
ATOM     12  O   UNL     1      45.622   5.360   9.587  0.00  0.00    +0.000 OA
ATOM     28  H   UNL     1      43.052   5.822  11.411  0.00  0.00    +0.000 HD
ATOM     29  H   UNL     1      43.322   6.125   9.732  0.00  0.00    +0.000 HD
ENDBRANCH   9  10
ENDBRANCH   4   5
ENDBRANCH   2   4
TORSDOF 5
ENDMDL
MODEL 8
REMARK VINA RESULT:    -6.568      4.098      6.532
REMARK INTER + INTRA:          -9.374
REMARK INTER:                  -8.322
REMARK INTRA:                  -1.051
REMARK UNBOUND:                -0.886
REMARK  Name = 
REMARK  7 active torsions:
REMARK  status: ('A' for Active; 'I' for Inactive)
REMARK    1  A    between atoms: C_1  and  C_2
REMARK    2  A    between atoms: C_2  and  C_3
REMARK    3  A    between atoms: C_2  and  C_4
REMARK    4  A    between atoms: C_2  and  C_15
REMARK    5  A    between atoms: C_4  and  N_5
REMARK    6  A    between atoms: C_9  and  C_10
REMARK    7  A    between atoms: C_19  and  N_20
REMARK                            x       y       z     vdW  Elec       q    Type
REMARK                         _______ _______ _______ _____ _____    ______ ____
ROOT
ATOM      1  C   UNL     1      51.025   7.607  15.161  0.00  0.00    +0.000 C 
ATOM      2  C   UNL     1      49.862   8.623  15.140  0.00  0.00    +0.000 C 
ATOM      3  C   UNL     1      50.427  10.058  15.000  0.00  0.00    +0.000 C 
ENDROOT
BRANCH   2  15
ATOM     15  C   UNL     1      49.089   8.536  16.479  0.00  0.00    +0.000 A 
ATOM     16  C   UNL     1      48.516   9.692  17.036  0.00  0.00    +0.000 A 
ATOM     17  C   UNL     1      47.760   9.629  18.203  0.00  0.00    +0.000 A 
ATOM     18  C   UNL     1      47.537   8.400  18.820  0.00  0.00    +0.000 A 
ATOM     19  C   UNL     1      48.073   7.215  18.308  0.00  0.00    +0.000 A 
ATOM     26  C   UNL     1      48.875   7.317  17.159  0.00  0.00    +0.000 A 
BRANCH  19  20
ATOM     20  N   UNL     1      47.797   5.992  18.879  0.00  0.00    +0.000 N 
ATOM     21  C   UNL     1      47.834   5.796  20.333  0.00  0.00    +0.000 C 
ATOM     22  C   UNL     1      48.790   4.639  20.687  0.00  0.00    +0.000 C 
ATOM     23  N   UNL     1      48.463   3.380  19.980  0.00  0.00    +0.000 NA
ATOM     24  C   UNL     1      48.462   3.642  18.522  0.00  0.00    +0.000 C 
ATOM     25  C   UNL     1      47.516   4.790  18.086  0.00  0.00    +0.000 C 
ATOM     30  H   UNL     1      47.516   3.111  20.247  0.00  0.00    +0.000 HD
ENDBRANCH  19  20
ENDBRANCH   2  15
BRANCH   2   4
ATOM      4  C   UNL     1      48.943   8.332  13.908  0.00  0.00    +0.000 C 
BRANCH   4   5
ATOM      5  N   UNL     1      48.848   6.918  13.574  0.00  0.00    +0.000 N 
ATOM      6  C   UNL     1      47.613   6.309  13.475  0.00  0.00    +0.000 A 
ATOM      7  C   UNL     1      46.464   6.958  13.042  0.00  0.00    +0.000 A 
ATOM      8  C   UNL     1      45.277   6.235  12.904  0.00  0.00    +0.000 A 
ATOM      9  C   UNL     1      45.262   4.870  13.178  0.00  0.00    +0.000 A 
ATOM     13  C   UNL     1      46.450   4.305  13.604  0.00  0.00    +0.000 A 
ATOM     14  N   UNL     1      47.610   4.994  13.768  0.00  0.00    +0.000 NA
ATOM     27  H   UNL     1      49.451   6.279  14.087  0.00  0.00    +0.000 HD
BRANCH   9  10
ATOM     10  C   UNL     1      44.004   4.112  12.980  0.00  0.00    +0.000 C 
ATOM     11  N   UNL     1      44.069   2.806  12.584  0.00  0.00    +0.000 N 
ATOM     12  O   UNL     1      42.912   4.641  13.158  0.00  0.00    +0.000 OA
ATOM     28  H   UNL     1      44.909   2.284  12.381  0.00  0.00    +0.000 HD
ATOM     29  H   UNL     1      43.184   2.337  12.438  0.00  0.00    +0.000 HD
ENDBRANCH   9  10
ENDBRANCH   4   5
ENDBRANCH   2   4
TORSDOF 5
ENDMDL
MODEL 9
REMARK VINA RESULT:    -6.494      4.107      6.243
REMARK INTER + INTRA:          -9.277
REMARK INTER:                  -8.326
REMARK INTRA:                  -0.952
REMARK UNBOUND:                -0.886
REMARK  Name = 
REMARK  7 active torsions:
REMARK  status: ('A' for Active; 'I' for Inactive)
REMARK    1  A    between atoms: C_1  and  C_2
REMARK    2  A    between atoms: C_2  and  C_3
REMARK    3  A    between atoms: C_2  and  C_4
REMARK    4  A    between atoms: C_2  and  C_15
REMARK    5  A    between atoms: C_4  and  N_5
REMARK    6  A    between atoms: C_9  and  C_10
REMARK    7  A    between atoms: C_19  and  N_20
REMARK                            x       y       z     vdW  Elec       q    Type
REMARK                         _______ _______ _______ _____ _____    ______ ____
ROOT
ATOM      1  C   UNL     1      50.469   9.973  13.955  0.00  0.00    +0.000 C 
ATOM      2  C   UNL     1      49.498   8.779  14.095  0.00  0.00    +0.000 C 
ATOM      3  C   UNL     1      48.138   9.277  14.644  0.00  0.00    +0.000 C 
ENDROOT
BRANCH   2  15
ATOM     15  C   UNL     1      50.086   7.765  15.107  0.00  0.00    +0.000 A 
ATOM     16  C   UNL     1      51.478   7.616  15.225  0.00  0.00    +0.000 A 
ATOM     17  C   UNL     1      52.031   6.761  16.174  0.00  0.00    +0.000 A 
ATOM     18  C   UNL     1      51.201   6.060  17.045  0.00  0.00    +0.000 A 
ATOM     19  C   UNL     1      49.809   6.174  16.981  0.00  0.00    +0.000 A 
ATOM     26  C   UNL     1      49.278   7.003  15.979  0.00  0.00    +0.000 A 
BRANCH  19  20
ATOM     20  N   UNL     1      48.991   5.532  17.885  0.00  0.00    +0.000 N 
ATOM     21  C   UNL     1      48.960   5.915  19.301  0.00  0.00    +0.000 C 
ATOM     22  C   UNL     1      49.247   4.686  20.188  0.00  0.00    +0.000 C 
ATOM     23  N   UNL     1      48.339   3.549  19.916  0.00  0.00    +0.000 NA
ATOM     24  C   UNL     1      48.434   3.202  18.479  0.00  0.00    +0.000 C 
ATOM     25  C   UNL     1      48.148   4.387  17.521  0.00  0.00    +0.000 C 
ATOM     30  H   UNL     1      47.386   3.863  20.097  0.00  0.00    +0.000 HD
ENDBRANCH  19  20
ENDBRANCH   2  15
BRANCH   2   4
ATOM      4  C   UNL     1      49.258   8.139  12.688  0.00  0.00    +0.000 C 
BRANCH   4   5
ATOM      5  N   UNL     1      48.952   6.716  12.742  0.00  0.00    +0.000 N 
ATOM      6  C   UNL     1      47.644   6.291  12.864  0.00  0.00    +0.000 A 
ATOM      7  C   UNL     1      46.558   6.971  12.327  0.00  0.00    +0.000 A 
ATOM      8  C   UNL     1      45.279   6.420  12.438  0.00  0.00    +0.000 A 
ATOM      9  C   UNL     1      45.109   5.187  13.061  0.00  0.00    +0.000 A 
ATOM     13  C   UNL     1      46.244   4.579  13.567  0.00  0.00    +0.000 A 
ATOM     14  N   UNL     1      47.493   5.109  13.490  0.00  0.00    +0.000 NA
ATOM     27  H   UNL     1      49.506   6.146  13.378  0.00  0.00    +0.000 HD
BRANCH   9  10
ATOM     10  C   UNL     1      43.751   4.597  13.126  0.00  0.00    +0.000 C 
ATOM     11  N   UNL     1      42.663   5.418  13.030  0.00  0.00    +0.000 N 
ATOM     12  O   UNL     1      43.591   3.390  13.270  0.00  0.00    +0.000 OA
ATOM     28  H   UNL     1      42.680   6.424  12.939  0.00  0.00    +0.000 HD
ATOM     29  H   UNL     1      41.757   4.973  13.104  0.00  0.00    +0.000 HD
ENDBRANCH   9  10
ENDBRANCH   4   5
ENDBRANCH   2   4
TORSDOF 5
ENDMDL
