MODEL 1
REMARK VINA RESULT:    -8.341      0.000      0.000
REMARK INTER + INTRA:         -11.775
REMARK INTER:                 -11.023
REMARK INTRA:                  -0.751
REMARK UNBOUND:                -0.751
REMARK  Name = 
REMARK  8 active torsions:
REMARK  status: ('A' for Active; 'I' for Inactive)
REMARK    1  A    between atoms: C_1  and  C_2
REMARK    2  A    between atoms: C_2  and  C_3
REMARK    3  A    between atoms: C_2  and  C_4
REMARK    4  A    between atoms: C_2  and  C_15
REMARK    5  A    between atoms: C_4  and  N_5
REMARK    6  A    between atoms: C_9  and  C_10
REMARK    7  A    between atoms: C_19  and  C_20
REMARK    8  A    between atoms: C_20  and  N_21
REMARK                            x       y       z     vdW  Elec       q    Type
REMARK                         _______ _______ _______ _____ _____    ______ ____
ROOT
ATOM      4  C   UNL     1      43.518   4.159  10.984  0.00  0.00    +0.000 C 
ENDROOT
BRANCH   4   5
ATOM      5  N   UNL     1      43.878   4.510   9.618  0.00  0.00    +0.000 N 
ATOM      6  C   UNL     1      44.822   3.773   8.929  0.00  0.00    +0.000 A 
ATOM      7  C   UNL     1      45.028   2.411   9.121  0.00  0.00    +0.000 A 
ATOM      8  C   UNL     1      45.955   1.732   8.329  0.00  0.00    +0.000 A 
ATOM      9  C   UNL     1      46.648   2.418   7.335  0.00  0.00    +0.000 A 
ATOM     13  C   UNL     1      46.379   3.770   7.206  0.00  0.00    +0.000 A 
ATOM     14  N   UNL     1      45.496   4.451   7.981  0.00  0.00    +0.000 NA
ATOM     23  H   UNL     1      44.064   5.497   9.447  0.00  0.00    +0.000 HD
BRANCH   9  10
ATOM     10  C   UNL     1      47.601   1.672   6.472  0.00  0.00    +0.000 C 
ATOM     11  N   UNL     1      48.789   2.252   6.137  0.00  0.00    +0.000 N 
ATOM     12  O   UNL     1      47.327   0.546   6.058  0.00  0.00    +0.000 OA
ATOM     24  H   UNL     1      49.101   3.177   6.398  0.00  0.00    +0.000 HD
ATOM     25  H   UNL     1      49.397   1.710   5.530  0.00  0.00    +0.000 HD
ENDBRANCH   9  10
ENDBRANCH   4   5
BRANCH   4   2
ATOM      1  C   UNL     1      43.097   6.631  11.302  0.00  0.00    +0.000 C 
ATOM      2  C   UNL     1      43.680   5.360  11.971  0.00  0.00    +0.000 C 
ATOM      3  C   UNL     1      42.798   5.057  13.208  0.00  0.00    +0.000 C 
BRANCH   2  15
ATOM     15  C   UNL     1      45.146   5.538  12.416  0.00  0.00    +0.000 A 
ATOM     16  C   UNL     1      46.007   6.400  11.717  0.00  0.00    +0.000 A 
ATOM     17  C   UNL     1      47.318   6.615  12.147  0.00  0.00    +0.000 A 
ATOM     18  C   UNL     1      47.798   5.978  13.290  0.00  0.00    +0.000 A 
ATOM     19  C   UNL     1      46.984   5.093  14.001  0.00  0.00    +0.000 A 
ATOM     22  C   UNL     1      45.669   4.884  13.549  0.00  0.00    +0.000 A 
BRANCH  19  20
ATOM     20  C   UNL     1      47.419   4.448  15.296  0.00  0.00    +0.000 C 
BRANCH  20  21
ATOM     21  N   UNL     1      47.764   3.037  15.168  0.00  0.00    +0.000 NA
ATOM     26  H   UNL     1      48.466   2.810  15.871  0.00  0.00    +0.000 HD
ATOM     27  H   UNL     1      48.207   2.890  14.263  0.00  0.00    +0.000 HD
ENDBRANCH  20  21
ENDBRANCH  19  20
ENDBRANCH   2  15
ENDBRANCH   4   2
TORSDOF 6
ENDMDL
MODEL 2
REMARK VINA RESULT:    -7.667      1.756      2.509
REMARK INTER + INTRA:         -10.884
REMARK INTER:                 -10.186
REMARK INTRA:                  -0.698
REMARK UNBOUND:                -0.751
REMARK  Name = 
REMARK  8 active torsions:
REMARK  status: ('A' for Active; 'I' for Inactive)
REMARK    1  A    between atoms: C_1  and  C_2
REMARK    2  A    between atoms: C_2  and  C_3
REMARK    3  A    between atoms: C_2  and  C_4
REMARK    4  A    between atoms: C_2  and  C_15
REMARK    5  A    between atoms: C_4  and  N_5
REMARK    6  A    between atoms: C_9  and  C_10
REMARK    7  A    between atoms: C_19  and  C_20
REMARK    8  A    between atoms: C_20  and  N_21
REMARK                            x       y       z     vdW  Elec       q    Type
REMARK                         _______ _______ _______ _____ _____    ______ ____
ROOT
ATOM      4  C   UNL     1      43.721   3.900  11.011  0.00  0.00    +0.000 C 
ENDROOT
BRANCH   4   5
ATOM      5  N   UNL     1      44.102   4.475   9.730  0.00  0.00    +0.000 N 
ATOM      6  C   UNL     1      45.033   3.845   8.927  0.00  0.00    +0.000 A 
ATOM      7  C   UNL     1      45.202   2.466   8.877  0.00  0.00    +0.000 A 
ATOM      8  C   UNL     1      46.119   1.912   7.983  0.00  0.00    +0.000 A 
ATOM      9  C   UNL     1      46.838   2.743   7.127  0.00  0.00    +0.000 A 
ATOM     13  C   UNL     1      46.606   4.103   7.237  0.00  0.00    +0.000 A 
ATOM     14  N   UNL     1      45.733   4.661   8.116  0.00  0.00    +0.000 NA
ATOM     23  H   UNL     1      44.315   5.472   9.735  0.00  0.00    +0.000 HD
BRANCH   9  10
ATOM     10  C   UNL     1      47.780   2.134   6.150  0.00  0.00    +0.000 C 
ATOM     11  N   UNL     1      48.252   2.893   5.121  0.00  0.00    +0.000 N 
ATOM     12  O   UNL     1      48.129   0.960   6.261  0.00  0.00    +0.000 OA
ATOM     24  H   UNL     1      48.010   3.854   4.922  0.00  0.00    +0.000 HD
ATOM     25  H   UNL     1      48.877   2.427   4.470  0.00  0.00    +0.000 HD
ENDBRANCH   9  10
ENDBRANCH   4   5
BRANCH   4   2
ATOM      1  C   UNL     1      42.278   5.841  11.747  0.00  0.00    +0.000 C 
ATOM      2  C   UNL     1      43.518   4.986  12.117  0.00  0.00    +0.000 C 
ATOM      3  C   UNL     1      43.176   4.242  13.431  0.00  0.00    +0.000 C 
BRANCH   2  15
ATOM     15  C   UNL     1      44.788   5.835  12.321  0.00  0.00    +0.000 A 
ATOM     16  C   UNL     1      46.021   5.223  12.606  0.00  0.00    +0.000 A 
ATOM     17  C   UNL     1      47.189   5.977  12.732  0.00  0.00    +0.000 A 
ATOM     18  C   UNL     1      47.155   7.362  12.572  0.00  0.00    +0.000 A 
ATOM     19  C   UNL     1      45.947   8.013  12.313  0.00  0.00    +0.000 A 
ATOM     22  C   UNL     1      44.780   7.238  12.195  0.00  0.00    +0.000 A 
BRANCH  19  20
ATOM     20  C   UNL     1      45.865   9.497  12.037  0.00  0.00    +0.000 C 
BRANCH  20  21
ATOM     21  N   UNL     1      44.648  10.125  12.538  0.00  0.00    +0.000 NA
ATOM     26  H   UNL     1      44.877  11.065  12.857  0.00  0.00    +0.000 HD
ATOM     27  H   UNL     1      44.331   9.614  13.359  0.00  0.00    +0.000 HD
ENDBRANCH  20  21
ENDBRANCH  19  20
ENDBRANCH   2  15
ENDBRANCH   4   2
TORSDOF 6
ENDMDL
MODEL 3
REMARK VINA RESULT:    -6.761      3.620      6.364
REMARK INTER + INTRA:          -9.687
REMARK INTER:                  -9.103
REMARK INTRA:                  -0.584
REMARK UNBOUND:                -0.751
REMARK  Name = 
REMARK  8 active torsions:
REMARK  status: ('A' for Active; 'I' for Inactive)
REMARK    1  A    between atoms: C_1  and  C_2
REMARK    2  A    between atoms: C_2  and  C_3
REMARK    3  A    between atoms: C_2  and  C_4
REMARK    4  A    between atoms: C_2  and  C_15
REMARK    5  A    between atoms: C_4  and  N_5
REMARK    6  A    between atoms: C_9  and  C_10
REMARK    7  A    between atoms: C_19  and  C_20
REMARK    8  A    between atoms: C_20  and  N_21
REMARK                            x       y       z     vdW  Elec       q    Type
REMARK                         _______ _______ _______ _____ _____    ______ ____
ROOT
ATOM      4  C   UNL     1      47.679   4.859  15.988  0.00  0.00    +0.000 C 
ENDROOT
BRANCH   4   5
ATOM      5  N   UNL     1      47.395   3.855  14.973  0.00  0.00    +0.000 N 
ATOM      6  C   UNL     1      46.666   4.182  13.846  0.00  0.00    +0.000 A 
ATOM      7  C   UNL     1      46.687   5.439  13.251  0.00  0.00    +0.000 A 
ATOM      8  C   UNL     1      45.975   5.660  12.072  0.00  0.00    +0.000 A 
ATOM      9  C   UNL     1      45.269   4.613  11.485  0.00  0.00    +0.000 A 
ATOM     13  C   UNL     1      45.305   3.393  12.137  0.00  0.00    +0.000 A 
ATOM     14  N   UNL     1      45.975   3.165  13.296  0.00  0.00    +0.000 NA
ATOM     23  H   UNL     1      47.054   2.958  15.318  0.00  0.00    +0.000 HD
BRANCH   9  10
ATOM     10  C   UNL     1      44.549   4.854  10.206  0.00  0.00    +0.000 C 
ATOM     11  N   UNL     1      45.264   4.943   9.048  0.00  0.00    +0.000 N 
ATOM     12  O   UNL     1      43.325   4.976  10.186  0.00  0.00    +0.000 OA
ATOM     24  H   UNL     1      46.268   4.886   8.955  0.00  0.00    +0.000 HD
ATOM     25  H   UNL     1      44.729   5.127   8.204  0.00  0.00    +0.000 HD
ENDBRANCH   9  10
ENDBRANCH   4   5
BRANCH   4   2
ATOM      1  C   UNL     1      47.405   5.120  18.487  0.00  0.00    +0.000 C 
ATOM      2  C   UNL     1      48.016   4.226  17.377  0.00  0.00    +0.000 C 
ATOM      3  C   UNL     1      47.286   2.862  17.445  0.00  0.00    +0.000 C 
BRANCH   2  15
ATOM     15  C   UNL     1      49.532   4.008  17.551  0.00  0.00    +0.000 A 
ATOM     16  C   UNL     1      50.355   5.044  18.024  0.00  0.00    +0.000 A 
ATOM     17  C   UNL     1      51.718   4.839  18.244  0.00  0.00    +0.000 A 
ATOM     18  C   UNL     1      52.292   3.591  18.002  0.00  0.00    +0.000 A 
ATOM     19  C   UNL     1      51.515   2.541  17.507  0.00  0.00    +0.000 A 
ATOM     22  C   UNL     1      50.145   2.768  17.287  0.00  0.00    +0.000 A 
BRANCH  19  20
ATOM     20  C   UNL     1      52.060   1.145  17.316  0.00  0.00    +0.000 C 
BRANCH  20  21
ATOM     21  N   UNL     1      51.483   0.155  18.218  0.00  0.00    +0.000 NA
ATOM     26  H   UNL     1      52.009  -0.713  18.125  0.00  0.00    +0.000 HD
ATOM     27  H   UNL     1      50.534  -0.050  17.912  0.00  0.00    +0.000 HD
ENDBRANCH  20  21
ENDBRANCH  19  20
ENDBRANCH   2  15
ENDBRANCH   4   2
TORSDOF 6
ENDMDL
MODEL 4
REMARK VINA RESULT:    -6.694      2.236      2.825
REMARK INTER + INTRA:          -9.598
REMARK INTER:                  -8.967
REMARK INTRA:                  -0.631
REMARK UNBOUND:                -0.751
REMARK  Name = 
REMARK  8 active torsions:
REMARK  status: ('A' for Active; 'I' for Inactive)
REMARK    1  A    between atoms: C_1  and  C_2
REMARK    2  A    between atoms: C_2  and  C_3
REMARK    3  A    between atoms: C_2  and  C_4
REMARK    4  A    between atoms: C_2  and  C_15
REMARK    5  A    between atoms: C_4  and  N_5
REMARK    6  A    between atoms: C_9  and  C_10
REMARK    7  A    between atoms: C_19  and  C_20
REMARK    8  A    between atoms: C_20  and  N_21
REMARK                            x       y       z     vdW  Elec       q    Type
REMARK                         _______ _______ _______ _____ _____    ______ ____
ROOT
ATOM      4  C   UNL     1      44.034   4.544  10.731  0.00  0.00    +0.000 C 
ENDROOT
BRANCH   4   5
ATOM      5  N   UNL     1      44.810   3.327  10.547  0.00  0.00    +0.000 N 
ATOM      6  C   UNL     1      45.375   3.033   9.321  0.00  0.00    +0.000 A 
ATOM      7  C   UNL     1      45.819   3.999   8.425  0.00  0.00    +0.000 A 
ATOM      8  C   UNL     1      46.442   3.609   7.239  0.00  0.00    +0.000 A 
ATOM      9  C   UNL     1      46.639   2.256   6.973  0.00  0.00    +0.000 A 
ATOM     13  C   UNL     1      46.173   1.361   7.920  0.00  0.00    +0.000 A 
ATOM     14  N   UNL     1      45.545   1.721   9.070  0.00  0.00    +0.000 NA
ATOM     23  H   UNL     1      44.392   2.472  10.913  0.00  0.00    +0.000 HD
BRANCH   9  10
ATOM     10  C   UNL     1      47.343   1.858   5.725  0.00  0.00    +0.000 C 
ATOM     11  N   UNL     1      46.698   1.982   4.531  0.00  0.00    +0.000 N 
ATOM     12  O   UNL     1      48.491   1.419   5.763  0.00  0.00    +0.000 OA
ATOM     24  H   UNL     1      45.750   2.303   4.389  0.00  0.00    +0.000 HD
ATOM     25  H   UNL     1      47.213   1.679   3.709  0.00  0.00    +0.000 HD
ENDBRANCH   9  10
ENDBRANCH   4   5
BRANCH   4   2
ATOM      1  C   UNL     1      42.851   5.063  12.905  0.00  0.00    +0.000 C 
ATOM      2  C   UNL     1      44.209   5.154  12.160  0.00  0.00    +0.000 C 
ATOM      3  C   UNL     1      45.203   4.245  12.925  0.00  0.00    +0.000 C 
BRANCH   2  15
ATOM     15  C   UNL     1      44.764   6.590  12.102  0.00  0.00    +0.000 A 
ATOM     16  C   UNL     1      44.143   7.567  11.304  0.00  0.00    +0.000 A 
ATOM     17  C   UNL     1      44.601   8.886  11.292  0.00  0.00    +0.000 A 
ATOM     18  C   UNL     1      45.687   9.263  12.081  0.00  0.00    +0.000 A 
ATOM     19  C   UNL     1      46.349   8.319  12.870  0.00  0.00    +0.000 A 
ATOM     22  C   UNL     1      45.877   6.995  12.865  0.00  0.00    +0.000 A 
BRANCH  19  20
ATOM     20  C   UNL     1      47.468   8.689  13.814  0.00  0.00    +0.000 C 
BRANCH  20  21
ATOM     21  N   UNL     1      47.873  10.087  13.734  0.00  0.00    +0.000 NA
ATOM     26  H   UNL     1      47.085  10.669  14.015  0.00  0.00    +0.000 HD
ATOM     27  H   UNL     1      48.064  10.316  12.760  0.00  0.00    +0.000 HD
ENDBRANCH  20  21
ENDBRANCH  19  20
ENDBRANCH   2  15
ENDBRANCH   4   2
TORSDOF 6
ENDMDL
MODEL 5
REMARK VINA RESULT:    -6.638      3.235      7.394
REMARK INTER + INTRA:          -9.523
REMARK INTER:                  -8.841
REMARK INTRA:                  -0.682
REMARK UNBOUND:                -0.751
REMARK  Name = 
REMARK  8 active torsions:
REMARK  status: ('A' for Active; 'I' for Inactive)
REMARK    1  A    between atoms: C_1  and  C_2
REMARK    2  A    between atoms: C_2  and  C_3
REMARK    3  A    between atoms: C_2  and  C_4
REMARK    4  A    between atoms: C_2  and  C_15
REMARK    5  A    between atoms: C_4  and  N_5
REMARK    6  A    between atoms: C_9  and  C_10
REMARK    7  A    between atoms: C_19  and  C_20
REMARK    8  A    between atoms: C_20  and  N_21
REMARK                            x       y       z     vdW  Elec       q    Type
REMARK                         _______ _______ _______ _____ _____    ______ ____
ROOT
ATOM      4  C   UNL     1      45.617   6.058  13.225  0.00  0.00    +0.000 C 
ENDROOT
BRANCH   4   5
ATOM      5  N   UNL     1      46.966   6.232  13.742  0.00  0.00    +0.000 N 
ATOM      6  C   UNL     1      47.418   5.467  14.800  0.00  0.00    +0.000 A 
ATOM      7  C   UNL     1      47.001   4.162  15.041  0.00  0.00    +0.000 A 
ATOM      8  C   UNL     1      47.564   3.439  16.093  0.00  0.00    +0.000 A 
ATOM      9  C   UNL     1      48.558   4.018  16.877  0.00  0.00    +0.000 A 
ATOM     13  C   UNL     1      48.919   5.318  16.566  0.00  0.00    +0.000 A 
ATOM     14  N   UNL     1      48.368   6.045  15.560  0.00  0.00    +0.000 NA
ATOM     23  H   UNL     1      47.260   7.195  13.903  0.00  0.00    +0.000 HD
BRANCH   9  10
ATOM     10  C   UNL     1      49.178   3.220  17.967  0.00  0.00    +0.000 C 
ATOM     11  N   UNL     1      48.518   3.089  19.153  0.00  0.00    +0.000 N 
ATOM     12  O   UNL     1      50.274   2.683  17.809  0.00  0.00    +0.000 OA
ATOM     24  H   UNL     1      47.632   3.508  19.397  0.00  0.00    +0.000 HD
ATOM     25  H   UNL     1      48.991   2.550  19.873  0.00  0.00    +0.000 HD
ENDBRANCH   9  10
ENDBRANCH   4   5
BRANCH   4   2
ATOM      1  C   UNL     1      44.538   7.451  11.412  0.00  0.00    +0.000 C 
ATOM      2  C   UNL     1      45.534   6.292  11.682  0.00  0.00    +0.000 C 
ATOM      3  C   UNL     1      46.929   6.781  11.219  0.00  0.00    +0.000 C 
BRANCH   2  15
ATOM     15  C   UNL     1      45.164   5.000  10.928  0.00  0.00    +0.000 A 
ATOM     16  C   UNL     1      44.373   4.013  11.542  0.00  0.00    +0.000 A 
ATOM     17  C   UNL     1      43.983   2.867  10.847  0.00  0.00    +0.000 A 
ATOM     18  C   UNL     1      44.367   2.681   9.520  0.00  0.00    +0.000 A 
ATOM     19  C   UNL     1      45.174   3.624   8.879  0.00  0.00    +0.000 A 
ATOM     22  C   UNL     1      45.563   4.769   9.597  0.00  0.00    +0.000 A 
BRANCH  19  20
ATOM     20  C   UNL     1      45.543   3.522   7.418  0.00  0.00    +0.000 C 
BRANCH  20  21
ATOM     21  N   UNL     1      46.755   4.250   7.061  0.00  0.00    +0.000 NA
ATOM     26  H   UNL     1      46.627   5.230   7.307  0.00  0.00    +0.000 HD
ATOM     27  H   UNL     1      46.867   4.221   6.050  0.00  0.00    +0.000 HD
ENDBRANCH  20  21
ENDBRANCH  19  20
ENDBRANCH   2  15
ENDBRANCH   4   2
TORSDOF 6
ENDMDL
MODEL 6
REMARK VINA RESULT:    -6.368      3.724      7.620
REMARK INTER + INTRA:          -9.166
REMARK INTER:                  -8.556
REMARK INTRA:                  -0.611
REMARK UNBOUND:                -0.751
REMARK  Name = 
REMARK  8 active torsions:
REMARK  status: ('A' for Active; 'I' for Inactive)
REMARK    1  A    between atoms: C_1  and  C_2
REMARK    2  A    between atoms: C_2  and  C_3
REMARK    3  A    between atoms: C_2  and  C_4
REMARK    4  A    between atoms: C_2  and  C_15
REMARK    5  A    between atoms: C_4  and  N_5
REMARK    6  A    between atoms: C_9  and  C_10
REMARK    7  A    between atoms: C_19  and  C_20
REMARK    8  A    between atoms: C_20  and  N_21
REMARK                            x       y       z     vdW  Elec       q    Type
REMARK                         _______ _______ _______ _____ _____    ______ ____
ROOT
ATOM      4  C   UNL     1      45.534   4.307  13.536  0.00  0.00    +0.000 C 
ENDROOT
BRANCH   4   5
ATOM      5  N   UNL     1      46.872   4.824  13.780  0.00  0.00    +0.000 N 
ATOM      6  C   UNL     1      47.399   4.835  15.057  0.00  0.00    +0.000 A 
ATOM      7  C   UNL     1      47.093   3.886  16.026  0.00  0.00    +0.000 A 
ATOM      8  C   UNL     1      47.727   3.933  17.268  0.00  0.00    +0.000 A 
ATOM      9  C   UNL     1      48.684   4.914  17.518  0.00  0.00    +0.000 A 
ATOM     13  C   UNL     1      48.935   5.815  16.498  0.00  0.00    +0.000 A 
ATOM     14  N   UNL     1      48.311   5.798  15.291  0.00  0.00    +0.000 NA
ATOM     23  H   UNL     1      47.090   5.719  13.343  0.00  0.00    +0.000 HD
BRANCH   9  10
ATOM     10  C   UNL     1      49.382   4.925  18.831  0.00  0.00    +0.000 C 
ATOM     11  N   UNL     1      49.034   4.006  19.776  0.00  0.00    +0.000 N 
ATOM     12  O   UNL     1      50.261   5.752  19.069  0.00  0.00    +0.000 OA
ATOM     24  H   UNL     1      48.312   3.305  19.696  0.00  0.00    +0.000 HD
ATOM     25  H   UNL     1      49.526   4.067  20.663  0.00  0.00    +0.000 HD
ENDBRANCH   9  10
ENDBRANCH   4   5
BRANCH   4   2
ATOM      1  C   UNL     1      43.224   5.107  12.894  0.00  0.00    +0.000 C 
ATOM      2  C   UNL     1      44.728   5.188  12.527  0.00  0.00    +0.000 C 
ATOM      3  C   UNL     1      45.168   6.656  12.751  0.00  0.00    +0.000 C 
BRANCH   2  15
ATOM     15  C   UNL     1      45.010   4.783  11.067  0.00  0.00    +0.000 A 
ATOM     16  C   UNL     1      45.618   5.685  10.177  0.00  0.00    +0.000 A 
ATOM     17  C   UNL     1      45.933   5.308   8.870  0.00  0.00    +0.000 A 
ATOM     18  C   UNL     1      45.654   4.018   8.422  0.00  0.00    +0.000 A 
ATOM     19  C   UNL     1      45.027   3.097   9.264  0.00  0.00    +0.000 A 
ATOM     22  C   UNL     1      44.712   3.497  10.575  0.00  0.00    +0.000 A 
BRANCH  19  20
ATOM     20  C   UNL     1      44.786   1.660   8.865  0.00  0.00    +0.000 C 
BRANCH  20  21
ATOM     21  N   UNL     1      45.975   0.976   8.372  0.00  0.00    +0.000 NA
ATOM     26  H   UNL     1      45.840  -0.028   8.485  0.00  0.00    +0.000 HD
ATOM     27  H   UNL     1      46.765   1.227   8.963  0.00  0.00    +0.000 HD
ENDBRANCH  20  21
ENDBRANCH  19  20
ENDBRANCH   2  15
ENDBRANCH   4   2
TORSDOF 6
ENDMDL
MODEL 7
REMARK VINA RESULT:    -6.335      3.970      6.159
REMARK INTER + INTRA:          -9.124
REMARK INTER:                  -8.200
REMARK INTRA:                  -0.924
REMARK UNBOUND:                -0.751
REMARK  Name = 
REMARK  8 active torsions:
REMARK  status: ('A' for Active; 'I' for Inactive)
REMARK    1  A    between atoms: C_1  and  C_2
REMARK    2  A    between atoms: C_2  and  C_3
REMARK    3  A    between atoms: C_2  and  C_4
REMARK    4  A    between atoms: C_2  and  C_15
REMARK    5  A    between atoms: C_4  and  N_5
REMARK    6  A    between atoms: C_9  and  C_10
REMARK    7  A    between atoms: C_19  and  C_20
REMARK    8  A    between atoms: C_20  and  N_21
REMARK                            x       y       z     vdW  Elec       q    Type
REMARK                         _______ _______ _______ _____ _____    ______ ____
ROOT
ATOM      4  C   UNL     1      48.869   7.108  14.080  0.00  0.00    +0.000 C 
ENDROOT
BRANCH   4   5
ATOM      5  N   UNL     1      47.450   7.377  13.899  0.00  0.00    +0.000 N 
ATOM      6  C   UNL     1      46.609   6.404  13.394  0.00  0.00    +0.000 A 
ATOM      7  C   UNL     1      46.793   5.042  13.604  0.00  0.00    +0.000 A 
ATOM      8  C   UNL     1      45.854   4.133  13.116  0.00  0.00    +0.000 A 
ATOM      9  C   UNL     1      44.724   4.598  12.446  0.00  0.00    +0.000 A 
ATOM     13  C   UNL     1      44.615   5.968  12.286  0.00  0.00    +0.000 A 
ATOM     14  N   UNL     1      45.530   6.866  12.735  0.00  0.00    +0.000 NA
ATOM     23  H   UNL     1      47.219   8.259  13.443  0.00  0.00    +0.000 HD
BRANCH   9  10
ATOM     10  C   UNL     1      43.711   3.619  11.970  0.00  0.00    +0.000 C 
ATOM     11  N   UNL     1      43.779   2.329  12.405  0.00  0.00    +0.000 N 
ATOM     12  O   UNL     1      42.824   3.961  11.190  0.00  0.00    +0.000 OA
ATOM     24  H   UNL     1      44.478   1.937  13.020  0.00  0.00    +0.000 HD
ATOM     25  H   UNL     1      43.076   1.694  12.037  0.00  0.00    +0.000 HD
ENDBRANCH   9  10
ENDBRANCH   4   5
BRANCH   4   2
ATOM      1  C   UNL     1      50.959   7.636  15.400  0.00  0.00    +0.000 C 
ATOM      2  C   UNL     1      49.409   7.643  15.446  0.00  0.00    +0.000 C 
ATOM      3  C   UNL     1      48.968   9.123  15.563  0.00  0.00    +0.000 C 
BRANCH   2  15
ATOM     15  C   UNL     1      48.842   6.841  16.635  0.00  0.00    +0.000 A 
ATOM     16  C   UNL     1      48.393   7.498  17.793  0.00  0.00    +0.000 A 
ATOM     17  C   UNL     1      47.822   6.787  18.850  0.00  0.00    +0.000 A 
ATOM     18  C   UNL     1      47.681   5.402  18.774  0.00  0.00    +0.000 A 
ATOM     19  C   UNL     1      48.137   4.706  17.652  0.00  0.00    +0.000 A 
ATOM     22  C   UNL     1      48.715   5.439  16.599  0.00  0.00    +0.000 A 
BRANCH  19  20
ATOM     20  C   UNL     1      47.927   3.221  17.473  0.00  0.00    +0.000 C 
BRANCH  20  21
ATOM     21  N   UNL     1      46.567   2.778  17.758  0.00  0.00    +0.000 NA
ATOM     26  H   UNL     1      46.024   2.826  16.897  0.00  0.00    +0.000 HD
ATOM     27  H   UNL     1      46.138   3.437  18.404  0.00  0.00    +0.000 HD
ENDBRANCH  20  21
ENDBRANCH  19  20
ENDBRANCH   2  15
ENDBRANCH   4   2
TORSDOF 6
ENDMDL
MODEL 8
REMARK VINA RESULT:    -5.775      3.794      6.445
REMARK INTER + INTRA:          -8.383
REMARK INTER:                  -7.500
REMARK INTRA:                  -0.882
REMARK UNBOUND:                -0.751
REMARK  Name = 
REMARK  8 active torsions:
REMARK  status: ('A' for Active; 'I' for Inactive)
REMARK    1  A    between atoms: C_1  and  C_2
REMARK    2  A    between atoms: C_2  and  C_3
REMARK    3  A    between atoms: C_2  and  C_4
REMARK    4  A    between atoms: C_2  and  C_15
REMARK    5  A    between atoms: C_4  and  N_5
REMARK    6  A    between atoms: C_9  and  C_10
REMARK    7  A    between atoms: C_19  and  C_20
REMARK    8  A    between atoms: C_20  and  N_21
REMARK                            x       y       z     vdW  Elec       q    Type
REMARK                         _______ _______ _______ _____ _____    ______ ____
ROOT
ATOM      4  C   UNL     1      47.610   8.425  13.753  0.00  0.00    +0.000 C 
ENDROOT
BRANCH   4   5
ATOM      5  N   UNL     1      47.858   7.020  13.469  0.00  0.00    +0.000 N 
ATOM      6  C   UNL     1      46.828   6.193  13.064  0.00  0.00    +0.000 A 
ATOM      7  C   UNL     1      45.740   6.626  12.314  0.00  0.00    +0.000 A 
ATOM      8  C   UNL     1      44.781   5.706  11.889  0.00  0.00    +0.000 A 
ATOM      9  C   UNL     1      44.934   4.356  12.195  0.00  0.00    +0.000 A 
ATOM     13  C   UNL     1      46.048   4.008  12.940  0.00  0.00    +0.000 A 
ATOM     14  N   UNL     1      46.980   4.892  13.381  0.00  0.00    +0.000 NA
ATOM     23  H   UNL     1      48.411   6.516  14.162  0.00  0.00    +0.000 HD
BRANCH   9  10
ATOM     10  C   UNL     1      43.927   3.382  11.698  0.00  0.00    +0.000 C 
ATOM     11  N   UNL     1      43.628   2.289  12.457  0.00  0.00    +0.000 N 
ATOM     12  O   UNL     1      43.368   3.552  10.615  0.00  0.00    +0.000 OA
ATOM     24  H   UNL     1      44.044   2.041  13.343  0.00  0.00    +0.000 HD
ATOM     25  H   UNL     1      42.948   1.644  12.066  0.00  0.00    +0.000 HD
ENDBRANCH   9  10
ENDBRANCH   4   5
BRANCH   4   2
ATOM      1  C   UNL     1      49.366  10.229  13.519  0.00  0.00    +0.000 C 
ATOM      2  C   UNL     1      48.331   9.375  12.742  0.00  0.00    +0.000 C 
ATOM      3  C   UNL     1      49.130   8.479  11.764  0.00  0.00    +0.000 C 
BRANCH   2  15
ATOM     15  C   UNL     1      47.324  10.232  11.949  0.00  0.00    +0.000 A 
ATOM     16  C   UNL     1      47.772  11.210  11.045  0.00  0.00    +0.000 A 
ATOM     17  C   UNL     1      46.870  11.950  10.277  0.00  0.00    +0.000 A 
ATOM     18  C   UNL     1      45.499  11.726  10.390  0.00  0.00    +0.000 A 
ATOM     19  C   UNL     1      45.009  10.781  11.295  0.00  0.00    +0.000 A 
ATOM     22  C   UNL     1      45.932  10.051  12.064  0.00  0.00    +0.000 A 
BRANCH  19  20
ATOM     20  C   UNL     1      43.543  10.431  11.392  0.00  0.00    +0.000 C 
BRANCH  20  21
ATOM     21  N   UNL     1      43.195   9.162  10.764  0.00  0.00    +0.000 NA
ATOM     26  H   UNL     1      43.835   9.000   9.987  0.00  0.00    +0.000 HD
ATOM     27  H   UNL     1      42.265   9.244  10.356  0.00  0.00    +0.000 HD
ENDBRANCH  20  21
ENDBRANCH  19  20
ENDBRANCH   2  15
ENDBRANCH   4   2
TORSDOF 6
ENDMDL
MODEL 9
REMARK VINA RESULT:    -5.569      4.998      8.187
REMARK INTER + INTRA:          -8.111
REMARK INTER:                  -7.121
REMARK INTRA:                  -0.990
REMARK UNBOUND:                -0.751
REMARK  Name = 
REMARK  8 active torsions:
REMARK  status: ('A' for Active; 'I' for Inactive)
REMARK    1  A    between atoms: C_1  and  C_2
REMARK    2  A    between atoms: C_2  and  C_3
REMARK    3  A    between atoms: C_2  and  C_4
REMARK    4  A    between atoms: C_2  and  C_15
REMARK    5  A    between atoms: C_4  and  N_5
REMARK    6  A    between atoms: C_9  and  C_10
REMARK    7  A    between atoms: C_19  and  C_20
REMARK    8  A    between atoms: C_20  and  N_21
REMARK                            x       y       z     vdW  Elec       q    Type
REMARK                         _______ _______ _______ _____ _____    ______ ____
ROOT
ATOM      4  C   UNL     1      49.409   8.589  13.884  0.00  0.00    +0.000 C 
ENDROOT
BRANCH   4   5
ATOM      5  N   UNL     1      50.322   7.546  14.330  0.00  0.00    +0.000 N 
ATOM      6  C   UNL     1      50.082   6.858  15.504  0.00  0.00    +0.000 A 
ATOM      7  C   UNL     1      48.809   6.592  15.997  0.00  0.00    +0.000 A 
ATOM      8  C   UNL     1      48.660   5.828  17.155  0.00  0.00    +0.000 A 
ATOM      9  C   UNL     1      49.785   5.314  17.793  0.00  0.00    +0.000 A 
ATOM     13  C   UNL     1      51.014   5.619  17.234  0.00  0.00    +0.000 A 
ATOM     14  N   UNL     1      51.180   6.379  16.121  0.00  0.00    +0.000 NA
ATOM     23  H   UNL     1      51.313   7.780  14.300  0.00  0.00    +0.000 HD
BRANCH   9  10
ATOM     10  C   UNL     1      49.607   4.466  19.001  0.00  0.00    +0.000 C 
ATOM     11  N   UNL     1      50.592   4.436  19.944  0.00  0.00    +0.000 N 
ATOM     12  O   UNL     1      48.588   3.794  19.154  0.00  0.00    +0.000 OA
ATOM     24  H   UNL     1      51.476   4.924  19.905  0.00  0.00    +0.000 HD
ATOM     25  H   UNL     1      50.432   3.826  20.741  0.00  0.00    +0.000 HD
ENDBRANCH   9  10
ENDBRANCH   4   5
BRANCH   4   2
ATOM      1  C   UNL     1      48.565   9.578  11.716  0.00  0.00    +0.000 C 
ATOM      2  C   UNL     1      48.750   8.256  12.506  0.00  0.00    +0.000 C 
ATOM      3  C   UNL     1      49.763   7.395  11.712  0.00  0.00    +0.000 C 
BRANCH   2  15
ATOM     15  C   UNL     1      47.433   7.474  12.679  0.00  0.00    +0.000 A 
ATOM     16  C   UNL     1      46.193   8.128  12.586  0.00  0.00    +0.000 A 
ATOM     17  C   UNL     1      44.994   7.419  12.679  0.00  0.00    +0.000 A 
ATOM     18  C   UNL     1      45.005   6.037  12.862  0.00  0.00    +0.000 A 
ATOM     19  C   UNL     1      46.215   5.350  12.985  0.00  0.00    +0.000 A 
ATOM     22  C   UNL     1      47.412   6.082  12.894  0.00  0.00    +0.000 A 
BRANCH  19  20
ATOM     20  C   UNL     1      46.290   3.844  13.090  0.00  0.00    +0.000 C 
BRANCH  20  21
ATOM     21  N   UNL     1      47.250   3.367  14.077  0.00  0.00    +0.000 NA
ATOM     26  H   UNL     1      48.164   3.295  13.631  0.00  0.00    +0.000 HD
ATOM     27  H   UNL     1      46.992   2.422  14.354  0.00  0.00    +0.000 HD
ENDBRANCH  20  21
ENDBRANCH  19  20
ENDBRANCH   2  15
ENDBRANCH   4   2
TORSDOF 6
ENDMDL
