MODEL 1
REMARK VINA RESULT:    -6.838      0.000      0.000
REMARK INTER + INTRA:          -9.301
REMARK INTER:                  -8.437
REMARK INTRA:                  -0.864
REMARK UNBOUND:                -0.864
REMARK  Name = 
REMARK  4 active torsions:
REMARK  status: ('A' for Active; 'I' for Inactive)
REMARK    1  A    between atoms: C_2  and  C_4
REMARK    2  A    between atoms: C_11  and  C_12
REMARK    3  A    between atoms: N_15  and  C_16
REMARK    4  A    between atoms: C_16  and  C_17
REMARK                            x       y       z     vdW  Elec       q    Type
REMARK                         _______ _______ _______ _____ _____    ______ ____
ROOT
ATOM      4  C   UNL     1      45.433   5.031  11.619  0.00  0.00    +0.000 A 
ATOM      5  C   UNL     1      45.073   4.131  12.618  0.00  0.00    +0.000 A 
ATOM      6  N   UNL     1      45.639   4.039  13.856  0.00  0.00    +0.000 NA
ATOM      7  C   UNL     1      46.611   4.957  14.063  0.00  0.00    +0.000 A 
ATOM      8  C   UNL     1      47.043   5.914  13.150  0.00  0.00    +0.000 A 
ATOM      9  C   UNL     1      46.433   5.967  11.887  0.00  0.00    +0.000 A 
ATOM     10  C   UNL     1      48.074   6.648  13.769  0.00  0.00    +0.000 A 
ATOM     11  C   UNL     1      48.256   6.143  15.041  0.00  0.00    +0.000 A 
ATOM     15  N   UNL     1      47.359   5.104  15.217  0.00  0.00    +0.000 N 
ENDROOT
BRANCH   4   2
ATOM      1  N   UNL     1      45.482   5.341   9.212  0.00  0.00    +0.000 N 
ATOM      2  C   UNL     1      44.752   4.986  10.311  0.00  0.00    +0.000 C 
ATOM      3  O   UNL     1      43.588   4.612  10.209  0.00  0.00    +0.000 OA
ATOM     25  H   UNL     1      45.035   5.230   8.309  0.00  0.00    +0.000 HD
ATOM     26  H   UNL     1      46.487   5.450   9.227  0.00  0.00    +0.000 HD
ENDBRANCH   4   2
BRANCH  11  12
ATOM     12  C   UNL     1      49.253   6.700  16.055  0.00  0.00    +0.000 C 
ATOM     13  C   UNL     1      48.701   7.591  17.159  0.00  0.00    +0.000 C 
ATOM     14  C   UNL     1      49.532   8.190  16.080  0.00  0.00    +0.000 C 
ENDBRANCH  11  12
BRANCH  15  16
ATOM     16  C   UNL     1      47.279   4.183  16.353  0.00  0.00    +0.000 C 
BRANCH  16  17
ATOM     17  C   UNL     1      48.355   3.110  16.390  0.00  0.00    +0.000 C 
ATOM     18  O   UNL     1      48.502   2.298  15.475  0.00  0.00    +0.000 OA
ATOM     19  N   UNL     1      49.176   3.065  17.519  0.00  0.00    +0.000 N 
ATOM     20  C   UNL     1      49.092   3.919  18.712  0.00  0.00    +0.000 C 
ATOM     21  C   UNL     1      50.422   4.662  18.969  0.00  0.00    +0.000 C 
ATOM     22  N   UNL     1      51.611   3.786  18.960  0.00  0.00    +0.000 NA
ATOM     23  C   UNL     1      51.632   2.988  17.715  0.00  0.00    +0.000 C 
ATOM     24  C   UNL     1      50.340   2.174  17.516  0.00  0.00    +0.000 C 
ATOM     27  H   UNL     1      51.555   3.143  19.750  0.00  0.00    +0.000 HD
ENDBRANCH  16  17
ENDBRANCH  15  16
TORSDOF 4
ENDMDL
MODEL 2
REMARK VINA RESULT:    -6.269      2.503      3.480
REMARK INTER + INTRA:          -8.598
REMARK INTER:                  -7.694
REMARK INTRA:                  -0.905
REMARK UNBOUND:                -0.864
REMARK  Name = 
REMARK  4 active torsions:
REMARK  status: ('A' for Active; 'I' for Inactive)
REMARK    1  A    between atoms: C_2  and  C_4
REMARK    2  A    between atoms: C_11  and  C_12
REMARK    3  A    between atoms: N_15  and  C_16
REMARK    4  A    between atoms: C_16  and  C_17
REMARK                            x       y       z     vdW  Elec       q    Type
REMARK                         _______ _______ _______ _____ _____    ______ ____
ROOT
ATOM      4  C   UNL     1      45.619   4.227  12.544  0.00  0.00    +0.000 A 
ATOM      5  C   UNL     1      46.346   4.021  13.712  0.00  0.00    +0.000 A 
ATOM      6  N   UNL     1      47.308   4.848  14.214  0.00  0.00    +0.000 NA
ATOM      7  C   UNL     1      47.495   5.959  13.464  0.00  0.00    +0.000 A 
ATOM      8  C   UNL     1      46.818   6.280  12.292  0.00  0.00    +0.000 A 
ATOM      9  C   UNL     1      45.839   5.396  11.813  0.00  0.00    +0.000 A 
ATOM     10  C   UNL     1      47.331   7.511  11.836  0.00  0.00    +0.000 A 
ATOM     11  C   UNL     1      48.298   7.928  12.727  0.00  0.00    +0.000 A 
ATOM     15  N   UNL     1      48.400   6.972  13.723  0.00  0.00    +0.000 N 
ENDROOT
BRANCH   4   2
ATOM      1  N   UNL     1      44.722   2.773  10.819  0.00  0.00    +0.000 N 
ATOM      2  C   UNL     1      44.632   3.221  12.107  0.00  0.00    +0.000 C 
ATOM      3  O   UNL     1      43.787   2.778  12.877  0.00  0.00    +0.000 OA
ATOM     25  H   UNL     1      44.094   2.024  10.549  0.00  0.00    +0.000 HD
ATOM     26  H   UNL     1      45.520   2.953  10.225  0.00  0.00    +0.000 HD
ENDBRANCH   4   2
BRANCH  11  12
ATOM     12  C   UNL     1      49.063   9.246  12.615  0.00  0.00    +0.000 C 
ATOM     13  C   UNL     1      48.458  10.464  13.297  0.00  0.00    +0.000 C 
ATOM     14  C   UNL     1      48.465  10.384  11.812  0.00  0.00    +0.000 C 
ENDBRANCH  11  12
BRANCH  15  16
ATOM     16  C   UNL     1      49.385   6.917  14.804  0.00  0.00    +0.000 C 
BRANCH  16  17
ATOM     17  C   UNL     1      48.883   7.391  16.159  0.00  0.00    +0.000 C 
ATOM     18  O   UNL     1      48.465   8.536  16.338  0.00  0.00    +0.000 OA
ATOM     19  N   UNL     1      48.925   6.476  17.214  0.00  0.00    +0.000 N 
ATOM     20  C   UNL     1      49.446   5.102  17.176  0.00  0.00    +0.000 C 
ATOM     21  C   UNL     1      48.372   4.080  17.611  0.00  0.00    +0.000 C 
ATOM     22  N   UNL     1      47.702   4.418  18.883  0.00  0.00    +0.000 NA
ATOM     23  C   UNL     1      47.184   5.801  18.821  0.00  0.00    +0.000 C 
ATOM     24  C   UNL     1      48.282   6.826  18.483  0.00  0.00    +0.000 C 
ATOM     27  H   UNL     1      48.383   4.365  19.640  0.00  0.00    +0.000 HD
ENDBRANCH  16  17
ENDBRANCH  15  16
TORSDOF 4
ENDMDL
MODEL 3
REMARK VINA RESULT:    -6.148      2.872      4.742
REMARK INTER + INTRA:          -8.449
REMARK INTER:                  -7.676
REMARK INTRA:                  -0.774
REMARK UNBOUND:                -0.864
REMARK  Name = 
REMARK  4 active torsions:
REMARK  status: ('A' for Active; 'I' for Inactive)
REMARK    1  A    between atoms: C_2  and  C_4
REMARK    2  A    between atoms: C_11  and  C_12
REMARK    3  A    between atoms: N_15  and  C_16
REMARK    4  A    between atoms: C_16  and  C_17
REMARK                            x       y       z     vdW  Elec       q    Type
REMARK                         _______ _______ _______ _____ _____    ______ ____
ROOT
ATOM      4  C   UNL     1      50.027   8.226  12.405  0.00  0.00    +0.000 A 
ATOM      5  C   UNL     1      50.044   7.654  13.674  0.00  0.00    +0.000 A 
ATOM      6  N   UNL     1      49.097   6.817  14.188  0.00  0.00    +0.000 NA
ATOM      7  C   UNL     1      48.100   6.546  13.315  0.00  0.00    +0.000 A 
ATOM      8  C   UNL     1      47.985   7.043  12.021  0.00  0.00    +0.000 A 
ATOM      9  C   UNL     1      48.982   7.904  11.537  0.00  0.00    +0.000 A 
ATOM     10  C   UNL     1      46.796   6.520  11.475  0.00  0.00    +0.000 A 
ATOM     11  C   UNL     1      46.206   5.713  12.427  0.00  0.00    +0.000 A 
ATOM     15  N   UNL     1      47.006   5.734  13.556  0.00  0.00    +0.000 N 
ENDROOT
BRANCH   4   2
ATOM      1  N   UNL     1      52.069   9.429  12.930  0.00  0.00    +0.000 N 
ATOM      2  C   UNL     1      51.108   9.146  12.001  0.00  0.00    +0.000 C 
ATOM      3  O   UNL     1      51.161   9.610  10.867  0.00  0.00    +0.000 OA
ATOM     25  H   UNL     1      52.851   9.996  12.622  0.00  0.00    +0.000 HD
ATOM     26  H   UNL     1      52.176   8.912  13.791  0.00  0.00    +0.000 HD
ENDBRANCH   4   2
BRANCH  11  12
ATOM     12  C   UNL     1      44.920   4.920  12.207  0.00  0.00    +0.000 C 
ATOM     13  C   UNL     1      45.060   3.444  11.860  0.00  0.00    +0.000 C 
ATOM     14  C   UNL     1      44.596   4.401  10.820  0.00  0.00    +0.000 C 
ENDBRANCH  11  12
BRANCH  15  16
ATOM     16  C   UNL     1      46.714   5.140  14.862  0.00  0.00    +0.000 C 
BRANCH  16  17
ATOM     17  C   UNL     1      47.390   3.804  15.129  0.00  0.00    +0.000 C 
ATOM     18  O   UNL     1      47.606   2.989  14.230  0.00  0.00    +0.000 OA
ATOM     19  N   UNL     1      47.751   3.521  16.448  0.00  0.00    +0.000 N 
ATOM     20  C   UNL     1      47.511   4.357  17.632  0.00  0.00    +0.000 C 
ATOM     21  C   UNL     1      48.830   4.688  18.366  0.00  0.00    +0.000 C 
ATOM     22  N   UNL     1      49.676   3.509  18.642  0.00  0.00    +0.000 NA
ATOM     23  C   UNL     1      49.890   2.746  17.394  0.00  0.00    +0.000 C 
ATOM     24  C   UNL     1      48.568   2.335  16.721  0.00  0.00    +0.000 C 
ATOM     27  H   UNL     1      49.193   2.905  19.307  0.00  0.00    +0.000 HD
ENDBRANCH  16  17
ENDBRANCH  15  16
TORSDOF 4
ENDMDL
MODEL 4
REMARK VINA RESULT:    -5.727      4.346      7.498
REMARK INTER + INTRA:          -7.930
REMARK INTER:                  -7.200
REMARK INTRA:                  -0.730
REMARK UNBOUND:                -0.864
REMARK  Name = 
REMARK  4 active torsions:
REMARK  status: ('A' for Active; 'I' for Inactive)
REMARK    1  A    between atoms: C_2  and  C_4
REMARK    2  A    between atoms: C_11  and  C_12
REMARK    3  A    between atoms: N_15  and  C_16
REMARK    4  A    between atoms: C_16  and  C_17
REMARK                            x       y       z     vdW  Elec       q    Type
REMARK                         _______ _______ _______ _____ _____    ______ ____
ROOT
ATOM      4  C   UNL     1      44.478   4.354  11.322  0.00  0.00    +0.000 A 
ATOM      5  C   UNL     1      43.745   5.532  11.212  0.00  0.00    +0.000 A 
ATOM      6  N   UNL     1      44.131   6.761  11.658  0.00  0.00    +0.000 NA
ATOM      7  C   UNL     1      45.360   6.758  12.223  0.00  0.00    +0.000 A 
ATOM      8  C   UNL     1      46.190   5.651  12.373  0.00  0.00    +0.000 A 
ATOM      9  C   UNL     1      45.747   4.405  11.901  0.00  0.00    +0.000 A 
ATOM     10  C   UNL     1      47.362   6.091  13.020  0.00  0.00    +0.000 A 
ATOM     11  C   UNL     1      47.242   7.447  13.250  0.00  0.00    +0.000 A 
ATOM     15  N   UNL     1      46.011   7.852  12.763  0.00  0.00    +0.000 N 
ENDROOT
BRANCH   4   2
ATOM      1  N   UNL     1      43.362   2.240  11.745  0.00  0.00    +0.000 N 
ATOM      2  C   UNL     1      43.911   3.087  10.823  0.00  0.00    +0.000 C 
ATOM      3  O   UNL     1      43.901   2.818   9.626  0.00  0.00    +0.000 OA
ATOM     25  H   UNL     1      42.902   1.410  11.388  0.00  0.00    +0.000 HD
ATOM     26  H   UNL     1      43.164   2.512  12.698  0.00  0.00    +0.000 HD
ENDBRANCH   4   2
BRANCH  11  12
ATOM     12  C   UNL     1      48.325   8.312  13.891  0.00  0.00    +0.000 C 
ATOM     13  C   UNL     1      49.558   8.619  13.053  0.00  0.00    +0.000 C 
ATOM     14  C   UNL     1      49.671   7.695  14.215  0.00  0.00    +0.000 C 
ENDBRANCH  11  12
BRANCH  15  16
ATOM     16  C   UNL     1      45.389   9.170  12.907  0.00  0.00    +0.000 C 
BRANCH  16  17
ATOM     17  C   UNL     1      45.710  10.158  11.796  0.00  0.00    +0.000 C 
ATOM     18  O   UNL     1      46.867  10.415  11.463  0.00  0.00    +0.000 OA
ATOM     19  N   UNL     1      44.632  10.785  11.166  0.00  0.00    +0.000 N 
ATOM     20  C   UNL     1      43.206  10.631  11.486  0.00  0.00    +0.000 C 
ATOM     21  C   UNL     1      42.400  10.160  10.254  0.00  0.00    +0.000 C 
ATOM     22  N   UNL     1      42.644  10.958   9.036  0.00  0.00    +0.000 NA
ATOM     23  C   UNL     1      44.097  11.035   8.774  0.00  0.00    +0.000 C 
ATOM     24  C   UNL     1      44.882  11.598   9.973  0.00  0.00    +0.000 C 
ATOM     27  H   UNL     1      42.296  11.905   9.185  0.00  0.00    +0.000 HD
ENDBRANCH  16  17
ENDBRANCH  15  16
TORSDOF 4
ENDMDL
MODEL 5
REMARK VINA RESULT:    -5.706      3.164      5.050
REMARK INTER + INTRA:          -7.904
REMARK INTER:                  -7.385
REMARK INTRA:                  -0.518
REMARK UNBOUND:                -0.864
REMARK  Name = 
REMARK  4 active torsions:
REMARK  status: ('A' for Active; 'I' for Inactive)
REMARK    1  A    between atoms: C_2  and  C_4
REMARK    2  A    between atoms: C_11  and  C_12
REMARK    3  A    between atoms: N_15  and  C_16
REMARK    4  A    between atoms: C_16  and  C_17
REMARK                            x       y       z     vdW  Elec       q    Type
REMARK                         _______ _______ _______ _____ _____    ______ ____
ROOT
ATOM      4  C   UNL     1      45.217   9.760  11.777  0.00  0.00    +0.000 A 
ATOM      5  C   UNL     1      46.475   9.474  12.299  0.00  0.00    +0.000 A 
ATOM      6  N   UNL     1      46.970   8.231  12.563  0.00  0.00    +0.000 NA
ATOM      7  C   UNL     1      46.111   7.238  12.234  0.00  0.00    +0.000 A 
ATOM      8  C   UNL     1      44.840   7.400  11.691  0.00  0.00    +0.000 A 
ATOM      9  C   UNL     1      44.373   8.700  11.441  0.00  0.00    +0.000 A 
ATOM     10  C   UNL     1      44.292   6.114  11.519  0.00  0.00    +0.000 A 
ATOM     11  C   UNL     1      45.223   5.189  11.946  0.00  0.00    +0.000 A 
ATOM     15  N   UNL     1      46.337   5.882  12.387  0.00  0.00    +0.000 N 
ENDROOT
BRANCH   4   2
ATOM      1  N   UNL     1      45.534  12.125  12.223  0.00  0.00    +0.000 N 
ATOM      2  C   UNL     1      44.806  11.163  11.580  0.00  0.00    +0.000 C 
ATOM      3  O   UNL     1      43.871  11.458  10.844  0.00  0.00    +0.000 OA
ATOM     25  H   UNL     1      45.298  13.090  12.020  0.00  0.00    +0.000 HD
ATOM     26  H   UNL     1      46.425  11.943  12.663  0.00  0.00    +0.000 HD
ENDBRANCH   4   2
BRANCH  11  12
ATOM     12  C   UNL     1      45.029   3.676  11.879  0.00  0.00    +0.000 C 
ATOM     13  C   UNL     1      44.791   3.064  10.506  0.00  0.00    +0.000 C 
ATOM     14  C   UNL     1      43.675   3.118  11.488  0.00  0.00    +0.000 C 
ENDBRANCH  11  12
BRANCH  15  16
ATOM     16  C   UNL     1      47.518   5.332  13.055  0.00  0.00    +0.000 C 
BRANCH  16  17
ATOM     17  C   UNL     1      47.311   4.940  14.510  0.00  0.00    +0.000 C 
ATOM     18  O   UNL     1      46.601   3.988  14.837  0.00  0.00    +0.000 OA
ATOM     19  N   UNL     1      47.951   5.716  15.480  0.00  0.00    +0.000 N 
ATOM     20  C   UNL     1      48.778   6.910  15.257  0.00  0.00    +0.000 C 
ATOM     21  C   UNL     1      50.192   6.736  15.855  0.00  0.00    +0.000 C 
ATOM     22  N   UNL     1      50.199   6.272  17.257  0.00  0.00    +0.000 NA
ATOM     23  C   UNL     1      49.370   5.054  17.383  0.00  0.00    +0.000 C 
ATOM     24  C   UNL     1      47.932   5.266  16.875  0.00  0.00    +0.000 C 
ATOM     27  H   UNL     1      49.792   6.998  17.847  0.00  0.00    +0.000 HD
ENDBRANCH  16  17
ENDBRANCH  15  16
TORSDOF 4
ENDMDL
MODEL 6
REMARK VINA RESULT:    -5.426      2.605      4.129
REMARK INTER + INTRA:          -7.558
REMARK INTER:                  -6.841
REMARK INTRA:                  -0.718
REMARK UNBOUND:                -0.864
REMARK  Name = 
REMARK  4 active torsions:
REMARK  status: ('A' for Active; 'I' for Inactive)
REMARK    1  A    between atoms: C_2  and  C_4
REMARK    2  A    between atoms: C_11  and  C_12
REMARK    3  A    between atoms: N_15  and  C_16
REMARK    4  A    between atoms: C_16  and  C_17
REMARK                            x       y       z     vdW  Elec       q    Type
REMARK                         _______ _______ _______ _____ _____    ______ ____
ROOT
ATOM      4  C   UNL     1      46.181   5.796  11.825  0.00  0.00    +0.000 A 
ATOM      5  C   UNL     1      47.131   6.802  11.974  0.00  0.00    +0.000 A 
ATOM      6  N   UNL     1      47.917   7.007  13.069  0.00  0.00    +0.000 NA
ATOM      7  C   UNL     1      47.715   6.092  14.045  0.00  0.00    +0.000 A 
ATOM      8  C   UNL     1      46.809   5.036  14.003  0.00  0.00    +0.000 A 
ATOM      9  C   UNL     1      46.019   4.869  12.856  0.00  0.00    +0.000 A 
ATOM     10  C   UNL     1      46.917   4.345  15.226  0.00  0.00    +0.000 A 
ATOM     11  C   UNL     1      47.879   4.973  15.991  0.00  0.00    +0.000 A 
ATOM     15  N   UNL     1      48.364   6.047  15.265  0.00  0.00    +0.000 N 
ENDROOT
BRANCH   4   2
ATOM      1  N   UNL     1      44.048   6.030  10.691  0.00  0.00    +0.000 N 
ATOM      2  C   UNL     1      45.376   5.723  10.591  0.00  0.00    +0.000 C 
ATOM      3  O   UNL     1      45.883   5.433   9.513  0.00  0.00    +0.000 OA
ATOM     25  H   UNL     1      43.518   6.057   9.827  0.00  0.00    +0.000 HD
ATOM     26  H   UNL     1      43.640   6.470  11.504  0.00  0.00    +0.000 HD
ENDBRANCH   4   2
BRANCH  11  12
ATOM     12  C   UNL     1      48.327   4.499  17.372  0.00  0.00    +0.000 C 
ATOM     13  C   UNL     1      49.359   3.382  17.425  0.00  0.00    +0.000 C 
ATOM     14  C   UNL     1      47.956   3.103  17.834  0.00  0.00    +0.000 C 
ENDBRANCH  11  12
BRANCH  15  16
ATOM     16  C   UNL     1      49.294   7.081  15.723  0.00  0.00    +0.000 C 
BRANCH  16  17
ATOM     17  C   UNL     1      48.641   8.300  16.355  0.00  0.00    +0.000 C 
ATOM     18  O   UNL     1      47.967   9.096  15.700  0.00  0.00    +0.000 OA
ATOM     19  N   UNL     1      48.845   8.500  17.723  0.00  0.00    +0.000 N 
ATOM     20  C   UNL     1      49.665   7.680  18.626  0.00  0.00    +0.000 C 
ATOM     21  C   UNL     1      48.834   7.147  19.815  0.00  0.00    +0.000 C 
ATOM     22  N   UNL     1      48.053   8.187  20.515  0.00  0.00    +0.000 NA
ATOM     23  C   UNL     1      47.237   8.939  19.537  0.00  0.00    +0.000 C 
ATOM     24  C   UNL     1      48.087   9.550  18.408  0.00  0.00    +0.000 C 
ATOM     27  H   UNL     1      48.696   8.839  20.963  0.00  0.00    +0.000 HD
ENDBRANCH  16  17
ENDBRANCH  15  16
TORSDOF 4
ENDMDL
MODEL 7
REMARK VINA RESULT:    -5.344      2.707      4.787
REMARK INTER + INTRA:          -7.457
REMARK INTER:                  -6.558
REMARK INTRA:                  -0.899
REMARK UNBOUND:                -0.864
REMARK  Name = 
REMARK  4 active torsions:
REMARK  status: ('A' for Active; 'I' for Inactive)
REMARK    1  A    between atoms: C_2  and  C_4
REMARK    2  A    between atoms: C_11  and  C_12
REMARK    3  A    between atoms: N_15  and  C_16
REMARK    4  A    between atoms: C_16  and  C_17
REMARK                            x       y       z     vdW  Elec       q    Type
REMARK                         _______ _______ _______ _____ _____    ______ ____
ROOT
ATOM      4  C   UNL     1      45.660   5.120  11.614  0.00  0.00    +0.000 A 
ATOM      5  C   UNL     1      46.316   6.347  11.649  0.00  0.00    +0.000 A 
ATOM      6  N   UNL     1      47.073   6.822  12.680  0.00  0.00    +0.000 NA
ATOM      7  C   UNL     1      47.168   5.952  13.711  0.00  0.00    +0.000 A 
ATOM      8  C   UNL     1      46.574   4.696  13.782  0.00  0.00    +0.000 A 
ATOM      9  C   UNL     1      45.801   4.252  12.698  0.00  0.00    +0.000 A 
ATOM     10  C   UNL     1      46.921   4.138  15.029  0.00  0.00    +0.000 A 
ATOM     11  C   UNL     1      47.719   5.045  15.697  0.00  0.00    +0.000 A 
ATOM     15  N   UNL     1      47.865   6.158  14.888  0.00  0.00    +0.000 N 
ENDROOT
BRANCH   4   2
ATOM      1  N   UNL     1      45.349   5.064   9.207  0.00  0.00    +0.000 N 
ATOM      2  C   UNL     1      44.844   4.758  10.439  0.00  0.00    +0.000 C 
ATOM      3  O   UNL     1      43.772   4.174  10.561  0.00  0.00    +0.000 OA
ATOM     25  H   UNL     1      44.823   4.741   8.403  0.00  0.00    +0.000 HD
ATOM     26  H   UNL     1      46.307   5.349   9.056  0.00  0.00    +0.000 HD
ENDBRANCH   4   2
BRANCH  11  12
ATOM     12  C   UNL     1      48.343   4.797  17.068  0.00  0.00    +0.000 C 
ATOM     13  C   UNL     1      49.705   4.119  17.102  0.00  0.00    +0.000 C 
ATOM     14  C   UNL     1      48.504   3.373  17.564  0.00  0.00    +0.000 C 
ENDBRANCH  11  12
BRANCH  15  16
ATOM     16  C   UNL     1      48.509   7.427  15.232  0.00  0.00    +0.000 C 
BRANCH  16  17
ATOM     17  C   UNL     1      49.963   7.550  14.801  0.00  0.00    +0.000 C 
ATOM     18  O   UNL     1      50.844   6.820  15.257  0.00  0.00    +0.000 OA
ATOM     19  N   UNL     1      50.273   8.541  13.867  0.00  0.00    +0.000 N 
ATOM     20  C   UNL     1      49.352   9.522  13.276  0.00  0.00    +0.000 C 
ATOM     21  C   UNL     1      49.346   9.432  11.733  0.00  0.00    +0.000 C 
ATOM     22  N   UNL     1      50.691   9.452  11.126  0.00  0.00    +0.000 NA
ATOM     23  C   UNL     1      51.538   8.417  11.756  0.00  0.00    +0.000 C 
ATOM     24  C   UNL     1      51.618   8.574  13.286  0.00  0.00    +0.000 C 
ATOM     27  H   UNL     1      51.118  10.362  11.297  0.00  0.00    +0.000 HD
ENDBRANCH  16  17
ENDBRANCH  15  16
TORSDOF 4
ENDMDL
MODEL 8
REMARK VINA RESULT:    -5.312      3.244      7.276
REMARK INTER + INTRA:          -7.418
REMARK INTER:                  -6.694
REMARK INTRA:                  -0.724
REMARK UNBOUND:                -0.864
REMARK  Name = 
REMARK  4 active torsions:
REMARK  status: ('A' for Active; 'I' for Inactive)
REMARK    1  A    between atoms: C_2  and  C_4
REMARK    2  A    between atoms: C_11  and  C_12
REMARK    3  A    between atoms: N_15  and  C_16
REMARK    4  A    between atoms: C_16  and  C_17
REMARK                            x       y       z     vdW  Elec       q    Type
REMARK                         _______ _______ _______ _____ _____    ______ ____
ROOT
ATOM      4  C   UNL     1      48.179   4.627  16.769  0.00  0.00    +0.000 A 
ATOM      5  C   UNL     1      48.859   5.748  16.302  0.00  0.00    +0.000 A 
ATOM      6  N   UNL     1      48.666   6.360  15.098  0.00  0.00    +0.000 NA
ATOM      7  C   UNL     1      47.690   5.780  14.361  0.00  0.00    +0.000 A 
ATOM      8  C   UNL     1      46.935   4.671  14.728  0.00  0.00    +0.000 A 
ATOM      9  C   UNL     1      47.173   4.074  15.976  0.00  0.00    +0.000 A 
ATOM     10  C   UNL     1      46.049   4.398  13.666  0.00  0.00    +0.000 A 
ATOM     11  C   UNL     1      46.265   5.335  12.676  0.00  0.00    +0.000 A 
ATOM     15  N   UNL     1      47.275   6.179  13.103  0.00  0.00    +0.000 N 
ENDROOT
BRANCH   4   2
ATOM      1  N   UNL     1      47.659   3.140  18.615  0.00  0.00    +0.000 N 
ATOM      2  C   UNL     1      48.525   4.054  18.083  0.00  0.00    +0.000 C 
ATOM      3  O   UNL     1      49.564   4.357  18.660  0.00  0.00    +0.000 OA
ATOM     25  H   UNL     1      47.942   2.690  19.479  0.00  0.00    +0.000 HD
ATOM     26  H   UNL     1      46.912   2.712  18.087  0.00  0.00    +0.000 HD
ENDBRANCH   4   2
BRANCH  11  12
ATOM     12  C   UNL     1      45.470   5.412  11.374  0.00  0.00    +0.000 C 
ATOM     13  C   UNL     1      44.164   6.192  11.400  0.00  0.00    +0.000 C 
ATOM     14  C   UNL     1      44.130   4.709  11.280  0.00  0.00    +0.000 C 
ENDBRANCH  11  12
BRANCH  15  16
ATOM     16  C   UNL     1      47.936   7.234  12.333  0.00  0.00    +0.000 C 
BRANCH  16  17
ATOM     17  C   UNL     1      47.310   8.614  12.462  0.00  0.00    +0.000 C 
ATOM     18  O   UNL     1      46.175   8.779  12.911  0.00  0.00    +0.000 OA
ATOM     19  N   UNL     1      48.071   9.705  12.034  0.00  0.00    +0.000 N 
ATOM     20  C   UNL     1      49.408   9.670  11.426  0.00  0.00    +0.000 C 
ATOM     21  C   UNL     1      50.417  10.520  12.232  0.00  0.00    +0.000 C 
ATOM     22  N   UNL     1      49.946  11.886  12.532  0.00  0.00    +0.000 NA
ATOM     23  C   UNL     1      48.612  11.825  13.168  0.00  0.00    +0.000 C 
ATOM     24  C   UNL     1      47.586  11.061  12.311  0.00  0.00    +0.000 C 
ATOM     27  H   UNL     1      49.860  12.406  11.659  0.00  0.00    +0.000 HD
ENDBRANCH  16  17
ENDBRANCH  15  16
TORSDOF 4
ENDMDL
MODEL 9
REMARK VINA RESULT:    -5.098      2.886      3.919
REMARK INTER + INTRA:          -7.154
REMARK INTER:                  -7.033
REMARK INTRA:                  -0.120
REMARK UNBOUND:                -0.864
REMARK  Name = 
REMARK  4 active torsions:
REMARK  status: ('A' for Active; 'I' for Inactive)
REMARK    1  A    between atoms: C_2  and  C_4
REMARK    2  A    between atoms: C_11  and  C_12
REMARK    3  A    between atoms: N_15  and  C_16
REMARK    4  A    between atoms: C_16  and  C_17
REMARK                            x       y       z     vdW  Elec       q    Type
REMARK                         _______ _______ _______ _____ _____    ______ ____
ROOT
ATOM      4  C   UNL     1      45.457   4.208  12.173  0.00  0.00    +0.000 A 
ATOM      5  C   UNL     1      46.438   3.884  13.106  0.00  0.00    +0.000 A 
ATOM      6  N   UNL     1      47.366   4.739  13.623  0.00  0.00    +0.000 NA
ATOM      7  C   UNL     1      47.239   6.003  13.158  0.00  0.00    +0.000 A 
ATOM      8  C   UNL     1      46.291   6.448  12.241  0.00  0.00    +0.000 A 
ATOM      9  C   UNL     1      45.359   5.530  11.734  0.00  0.00    +0.000 A 
ATOM     10  C   UNL     1      46.527   7.821  12.029  0.00  0.00    +0.000 A 
ATOM     11  C   UNL     1      47.598   8.199  12.812  0.00  0.00    +0.000 A 
ATOM     15  N   UNL     1      48.036   7.081  13.501  0.00  0.00    +0.000 N 
ENDROOT
BRANCH   4   2
ATOM      1  N   UNL     1      43.862   2.432  12.610  0.00  0.00    +0.000 N 
ATOM      2  C   UNL     1      44.542   3.163  11.677  0.00  0.00    +0.000 C 
ATOM      3  O   UNL     1      44.372   2.979  10.476  0.00  0.00    +0.000 OA
ATOM     25  H   UNL     1      43.175   1.771  12.263  0.00  0.00    +0.000 HD
ATOM     26  H   UNL     1      43.815   2.687  13.586  0.00  0.00    +0.000 HD
ENDBRANCH   4   2
BRANCH  11  12
ATOM     12  C   UNL     1      48.139   9.624  12.903  0.00  0.00    +0.000 C 
ATOM     13  C   UNL     1      48.496  10.319  11.597  0.00  0.00    +0.000 C 
ATOM     14  C   UNL     1      49.581   9.896  12.524  0.00  0.00    +0.000 C 
ENDBRANCH  11  12
BRANCH  15  16
ATOM     16  C   UNL     1      49.228   6.967  14.343  0.00  0.00    +0.000 C 
BRANCH  16  17
ATOM     17  C   UNL     1      48.957   6.633  15.802  0.00  0.00    +0.000 C 
ATOM     18  O   UNL     1      48.911   5.472  16.210  0.00  0.00    +0.000 OA
ATOM     19  N   UNL     1      48.744   7.703  16.674  0.00  0.00    +0.000 N 
ATOM     20  C   UNL     1      48.708   9.132  16.334  0.00  0.00    +0.000 C 
ATOM     21  C   UNL     1      49.746   9.933  17.152  0.00  0.00    +0.000 C 
ATOM     22  N   UNL     1      49.694   9.676  18.605  0.00  0.00    +0.000 NA
ATOM     23  C   UNL     1      49.766   8.220  18.856  0.00  0.00    +0.000 C 
ATOM     24  C   UNL     1      48.666   7.440  18.114  0.00  0.00    +0.000 C 
ATOM     27  H   UNL     1      48.805  10.019  18.970  0.00  0.00    +0.000 HD
ENDBRANCH  16  17
ENDBRANCH  15  16
TORSDOF 4
ENDMDL
