MODEL 1
REMARK VINA RESULT:    -7.863      0.000      0.000
REMARK INTER + INTRA:         -10.334
REMARK INTER:                  -9.931
REMARK INTRA:                  -0.403
REMARK UNBOUND:                -0.403
REMARK  Name = 
REMARK  5 active torsions:
REMARK  status: ('A' for Active; 'I' for Inactive)
REMARK    1  A    between atoms: N_1  and  C_2
REMARK    2  A    between atoms: C_2  and  C_3
REMARK    3  A    between atoms: C_6  and  C_7
REMARK    4  A    between atoms: C_7  and  N_8
REMARK    5  A    between atoms: C_13  and  C_14
REMARK                            x       y       z     vdW  Elec       q    Type
REMARK                         _______ _______ _______ _____ _____    ______ ____
ROOT
ATOM      8  N   UNL     1      43.905   3.843  11.097  0.00  0.00    +0.000 N 
ATOM      9  C   UNL     1      43.344   5.032  10.675  0.00  0.00    +0.000 A 
ATOM     10  C   UNL     1      43.445   5.880  11.741  0.00  0.00    +0.000 A 
ATOM     11  C   UNL     1      44.723   5.563  12.253  0.00  0.00    +0.000 A 
ATOM     12  C   UNL     1      45.777   6.247  12.875  0.00  0.00    +0.000 A 
ATOM     13  C   UNL     1      46.874   5.523  13.377  0.00  0.00    +0.000 A 
ATOM     17  C   UNL     1      46.777   4.128  13.446  0.00  0.00    +0.000 A 
ATOM     18  C   UNL     1      45.741   3.421  12.812  0.00  0.00    +0.000 A 
ATOM     19  C   UNL     1      44.808   4.175  12.098  0.00  0.00    +0.000 A 
ENDROOT
BRANCH  13  14
ATOM     14  C   UNL     1      48.082   6.305  13.726  0.00  0.00    +0.000 C 
ATOM     15  N   UNL     1      48.128   6.928  14.985  0.00  0.00    +0.000 N 
ATOM     16  O   UNL     1      49.059   6.384  13.018  0.00  0.00    +0.000 OA
ATOM     24  H   UNL     1      47.413   6.869  15.677  0.00  0.00    +0.000 HD
ATOM     25  H   UNL     1      49.003   7.358  15.223  0.00  0.00    +0.000 HD
ENDBRANCH  13  14
BRANCH   8   7
ATOM      7  C   UNL     1      43.971   2.679  10.228  0.00  0.00    +0.000 C 
BRANCH   7   6
ATOM      3  C   UNL     1      46.741   2.757   6.919  0.00  0.00    +0.000 A 
ATOM      4  C   UNL     1      46.551   1.559   7.632  0.00  0.00    +0.000 A 
ATOM      5  C   UNL     1      45.699   1.540   8.758  0.00  0.00    +0.000 A 
ATOM      6  C   UNL     1      45.026   2.692   9.173  0.00  0.00    +0.000 A 
ATOM     20  C   UNL     1      45.240   3.893   8.453  0.00  0.00    +0.000 A 
ATOM     21  C   UNL     1      46.087   3.920   7.347  0.00  0.00    +0.000 A 
BRANCH   3   2
ATOM      2  C   UNL     1      47.648   2.811   5.717  0.00  0.00    +0.000 C 
BRANCH   2   1
ATOM      1  N   UNL     1      48.417   1.584   5.551  0.00  0.00    +0.000 NA
ATOM     22  H   UNL     1      49.223   1.777   4.959  0.00  0.00    +0.000 HD
ATOM     23  H   UNL     1      47.848   0.904   5.048  0.00  0.00    +0.000 HD
ENDBRANCH   2   1
ENDBRANCH   3   2
ENDBRANCH   7   6
ENDBRANCH   8   7
TORSDOF 5
ENDMDL
MODEL 2
REMARK VINA RESULT:    -7.553      1.880      2.083
REMARK INTER + INTRA:          -9.943
REMARK INTER:                  -9.374
REMARK INTRA:                  -0.569
REMARK UNBOUND:                -0.403
REMARK  Name = 
REMARK  5 active torsions:
REMARK  status: ('A' for Active; 'I' for Inactive)
REMARK    1  A    between atoms: N_1  and  C_2
REMARK    2  A    between atoms: C_2  and  C_3
REMARK    3  A    between atoms: C_6  and  C_7
REMARK    4  A    between atoms: C_7  and  N_8
REMARK    5  A    between atoms: C_13  and  C_14
REMARK                            x       y       z     vdW  Elec       q    Type
REMARK                         _______ _______ _______ _____ _____    ______ ____
ROOT
ATOM      8  N   UNL     1      44.189   4.078  10.793  0.00  0.00    +0.000 N 
ATOM      9  C   UNL     1      43.197   3.890  11.736  0.00  0.00    +0.000 A 
ATOM     10  C   UNL     1      43.764   4.227  12.931  0.00  0.00    +0.000 A 
ATOM     11  C   UNL     1      44.541   5.355  12.584  0.00  0.00    +0.000 A 
ATOM     12  C   UNL     1      44.928   6.560  13.189  0.00  0.00    +0.000 A 
ATOM     13  C   UNL     1      45.855   7.395  12.541  0.00  0.00    +0.000 A 
ATOM     17  C   UNL     1      46.536   6.896  11.424  0.00  0.00    +0.000 A 
ATOM     18  C   UNL     1      46.152   5.702  10.789  0.00  0.00    +0.000 A 
ATOM     19  C   UNL     1      45.047   5.033  11.320  0.00  0.00    +0.000 A 
ENDROOT
BRANCH  13  14
ATOM     14  C   UNL     1      45.980   8.777  13.059  0.00  0.00    +0.000 C 
ATOM     15  N   UNL     1      44.915   9.667  12.835  0.00  0.00    +0.000 N 
ATOM     16  O   UNL     1      46.915   9.164  13.721  0.00  0.00    +0.000 OA
ATOM     24  H   UNL     1      44.066   9.435  12.368  0.00  0.00    +0.000 HD
ATOM     25  H   UNL     1      44.993  10.557  13.291  0.00  0.00    +0.000 HD
ENDBRANCH  13  14
BRANCH   8   7
ATOM      7  C   UNL     1      43.962   3.807   9.383  0.00  0.00    +0.000 C 
BRANCH   7   6
ATOM      3  C   UNL     1      46.978   1.951   6.915  0.00  0.00    +0.000 A 
ATOM      4  C   UNL     1      46.370   1.205   7.942  0.00  0.00    +0.000 A 
ATOM      5  C   UNL     1      45.433   1.822   8.798  0.00  0.00    +0.000 A 
ATOM      6  C   UNL     1      45.083   3.165   8.636  0.00  0.00    +0.000 A 
ATOM     20  C   UNL     1      45.715   3.907   7.608  0.00  0.00    +0.000 A 
ATOM     21  C   UNL     1      46.648   3.305   6.766  0.00  0.00    +0.000 A 
BRANCH   3   2
ATOM      2  C   UNL     1      47.986   1.323   5.988  0.00  0.00    +0.000 C 
BRANCH   2   1
ATOM      1  N   UNL     1      48.132   2.071   4.745  0.00  0.00    +0.000 NA
ATOM     22  H   UNL     1      47.246   2.054   4.244  0.00  0.00    +0.000 HD
ATOM     23  H   UNL     1      48.807   1.593   4.149  0.00  0.00    +0.000 HD
ENDBRANCH   2   1
ENDBRANCH   3   2
ENDBRANCH   7   6
ENDBRANCH   8   7
TORSDOF 5
ENDMDL
MODEL 3
REMARK VINA RESULT:    -7.359      2.235      6.258
REMARK INTER + INTRA:          -9.697
REMARK INTER:                  -8.958
REMARK INTRA:                  -0.739
REMARK UNBOUND:                -0.403
REMARK  Name = 
REMARK  5 active torsions:
REMARK  status: ('A' for Active; 'I' for Inactive)
REMARK    1  A    between atoms: N_1  and  C_2
REMARK    2  A    between atoms: C_2  and  C_3
REMARK    3  A    between atoms: C_6  and  C_7
REMARK    4  A    between atoms: C_7  and  N_8
REMARK    5  A    between atoms: C_13  and  C_14
REMARK                            x       y       z     vdW  Elec       q    Type
REMARK                         _______ _______ _______ _____ _____    ______ ____
ROOT
ATOM      8  N   UNL     1      43.951   4.535  10.971  0.00  0.00    +0.000 N 
ATOM      9  C   UNL     1      43.673   3.511  11.855  0.00  0.00    +0.000 A 
ATOM     10  C   UNL     1      43.398   2.424  11.076  0.00  0.00    +0.000 A 
ATOM     11  C   UNL     1      44.351   2.551  10.041  0.00  0.00    +0.000 A 
ATOM     12  C   UNL     1      45.115   1.691   9.239  0.00  0.00    +0.000 A 
ATOM     13  C   UNL     1      45.881   2.221   8.186  0.00  0.00    +0.000 A 
ATOM     17  C   UNL     1      45.683   3.559   7.825  0.00  0.00    +0.000 A 
ATOM     18  C   UNL     1      44.938   4.444   8.624  0.00  0.00    +0.000 A 
ATOM     19  C   UNL     1      44.408   3.929   9.808  0.00  0.00    +0.000 A 
ENDROOT
BRANCH  13  14
ATOM     14  C   UNL     1      46.900   1.327   7.589  0.00  0.00    +0.000 C 
ATOM     15  N   UNL     1      47.985   1.915   6.915  0.00  0.00    +0.000 N 
ATOM     16  O   UNL     1      46.888   0.124   7.706  0.00  0.00    +0.000 OA
ATOM     24  H   UNL     1      48.135   2.896   6.823  0.00  0.00    +0.000 HD
ATOM     25  H   UNL     1      48.704   1.281   6.618  0.00  0.00    +0.000 HD
ENDBRANCH  13  14
BRANCH   8   7
ATOM      7  C   UNL     1      44.284   5.873  11.434  0.00  0.00    +0.000 C 
BRANCH   7   6
ATOM      3  C   UNL     1      48.258   6.815  12.830  0.00  0.00    +0.000 A 
ATOM      4  C   UNL     1      47.873   7.198  11.532  0.00  0.00    +0.000 A 
ATOM      5  C   UNL     1      46.600   6.834  11.041  0.00  0.00    +0.000 A 
ATOM      6  C   UNL     1      45.703   6.110  11.830  0.00  0.00    +0.000 A 
ATOM     20  C   UNL     1      46.110   5.720  13.129  0.00  0.00    +0.000 A 
ATOM     21  C   UNL     1      47.370   6.068  13.615  0.00  0.00    +0.000 A 
BRANCH   3   2
ATOM      2  C   UNL     1      49.611   7.183  13.382  0.00  0.00    +0.000 C 
BRANCH   2   1
ATOM      1  N   UNL     1      49.773   6.764  14.769  0.00  0.00    +0.000 NA
ATOM     22  H   UNL     1      50.766   6.669  14.971  0.00  0.00    +0.000 HD
ATOM     23  H   UNL     1      49.367   5.837  14.883  0.00  0.00    +0.000 HD
ENDBRANCH   2   1
ENDBRANCH   3   2
ENDBRANCH   7   6
ENDBRANCH   8   7
TORSDOF 5
ENDMDL
MODEL 4
REMARK VINA RESULT:    -6.623      3.866      7.631
REMARK INTER + INTRA:          -8.769
REMARK INTER:                  -8.211
REMARK INTRA:                  -0.557
REMARK UNBOUND:                -0.403
REMARK  Name = 
REMARK  5 active torsions:
REMARK  status: ('A' for Active; 'I' for Inactive)
REMARK    1  A    between atoms: N_1  and  C_2
REMARK    2  A    between atoms: C_2  and  C_3
REMARK    3  A    between atoms: C_6  and  C_7
REMARK    4  A    between atoms: C_7  and  N_8
REMARK    5  A    between atoms: C_13  and  C_14
REMARK                            x       y       z     vdW  Elec       q    Type
REMARK                         _______ _______ _______ _____ _____    ______ ____
ROOT
ATOM      8  N   UNL     1      47.653   5.414  14.711  0.00  0.00    +0.000 N 
ATOM      9  C   UNL     1      48.006   6.708  14.380  0.00  0.00    +0.000 A 
ATOM     10  C   UNL     1      48.058   6.732  13.016  0.00  0.00    +0.000 A 
ATOM     11  C   UNL     1      46.949   5.931  12.662  0.00  0.00    +0.000 A 
ATOM     12  C   UNL     1      45.994   5.898  11.636  0.00  0.00    +0.000 A 
ATOM     13  C   UNL     1      45.096   4.818  11.558  0.00  0.00    +0.000 A 
ATOM     17  C   UNL     1      45.327   3.699  12.367  0.00  0.00    +0.000 A 
ATOM     18  C   UNL     1      46.264   3.717  13.414  0.00  0.00    +0.000 A 
ATOM     19  C   UNL     1      46.955   4.912  13.621  0.00  0.00    +0.000 A 
ENDROOT
BRANCH  13  14
ATOM     14  C   UNL     1      43.924   4.992  10.670  0.00  0.00    +0.000 C 
ATOM     15  N   UNL     1      44.059   4.631   9.318  0.00  0.00    +0.000 N 
ATOM     16  O   UNL     1      42.839   5.363  11.053  0.00  0.00    +0.000 OA
ATOM     24  H   UNL     1      44.882   4.245   8.909  0.00  0.00    +0.000 HD
ATOM     25  H   UNL     1      43.215   4.664   8.775  0.00  0.00    +0.000 HD
ENDBRANCH  13  14
BRANCH   8   7
ATOM      7  C   UNL     1      47.508   4.993  16.096  0.00  0.00    +0.000 C 
BRANCH   7   6
ATOM      3  C   UNL     1      50.897   2.674  17.422  0.00  0.00    +0.000 A 
ATOM      4  C   UNL     1      49.722   2.012  17.021  0.00  0.00    +0.000 A 
ATOM      5  C   UNL     1      48.585   2.763  16.651  0.00  0.00    +0.000 A 
ATOM      6  C   UNL     1      48.608   4.160  16.661  0.00  0.00    +0.000 A 
ATOM     20  C   UNL     1      49.794   4.811  17.081  0.00  0.00    +0.000 A 
ATOM     21  C   UNL     1      50.916   4.075  17.457  0.00  0.00    +0.000 A 
BRANCH   3   2
ATOM      2  C   UNL     1      52.126   1.902  17.828  0.00  0.00    +0.000 C 
BRANCH   2   1
ATOM      1  N   UNL     1      51.840   0.490  18.051  0.00  0.00    +0.000 NA
ATOM     22  H   UNL     1      52.128  -0.039  17.230  0.00  0.00    +0.000 HD
ATOM     23  H   UNL     1      50.831   0.366  18.131  0.00  0.00    +0.000 HD
ENDBRANCH   2   1
ENDBRANCH   3   2
ENDBRANCH   7   6
ENDBRANCH   8   7
TORSDOF 5
ENDMDL
MODEL 5
REMARK VINA RESULT:    -6.613      3.080      6.847
REMARK INTER + INTRA:          -8.755
REMARK INTER:                  -8.219
REMARK INTRA:                  -0.537
REMARK UNBOUND:                -0.403
REMARK  Name = 
REMARK  5 active torsions:
REMARK  status: ('A' for Active; 'I' for Inactive)
REMARK    1  A    between atoms: N_1  and  C_2
REMARK    2  A    between atoms: C_2  and  C_3
REMARK    3  A    between atoms: C_6  and  C_7
REMARK    4  A    between atoms: C_7  and  N_8
REMARK    5  A    between atoms: C_13  and  C_14
REMARK                            x       y       z     vdW  Elec       q    Type
REMARK                         _______ _______ _______ _____ _____    ______ ____
ROOT
ATOM      8  N   UNL     1      44.886   4.681  11.507  0.00  0.00    +0.000 N 
ATOM      9  C   UNL     1      44.327   3.571  12.110  0.00  0.00    +0.000 A 
ATOM     10  C   UNL     1      43.713   2.881  11.105  0.00  0.00    +0.000 A 
ATOM     11  C   UNL     1      44.635   3.020  10.043  0.00  0.00    +0.000 A 
ATOM     12  C   UNL     1      45.079   2.245   8.962  0.00  0.00    +0.000 A 
ATOM     13  C   UNL     1      45.947   2.811   8.011  0.00  0.00    +0.000 A 
ATOM     17  C   UNL     1      46.160   4.195   8.044  0.00  0.00    +0.000 A 
ATOM     18  C   UNL     1      45.743   4.988   9.127  0.00  0.00    +0.000 A 
ATOM     19  C   UNL     1      45.107   4.330  10.182  0.00  0.00    +0.000 A 
ENDROOT
BRANCH  13  14
ATOM     14  C   UNL     1      46.627   1.873   7.090  0.00  0.00    +0.000 C 
ATOM     15  N   UNL     1      46.931   2.320   5.793  0.00  0.00    +0.000 N 
ATOM     16  O   UNL     1      46.996   0.767   7.410  0.00  0.00    +0.000 OA
ATOM     24  H   UNL     1      46.741   3.235   5.446  0.00  0.00    +0.000 HD
ATOM     25  H   UNL     1      47.483   1.693   5.237  0.00  0.00    +0.000 HD
ENDBRANCH  13  14
BRANCH   8   7
ATOM      7  C   UNL     1      45.625   5.674  12.270  0.00  0.00    +0.000 C 
BRANCH   7   6
ATOM      3  C   UNL     1      45.029   9.881  11.514  0.00  0.00    +0.000 A 
ATOM      4  C   UNL     1      44.017   8.967  11.167  0.00  0.00    +0.000 A 
ATOM      5  C   UNL     1      44.229   7.583  11.347  0.00  0.00    +0.000 A 
ATOM      6  C   UNL     1      45.427   7.100  11.880  0.00  0.00    +0.000 A 
ATOM     20  C   UNL     1      46.441   8.032  12.210  0.00  0.00    +0.000 A 
ATOM     21  C   UNL     1      46.240   9.399  12.025  0.00  0.00    +0.000 A 
BRANCH   3   2
ATOM      2  C   UNL     1      44.835  11.364  11.330  0.00  0.00    +0.000 C 
BRANCH   2   1
ATOM      1  N   UNL     1      45.634  12.144  12.266  0.00  0.00    +0.000 NA
ATOM     22  H   UNL     1      45.296  13.105  12.268  0.00  0.00    +0.000 HD
ATOM     23  H   UNL     1      46.596  12.180  11.930  0.00  0.00    +0.000 HD
ENDBRANCH   2   1
ENDBRANCH   3   2
ENDBRANCH   7   6
ENDBRANCH   8   7
TORSDOF 5
ENDMDL
MODEL 6
REMARK VINA RESULT:    -6.301      2.181      2.993
REMARK INTER + INTRA:          -8.362
REMARK INTER:                  -7.843
REMARK INTRA:                  -0.519
REMARK UNBOUND:                -0.403
REMARK  Name = 
REMARK  5 active torsions:
REMARK  status: ('A' for Active; 'I' for Inactive)
REMARK    1  A    between atoms: N_1  and  C_2
REMARK    2  A    between atoms: C_2  and  C_3
REMARK    3  A    between atoms: C_6  and  C_7
REMARK    4  A    between atoms: C_7  and  N_8
REMARK    5  A    between atoms: C_13  and  C_14
REMARK                            x       y       z     vdW  Elec       q    Type
REMARK                         _______ _______ _______ _____ _____    ______ ____
ROOT
ATOM      8  N   UNL     1      44.859   6.551  12.030  0.00  0.00    +0.000 N 
ATOM      9  C   UNL     1      44.407   7.740  11.493  0.00  0.00    +0.000 A 
ATOM     10  C   UNL     1      45.123   8.718  12.121  0.00  0.00    +0.000 A 
ATOM     11  C   UNL     1      46.410   8.142  12.199  0.00  0.00    +0.000 A 
ATOM     12  C   UNL     1      47.739   8.587  12.140  0.00  0.00    +0.000 A 
ATOM     13  C   UNL     1      48.785   7.685  12.404  0.00  0.00    +0.000 A 
ATOM     17  C   UNL     1      48.467   6.431  12.939  0.00  0.00    +0.000 A 
ATOM     18  C   UNL     1      47.144   5.956  12.988  0.00  0.00    +0.000 A 
ATOM     19  C   UNL     1      46.154   6.792  12.469  0.00  0.00    +0.000 A 
ENDROOT
BRANCH  13  14
ATOM     14  C   UNL     1      50.148   8.117  12.019  0.00  0.00    +0.000 C 
ATOM     15  N   UNL     1      50.903   7.270  11.190  0.00  0.00    +0.000 N 
ATOM     16  O   UNL     1      50.624   9.187  12.322  0.00  0.00    +0.000 OA
ATOM     24  H   UNL     1      50.584   6.401  10.820  0.00  0.00    +0.000 HD
ATOM     25  H   UNL     1      51.776   7.646  10.868  0.00  0.00    +0.000 HD
ENDBRANCH  13  14
BRANCH   8   7
ATOM      7  C   UNL     1      44.317   5.269  11.611  0.00  0.00    +0.000 C 
BRANCH   7   6
ATOM      3  C   UNL     1      45.767   3.535   7.934  0.00  0.00    +0.000 A 
ATOM      4  C   UNL     1      46.235   4.801   8.332  0.00  0.00    +0.000 A 
ATOM      5  C   UNL     1      45.716   5.406   9.497  0.00  0.00    +0.000 A 
ATOM      6  C   UNL     1      44.750   4.763  10.276  0.00  0.00    +0.000 A 
ATOM     20  C   UNL     1      44.279   3.496   9.854  0.00  0.00    +0.000 A 
ATOM     21  C   UNL     1      44.781   2.898   8.699  0.00  0.00    +0.000 A 
BRANCH   3   2
ATOM      2  C   UNL     1      46.297   2.863   6.694  0.00  0.00    +0.000 C 
BRANCH   2   1
ATOM      1  N   UNL     1      46.940   3.808   5.789  0.00  0.00    +0.000 NA
ATOM     22  H   UNL     1      46.297   4.574   5.600  0.00  0.00    +0.000 HD
ATOM     23  H   UNL     1      47.107   3.348   4.895  0.00  0.00    +0.000 HD
ENDBRANCH   2   1
ENDBRANCH   3   2
ENDBRANCH   7   6
ENDBRANCH   8   7
TORSDOF 5
ENDMDL
MODEL 7
REMARK VINA RESULT:    -5.874      4.276      8.320
REMARK INTER + INTRA:          -7.823
REMARK INTER:                  -7.116
REMARK INTRA:                  -0.707
REMARK UNBOUND:                -0.403
REMARK  Name = 
REMARK  5 active torsions:
REMARK  status: ('A' for Active; 'I' for Inactive)
REMARK    1  A    between atoms: N_1  and  C_2
REMARK    2  A    between atoms: C_2  and  C_3
REMARK    3  A    between atoms: C_6  and  C_7
REMARK    4  A    between atoms: C_7  and  N_8
REMARK    5  A    between atoms: C_13  and  C_14
REMARK                            x       y       z     vdW  Elec       q    Type
REMARK                         _______ _______ _______ _____ _____    ______ ____
ROOT
ATOM      8  N   UNL     1      48.179   7.368  14.032  0.00  0.00    +0.000 N 
ATOM      9  C   UNL     1      47.508   8.575  14.065  0.00  0.00    +0.000 A 
ATOM     10  C   UNL     1      46.619   8.524  13.030  0.00  0.00    +0.000 A 
ATOM     11  C   UNL     1      46.169   7.186  13.089  0.00  0.00    +0.000 A 
ATOM     12  C   UNL     1      44.974   6.494  12.846  0.00  0.00    +0.000 A 
ATOM     13  C   UNL     1      44.963   5.089  12.892  0.00  0.00    +0.000 A 
ATOM     17  C   UNL     1      46.189   4.414  12.953  0.00  0.00    +0.000 A 
ATOM     18  C   UNL     1      47.396   5.085  13.217  0.00  0.00    +0.000 A 
ATOM     19  C   UNL     1      47.319   6.463  13.425  0.00  0.00    +0.000 A 
ENDROOT
BRANCH  13  14
ATOM     14  C   UNL     1      43.636   4.436  12.947  0.00  0.00    +0.000 C 
ATOM     15  N   UNL     1      43.583   3.033  12.870  0.00  0.00    +0.000 N 
ATOM     16  O   UNL     1      42.600   5.034  13.120  0.00  0.00    +0.000 OA
ATOM     24  H   UNL     1      44.378   2.435  12.801  0.00  0.00    +0.000 HD
ATOM     25  H   UNL     1      42.678   2.626  13.016  0.00  0.00    +0.000 HD
ENDBRANCH  13  14
BRANCH   8   7
ATOM      7  C   UNL     1      49.228   7.052  14.989  0.00  0.00    +0.000 C 
BRANCH   7   6
ATOM      3  C   UNL     1      48.315   5.723  18.992  0.00  0.00    +0.000 A 
ATOM      4  C   UNL     1      48.228   4.810  17.925  0.00  0.00    +0.000 A 
ATOM      5  C   UNL     1      48.458   5.251  16.604  0.00  0.00    +0.000 A 
ATOM      6  C   UNL     1      48.786   6.582  16.334  0.00  0.00    +0.000 A 
ATOM     20  C   UNL     1      48.855   7.492  17.417  0.00  0.00    +0.000 A 
ATOM     21  C   UNL     1      48.620   7.064  18.723  0.00  0.00    +0.000 A 
BRANCH   3   2
ATOM      2  C   UNL     1      48.070   5.286  20.413  0.00  0.00    +0.000 C 
BRANCH   2   1
ATOM      1  N   UNL     1      48.459   3.898  20.636  0.00  0.00    +0.000 NA
ATOM     22  H   UNL     1      49.242   3.672  20.026  0.00  0.00    +0.000 HD
ATOM     23  H   UNL     1      47.690   3.291  20.353  0.00  0.00    +0.000 HD
ENDBRANCH   2   1
ENDBRANCH   3   2
ENDBRANCH   7   6
ENDBRANCH   8   7
TORSDOF 5
ENDMDL
MODEL 8
REMARK VINA RESULT:    -5.797      4.107      7.939
REMARK INTER + INTRA:          -7.725
REMARK INTER:                  -7.144
REMARK INTRA:                  -0.581
REMARK UNBOUND:                -0.403
REMARK  Name = 
REMARK  5 active torsions:
REMARK  status: ('A' for Active; 'I' for Inactive)
REMARK    1  A    between atoms: N_1  and  C_2
REMARK    2  A    between atoms: C_2  and  C_3
REMARK    3  A    between atoms: C_6  and  C_7
REMARK    4  A    between atoms: C_7  and  N_8
REMARK    5  A    between atoms: C_13  and  C_14
REMARK                            x       y       z     vdW  Elec       q    Type
REMARK                         _______ _______ _______ _____ _____    ______ ____
ROOT
ATOM      8  N   UNL     1      48.256   7.195  13.763  0.00  0.00    +0.000 N 
ATOM      9  C   UNL     1      48.508   8.148  12.796  0.00  0.00    +0.000 A 
ATOM     10  C   UNL     1      48.203   7.549  11.608  0.00  0.00    +0.000 A 
ATOM     11  C   UNL     1      47.041   6.814  11.935  0.00  0.00    +0.000 A 
ATOM     12  C   UNL     1      45.852   6.436  11.295  0.00  0.00    +0.000 A 
ATOM     13  C   UNL     1      44.967   5.554  11.940  0.00  0.00    +0.000 A 
ATOM     17  C   UNL     1      45.403   4.900  13.099  0.00  0.00    +0.000 A 
ATOM     18  C   UNL     1      46.580   5.276  13.768  0.00  0.00    +0.000 A 
ATOM     19  C   UNL     1      47.299   6.344  13.228  0.00  0.00    +0.000 A 
ENDROOT
BRANCH  13  14
ATOM     14  C   UNL     1      43.604   5.447  11.371  0.00  0.00    +0.000 C 
ATOM     15  N   UNL     1      42.904   6.635  11.099  0.00  0.00    +0.000 N 
ATOM     16  O   UNL     1      43.084   4.399  11.066  0.00  0.00    +0.000 OA
ATOM     24  H   UNL     1      43.263   7.554  11.241  0.00  0.00    +0.000 HD
ATOM     25  H   UNL     1      42.030   6.521  10.619  0.00  0.00    +0.000 HD
ENDBRANCH  13  14
BRANCH   8   7
ATOM      7  C   UNL     1      48.477   7.464  15.175  0.00  0.00    +0.000 C 
BRANCH   7   6
ATOM      3  C   UNL     1      51.023   4.944  17.582  0.00  0.00    +0.000 A 
ATOM      4  C   UNL     1      51.595   5.988  16.831  0.00  0.00    +0.000 A 
ATOM      5  C   UNL     1      50.780   6.774  15.988  0.00  0.00    +0.000 A 
ATOM      6  C   UNL     1      49.405   6.545  15.894  0.00  0.00    +0.000 A 
ATOM     20  C   UNL     1      48.847   5.481  16.645  0.00  0.00    +0.000 A 
ATOM     21  C   UNL     1      49.649   4.696  17.472  0.00  0.00    +0.000 A 
BRANCH   3   2
ATOM      2  C   UNL     1      51.866   4.084  18.488  0.00  0.00    +0.000 C 
BRANCH   2   1
ATOM      1  N   UNL     1      51.660   2.661  18.244  0.00  0.00    +0.000 NA
ATOM     22  H   UNL     1      51.845   2.150  19.105  0.00  0.00    +0.000 HD
ATOM     23  H   UNL     1      52.348   2.339  17.566  0.00  0.00    +0.000 HD
ENDBRANCH   2   1
ENDBRANCH   3   2
ENDBRANCH   7   6
ENDBRANCH   8   7
TORSDOF 5
ENDMDL
MODEL 9
REMARK VINA RESULT:    -5.695      3.278      6.658
REMARK INTER + INTRA:          -7.595
REMARK INTER:                  -7.110
REMARK INTRA:                  -0.485
REMARK UNBOUND:                -0.403
REMARK  Name = 
REMARK  5 active torsions:
REMARK  status: ('A' for Active; 'I' for Inactive)
REMARK    1  A    between atoms: N_1  and  C_2
REMARK    2  A    between atoms: C_2  and  C_3
REMARK    3  A    between atoms: C_6  and  C_7
REMARK    4  A    between atoms: C_7  and  N_8
REMARK    5  A    between atoms: C_13  and  C_14
REMARK                            x       y       z     vdW  Elec       q    Type
REMARK                         _______ _______ _______ _____ _____    ______ ____
ROOT
ATOM      8  N   UNL     1      46.941   7.103  13.484  0.00  0.00    +0.000 N 
ATOM      9  C   UNL     1      47.751   6.081  13.938  0.00  0.00    +0.000 A 
ATOM     10  C   UNL     1      46.922   5.009  14.108  0.00  0.00    +0.000 A 
ATOM     11  C   UNL     1      46.066   5.115  12.988  0.00  0.00    +0.000 A 
ATOM     12  C   UNL     1      45.395   4.239  12.124  0.00  0.00    +0.000 A 
ATOM     13  C   UNL     1      44.494   4.755  11.174  0.00  0.00    +0.000 A 
ATOM     17  C   UNL     1      44.122   6.101  11.270  0.00  0.00    +0.000 A 
ATOM     18  C   UNL     1      44.795   7.002  12.114  0.00  0.00    +0.000 A 
ATOM     19  C   UNL     1      45.865   6.494  12.854  0.00  0.00    +0.000 A 
ENDROOT
BRANCH  13  14
ATOM     14  C   UNL     1      44.068   3.835  10.095  0.00  0.00    +0.000 C 
ATOM     15  N   UNL     1      44.080   4.313   8.773  0.00  0.00    +0.000 N 
ATOM     16  O   UNL     1      43.774   2.676  10.277  0.00  0.00    +0.000 OA
ATOM     24  H   UNL     1      44.374   5.225   8.499  0.00  0.00    +0.000 HD
ATOM     25  H   UNL     1      43.886   3.630   8.065  0.00  0.00    +0.000 HD
ENDBRANCH  13  14
BRANCH   8   7
ATOM      7  C   UNL     1      47.471   8.427  13.197  0.00  0.00    +0.000 C 
BRANCH   7   6
ATOM      3  C   UNL     1      51.589   8.243  11.917  0.00  0.00    +0.000 A 
ATOM      4  C   UNL     1      51.270   8.880  13.130  0.00  0.00    +0.000 A 
ATOM      5  C   UNL     1      49.921   9.006  13.524  0.00  0.00    +0.000 A 
ATOM      6  C   UNL     1      48.888   8.494  12.735  0.00  0.00    +0.000 A 
ATOM     20  C   UNL     1      49.224   7.868  11.509  0.00  0.00    +0.000 A 
ATOM     21  C   UNL     1      50.554   7.750  11.111  0.00  0.00    +0.000 A 
BRANCH   3   2
ATOM      2  C   UNL     1      53.019   8.097  11.466  0.00  0.00    +0.000 C 
BRANCH   2   1
ATOM      1  N   UNL     1      53.250   6.840  10.766  0.00  0.00    +0.000 NA
ATOM     22  H   UNL     1      52.942   6.071  11.358  0.00  0.00    +0.000 HD
ATOM     23  H   UNL     1      54.253   6.715  10.633  0.00  0.00    +0.000 HD
ENDBRANCH   2   1
ENDBRANCH   3   2
ENDBRANCH   7   6
ENDBRANCH   8   7
TORSDOF 5
ENDMDL
