MODEL 1
REMARK VINA RESULT:    -8.099      0.000      0.000
REMARK INTER + INTRA:         -10.652
REMARK INTER:                 -10.230
REMARK INTRA:                  -0.422
REMARK UNBOUND:                -0.422
REMARK  Name = 
REMARK  5 active torsions:
REMARK  status: ('A' for Active; 'I' for Inactive)
REMARK    1  A    between atoms: N_1  and  C_2
REMARK    2  A    between atoms: C_2  and  C_3
REMARK    3  A    between atoms: C_6  and  C_7
REMARK    4  A    between atoms: C_7  and  N_8
REMARK    5  A    between atoms: C_13  and  C_14
REMARK                            x       y       z     vdW  Elec       q    Type
REMARK                         _______ _______ _______ _____ _____    ______ ____
ROOT
ATOM      8  N   UNL     1      44.520   5.218  11.085  0.00  0.00    +0.000 N 
ATOM      9  C   UNL     1      44.375   6.585  11.195  0.00  0.00    +0.000 A 
ATOM     10  C   UNL     1      45.091   7.011  12.292  0.00  0.00    +0.000 A 
ATOM     11  C   UNL     1      45.667   5.862  12.896  0.00  0.00    +0.000 A 
ATOM     12  C   UNL     1      46.445   5.636  14.043  0.00  0.00    +0.000 A 
ATOM     13  C   UNL     1      46.795   4.320  14.356  0.00  0.00    +0.000 A 
ATOM     17  C   UNL     1      46.370   3.309  13.495  0.00  0.00    +0.000 A 
ATOM     18  N   UNL     1      45.640   3.474  12.355  0.00  0.00    +0.000 NA
ATOM     19  C   UNL     1      45.305   4.760  12.122  0.00  0.00    +0.000 A 
ENDROOT
BRANCH  13  14
ATOM     14  C   UNL     1      47.578   3.957  15.560  0.00  0.00    +0.000 C 
ATOM     15  N   UNL     1      47.538   4.782  16.646  0.00  0.00    +0.000 N 
ATOM     16  O   UNL     1      48.258   2.930  15.593  0.00  0.00    +0.000 OA
ATOM     24  H   UNL     1      47.039   5.659  16.695  0.00  0.00    +0.000 HD
ATOM     25  H   UNL     1      48.097   4.522  17.446  0.00  0.00    +0.000 HD
ENDBRANCH  13  14
BRANCH   8   7
ATOM      7  C   UNL     1      43.855   4.388  10.084  0.00  0.00    +0.000 C 
BRANCH   7   6
ATOM      3  C   UNL     1      46.645   2.310   7.478  0.00  0.00    +0.000 A 
ATOM      4  C   UNL     1      45.837   1.589   8.362  0.00  0.00    +0.000 A 
ATOM      5  C   UNL     1      44.917   2.243   9.188  0.00  0.00    +0.000 A 
ATOM      6  C   UNL     1      44.807   3.641   9.175  0.00  0.00    +0.000 A 
ATOM     20  C   UNL     1      45.590   4.356   8.257  0.00  0.00    +0.000 A 
ATOM     21  C   UNL     1      46.498   3.702   7.418  0.00  0.00    +0.000 A 
BRANCH   3   2
ATOM      2  C   UNL     1      47.648   1.587   6.620  0.00  0.00    +0.000 C 
BRANCH   2   1
ATOM      1  N   UNL     1      48.737   2.471   6.229  0.00  0.00    +0.000 NA
ATOM     22  H   UNL     1      48.637   3.363   6.707  0.00  0.00    +0.000 HD
ATOM     23  H   UNL     1      48.669   2.659   5.230  0.00  0.00    +0.000 HD
ENDBRANCH   2   1
ENDBRANCH   3   2
ENDBRANCH   7   6
ENDBRANCH   8   7
TORSDOF 5
ENDMDL
MODEL 2
REMARK VINA RESULT:    -8.099      2.306      3.516
REMARK INTER + INTRA:         -10.652
REMARK INTER:                 -10.229
REMARK INTRA:                  -0.423
REMARK UNBOUND:                -0.422
REMARK  Name = 
REMARK  5 active torsions:
REMARK  status: ('A' for Active; 'I' for Inactive)
REMARK    1  A    between atoms: N_1  and  C_2
REMARK    2  A    between atoms: C_2  and  C_3
REMARK    3  A    between atoms: C_6  and  C_7
REMARK    4  A    between atoms: C_7  and  N_8
REMARK    5  A    between atoms: C_13  and  C_14
REMARK                            x       y       z     vdW  Elec       q    Type
REMARK                         _______ _______ _______ _____ _____    ______ ____
ROOT
ATOM      8  N   UNL     1      44.905   3.773  11.522  0.00  0.00    +0.000 N 
ATOM      9  C   UNL     1      45.678   3.166  12.489  0.00  0.00    +0.000 A 
ATOM     10  C   UNL     1      46.197   4.145  13.308  0.00  0.00    +0.000 A 
ATOM     11  C   UNL     1      45.755   5.397  12.805  0.00  0.00    +0.000 A 
ATOM     12  C   UNL     1      45.981   6.737  13.162  0.00  0.00    +0.000 A 
ATOM     13  C   UNL     1      45.398   7.736  12.377  0.00  0.00    +0.000 A 
ATOM     17  C   UNL     1      44.607   7.342  11.299  0.00  0.00    +0.000 A 
ATOM     18  N   UNL     1      44.332   6.060  10.926  0.00  0.00    +0.000 NA
ATOM     19  C   UNL     1      44.946   5.139  11.699  0.00  0.00    +0.000 A 
ENDROOT
BRANCH  13  14
ATOM     14  C   UNL     1      45.597   9.182  12.632  0.00  0.00    +0.000 C 
ATOM     15  N   UNL     1      44.516  10.013  12.595  0.00  0.00    +0.000 N 
ATOM     16  O   UNL     1      46.716   9.639  12.875  0.00  0.00    +0.000 OA
ATOM     24  H   UNL     1      43.572   9.733  12.369  0.00  0.00    +0.000 HD
ATOM     25  H   UNL     1      44.682  10.997  12.752  0.00  0.00    +0.000 HD
ENDBRANCH  13  14
BRANCH   8   7
ATOM      7  C   UNL     1      44.239   3.072  10.426  0.00  0.00    +0.000 C 
BRANCH   7   6
ATOM      3  C   UNL     1      46.598   2.703   6.794  0.00  0.00    +0.000 A 
ATOM      4  C   UNL     1      46.108   3.950   7.192  0.00  0.00    +0.000 A 
ATOM      5  C   UNL     1      45.369   4.087   8.371  0.00  0.00    +0.000 A 
ATOM      6  C   UNL     1      45.071   2.971   9.167  0.00  0.00    +0.000 A 
ATOM     20  C   UNL     1      45.601   1.730   8.785  0.00  0.00    +0.000 A 
ATOM     21  C   UNL     1      46.355   1.594   7.614  0.00  0.00    +0.000 A 
BRANCH   3   2
ATOM      2  C   UNL     1      47.367   2.575   5.506  0.00  0.00    +0.000 C 
BRANCH   2   1
ATOM      1  N   UNL     1      48.600   1.827   5.704  0.00  0.00    +0.000 NA
ATOM     22  H   UNL     1      48.835   1.817   6.693  0.00  0.00    +0.000 HD
ATOM     23  H   UNL     1      49.359   2.307   5.222  0.00  0.00    +0.000 HD
ENDBRANCH   2   1
ENDBRANCH   3   2
ENDBRANCH   7   6
ENDBRANCH   8   7
TORSDOF 5
ENDMDL
MODEL 3
REMARK VINA RESULT:    -7.965      1.679      2.330
REMARK INTER + INTRA:         -10.483
REMARK INTER:                  -9.996
REMARK INTRA:                  -0.488
REMARK UNBOUND:                -0.422
REMARK  Name = 
REMARK  5 active torsions:
REMARK  status: ('A' for Active; 'I' for Inactive)
REMARK    1  A    between atoms: N_1  and  C_2
REMARK    2  A    between atoms: C_2  and  C_3
REMARK    3  A    between atoms: C_6  and  C_7
REMARK    4  A    between atoms: C_7  and  N_8
REMARK    5  A    between atoms: C_13  and  C_14
REMARK                            x       y       z     vdW  Elec       q    Type
REMARK                         _______ _______ _______ _____ _____    ______ ____
ROOT
ATOM      8  N   UNL     1      44.121   4.466  11.027  0.00  0.00    +0.000 N 
ATOM      9  C   UNL     1      43.415   3.760  11.979  0.00  0.00    +0.000 A 
ATOM     10  C   UNL     1      43.975   4.015  13.212  0.00  0.00    +0.000 A 
ATOM     11  C   UNL     1      45.082   4.879  13.005  0.00  0.00    +0.000 A 
ATOM     12  C   UNL     1      46.061   5.443  13.840  0.00  0.00    +0.000 A 
ATOM     13  C   UNL     1      47.056   6.230  13.253  0.00  0.00    +0.000 A 
ATOM     17  C   UNL     1      47.003   6.428  11.874  0.00  0.00    +0.000 A 
ATOM     18  N   UNL     1      46.062   5.929  11.022  0.00  0.00    +0.000 NA
ATOM     19  C   UNL     1      45.147   5.153  11.639  0.00  0.00    +0.000 A 
ENDROOT
BRANCH  13  14
ATOM     14  C   UNL     1      48.160   6.844  14.026  0.00  0.00    +0.000 C 
ATOM     15  N   UNL     1      47.859   7.607  15.116  0.00  0.00    +0.000 N 
ATOM     16  O   UNL     1      49.337   6.677  13.699  0.00  0.00    +0.000 OA
ATOM     24  H   UNL     1      46.925   7.827  15.434  0.00  0.00    +0.000 HD
ATOM     25  H   UNL     1      48.629   8.030  15.613  0.00  0.00    +0.000 HD
ENDBRANCH  13  14
BRANCH   8   7
ATOM      7  C   UNL     1      43.871   4.403   9.589  0.00  0.00    +0.000 C 
BRANCH   7   6
ATOM      3  C   UNL     1      46.868   2.179   7.360  0.00  0.00    +0.000 A 
ATOM      4  C   UNL     1      46.768   3.565   7.215  0.00  0.00    +0.000 A 
ATOM      5  C   UNL     1      45.826   4.296   7.945  0.00  0.00    +0.000 A 
ATOM      6  C   UNL     1      44.933   3.652   8.815  0.00  0.00    +0.000 A 
ATOM     20  C   UNL     1      45.065   2.267   8.987  0.00  0.00    +0.000 A 
ATOM     21  C   UNL     1      46.019   1.536   8.271  0.00  0.00    +0.000 A 
BRANCH   3   2
ATOM      2  C   UNL     1      47.871   1.409   6.542  0.00  0.00    +0.000 C 
BRANCH   2   1
ATOM      1  N   UNL     1      48.401   2.226   5.460  0.00  0.00    +0.000 NA
ATOM     22  H   UNL     1      48.264   1.745   4.574  0.00  0.00    +0.000 HD
ATOM     23  H   UNL     1      49.406   2.334   5.587  0.00  0.00    +0.000 HD
ENDBRANCH   2   1
ENDBRANCH   3   2
ENDBRANCH   7   6
ENDBRANCH   8   7
TORSDOF 5
ENDMDL
MODEL 4
REMARK VINA RESULT:    -7.632      2.699      6.855
REMARK INTER + INTRA:         -10.062
REMARK INTER:                  -9.629
REMARK INTRA:                  -0.433
REMARK UNBOUND:                -0.422
REMARK  Name = 
REMARK  5 active torsions:
REMARK  status: ('A' for Active; 'I' for Inactive)
REMARK    1  A    between atoms: N_1  and  C_2
REMARK    2  A    between atoms: C_2  and  C_3
REMARK    3  A    between atoms: C_6  and  C_7
REMARK    4  A    between atoms: C_7  and  N_8
REMARK    5  A    between atoms: C_13  and  C_14
REMARK                            x       y       z     vdW  Elec       q    Type
REMARK                         _______ _______ _______ _____ _____    ______ ____
ROOT
ATOM      8  N   UNL     1      44.184   4.392  10.360  0.00  0.00    +0.000 N 
ATOM      9  C   UNL     1      43.644   3.258  10.930  0.00  0.00    +0.000 A 
ATOM     10  C   UNL     1      44.209   2.156  10.325  0.00  0.00    +0.000 A 
ATOM     11  C   UNL     1      45.100   2.630   9.327  0.00  0.00    +0.000 A 
ATOM     12  C   UNL     1      45.915   2.016   8.362  0.00  0.00    +0.000 A 
ATOM     13  C   UNL     1      46.639   2.835   7.490  0.00  0.00    +0.000 A 
ATOM     17  C   UNL     1      46.527   4.216   7.647  0.00  0.00    +0.000 A 
ATOM     18  N   UNL     1      45.775   4.864   8.583  0.00  0.00    +0.000 NA
ATOM     19  C   UNL     1      45.074   4.024   9.374  0.00  0.00    +0.000 A 
ENDROOT
BRANCH  13  14
ATOM     14  C   UNL     1      47.500   2.302   6.409  0.00  0.00    +0.000 C 
ATOM     15  N   UNL     1      47.716   3.067   5.300  0.00  0.00    +0.000 N 
ATOM     16  O   UNL     1      48.018   1.187   6.497  0.00  0.00    +0.000 OA
ATOM     24  H   UNL     1      47.304   3.973   5.127  0.00  0.00    +0.000 HD
ATOM     25  H   UNL     1      48.290   2.672   4.569  0.00  0.00    +0.000 HD
ENDBRANCH  13  14
BRANCH   8   7
ATOM      7  C   UNL     1      43.788   5.759  10.689  0.00  0.00    +0.000 C 
BRANCH   7   6
ATOM      3  C   UNL     1      46.763   7.846  13.074  0.00  0.00    +0.000 A 
ATOM      4  C   UNL     1      45.846   8.567  12.304  0.00  0.00    +0.000 A 
ATOM      5  C   UNL     1      44.868   7.909  11.552  0.00  0.00    +0.000 A 
ATOM      6  C   UNL     1      44.804   6.508  11.523  0.00  0.00    +0.000 A 
ATOM     20  C   UNL     1      45.699   5.791  12.331  0.00  0.00    +0.000 A 
ATOM     21  C   UNL     1      46.668   6.448  13.097  0.00  0.00    +0.000 A 
BRANCH   3   2
ATOM      2  C   UNL     1      47.825   8.575  13.853  0.00  0.00    +0.000 C 
BRANCH   2   1
ATOM      1  N   UNL     1      47.330   8.984  15.160  0.00  0.00    +0.000 NA
ATOM     22  H   UNL     1      46.966   8.172  15.653  0.00  0.00    +0.000 HD
ATOM     23  H   UNL     1      46.551   9.628  15.032  0.00  0.00    +0.000 HD
ENDBRANCH   2   1
ENDBRANCH   3   2
ENDBRANCH   7   6
ENDBRANCH   8   7
TORSDOF 5
ENDMDL
MODEL 5
REMARK VINA RESULT:    -7.571      2.234      2.695
REMARK INTER + INTRA:          -9.984
REMARK INTER:                  -9.404
REMARK INTRA:                  -0.580
REMARK UNBOUND:                -0.422
REMARK  Name = 
REMARK  5 active torsions:
REMARK  status: ('A' for Active; 'I' for Inactive)
REMARK    1  A    between atoms: N_1  and  C_2
REMARK    2  A    between atoms: C_2  and  C_3
REMARK    3  A    between atoms: C_6  and  C_7
REMARK    4  A    between atoms: C_7  and  N_8
REMARK    5  A    between atoms: C_13  and  C_14
REMARK                            x       y       z     vdW  Elec       q    Type
REMARK                         _______ _______ _______ _____ _____    ______ ____
ROOT
ATOM      8  N   UNL     1      45.043   4.843  11.529  0.00  0.00    +0.000 N 
ATOM      9  C   UNL     1      44.722   4.046  12.608  0.00  0.00    +0.000 A 
ATOM     10  C   UNL     1      45.548   4.384  13.658  0.00  0.00    +0.000 A 
ATOM     11  C   UNL     1      46.427   5.400  13.197  0.00  0.00    +0.000 A 
ATOM     12  C   UNL     1      47.503   6.103  13.763  0.00  0.00    +0.000 A 
ATOM     13  C   UNL     1      48.185   7.024  12.963  0.00  0.00    +0.000 A 
ATOM     17  C   UNL     1      47.740   7.206  11.654  0.00  0.00    +0.000 A 
ATOM     18  N   UNL     1      46.687   6.573  11.064  0.00  0.00    +0.000 NA
ATOM     19  C   UNL     1      46.088   5.674  11.873  0.00  0.00    +0.000 A 
ENDROOT
BRANCH  13  14
ATOM     14  C   UNL     1      49.357   7.794  13.438  0.00  0.00    +0.000 C 
ATOM     15  N   UNL     1      50.174   7.240  14.379  0.00  0.00    +0.000 N 
ATOM     16  O   UNL     1      49.601   8.920  12.998  0.00  0.00    +0.000 OA
ATOM     24  H   UNL     1      50.031   6.342  14.820  0.00  0.00    +0.000 HD
ATOM     25  H   UNL     1      50.954   7.794  14.700  0.00  0.00    +0.000 HD
ENDBRANCH  13  14
BRANCH   8   7
ATOM      7  C   UNL     1      44.432   4.738  10.206  0.00  0.00    +0.000 C 
BRANCH   7   6
ATOM      3  C   UNL     1      46.605   2.133   7.489  0.00  0.00    +0.000 A 
ATOM      4  C   UNL     1      45.807   1.589   8.499  0.00  0.00    +0.000 A 
ATOM      5  C   UNL     1      45.083   2.415   9.364  0.00  0.00    +0.000 A 
ATOM      6  C   UNL     1      45.166   3.811   9.263  0.00  0.00    +0.000 A 
ATOM     20  C   UNL     1      45.935   4.352   8.222  0.00  0.00    +0.000 A 
ATOM     21  C   UNL     1      46.647   3.526   7.345  0.00  0.00    +0.000 A 
BRANCH   3   2
ATOM      2  C   UNL     1      47.399   1.225   6.588  0.00  0.00    +0.000 C 
BRANCH   2   1
ATOM      1  N   UNL     1      48.396   1.973   5.836  0.00  0.00    +0.000 NA
ATOM     22  H   UNL     1      49.314   1.819   6.244  0.00  0.00    +0.000 HD
ATOM     23  H   UNL     1      48.196   2.969   5.921  0.00  0.00    +0.000 HD
ENDBRANCH   2   1
ENDBRANCH   3   2
ENDBRANCH   7   6
ENDBRANCH   8   7
TORSDOF 5
ENDMDL
MODEL 6
REMARK VINA RESULT:    -7.368      0.955      1.000
REMARK INTER + INTRA:          -9.729
REMARK INTER:                  -9.206
REMARK INTRA:                  -0.523
REMARK UNBOUND:                -0.422
REMARK  Name = 
REMARK  5 active torsions:
REMARK  status: ('A' for Active; 'I' for Inactive)
REMARK    1  A    between atoms: N_1  and  C_2
REMARK    2  A    between atoms: C_2  and  C_3
REMARK    3  A    between atoms: C_6  and  C_7
REMARK    4  A    between atoms: C_7  and  N_8
REMARK    5  A    between atoms: C_13  and  C_14
REMARK                            x       y       z     vdW  Elec       q    Type
REMARK                         _______ _______ _______ _____ _____    ______ ____
ROOT
ATOM      8  N   UNL     1      44.705   5.584  11.115  0.00  0.00    +0.000 N 
ATOM      9  C   UNL     1      44.515   6.935  10.916  0.00  0.00    +0.000 A 
ATOM     10  C   UNL     1      45.286   7.622  11.828  0.00  0.00    +0.000 A 
ATOM     11  C   UNL     1      45.946   6.658  12.636  0.00  0.00    +0.000 A 
ATOM     12  C   UNL     1      46.807   6.725  13.743  0.00  0.00    +0.000 A 
ATOM     13  C   UNL     1      47.229   5.526  14.326  0.00  0.00    +0.000 A 
ATOM     17  C   UNL     1      46.787   4.333  13.756  0.00  0.00    +0.000 A 
ATOM     18  N   UNL     1      45.975   4.210  12.667  0.00  0.00    +0.000 NA
ATOM     19  C   UNL     1      45.575   5.398  12.167  0.00  0.00    +0.000 A 
ENDROOT
BRANCH  13  14
ATOM     14  C   UNL     1      48.105   5.472  15.519  0.00  0.00    +0.000 C 
ATOM     15  N   UNL     1      47.611   4.945  16.677  0.00  0.00    +0.000 N 
ATOM     16  O   UNL     1      49.262   5.893  15.480  0.00  0.00    +0.000 OA
ATOM     24  H   UNL     1      46.666   4.611  16.809  0.00  0.00    +0.000 HD
ATOM     25  H   UNL     1      48.222   4.939  17.480  0.00  0.00    +0.000 HD
ENDBRANCH  13  14
BRANCH   8   7
ATOM      7  C   UNL     1      44.007   4.528  10.385  0.00  0.00    +0.000 C 
BRANCH   7   6
ATOM      3  C   UNL     1      46.583   2.423   7.588  0.00  0.00    +0.000 A 
ATOM      4  C   UNL     1      45.814   1.709   8.511  0.00  0.00    +0.000 A 
ATOM      5  C   UNL     1      44.962   2.372   9.400  0.00  0.00    +0.000 A 
ATOM      6  C   UNL     1      44.884   3.773   9.411  0.00  0.00    +0.000 A 
ATOM     20  C   UNL     1      45.626   4.482   8.455  0.00  0.00    +0.000 A 
ATOM     21  C   UNL     1      46.466   3.818   7.554  0.00  0.00    +0.000 A 
BRANCH   3   2
ATOM      2  C   UNL     1      47.515   1.689   6.661  0.00  0.00    +0.000 C 
BRANCH   2   1
ATOM      1  N   UNL     1      48.072   2.587   5.660  0.00  0.00    +0.000 NA
ATOM     22  H   UNL     1      48.909   2.170   5.259  0.00  0.00    +0.000 HD
ATOM     23  H   UNL     1      48.359   3.453   6.114  0.00  0.00    +0.000 HD
ENDBRANCH   2   1
ENDBRANCH   3   2
ENDBRANCH   7   6
ENDBRANCH   8   7
TORSDOF 5
ENDMDL
MODEL 7
REMARK VINA RESULT:    -6.558      3.177      7.494
REMARK INTER + INTRA:          -8.705
REMARK INTER:                  -8.420
REMARK INTRA:                  -0.285
REMARK UNBOUND:                -0.422
REMARK  Name = 
REMARK  5 active torsions:
REMARK  status: ('A' for Active; 'I' for Inactive)
REMARK    1  A    between atoms: N_1  and  C_2
REMARK    2  A    between atoms: C_2  and  C_3
REMARK    3  A    between atoms: C_6  and  C_7
REMARK    4  A    between atoms: C_7  and  N_8
REMARK    5  A    between atoms: C_13  and  C_14
REMARK                            x       y       z     vdW  Elec       q    Type
REMARK                         _______ _______ _______ _____ _____    ______ ____
ROOT
ATOM      8  N   UNL     1      47.339   5.211  15.158  0.00  0.00    +0.000 N 
ATOM      9  C   UNL     1      48.240   6.252  15.080  0.00  0.00    +0.000 A 
ATOM     10  C   UNL     1      48.136   6.824  13.831  0.00  0.00    +0.000 A 
ATOM     11  C   UNL     1      47.162   6.087  13.106  0.00  0.00    +0.000 A 
ATOM     12  C   UNL     1      46.657   6.142  11.797  0.00  0.00    +0.000 A 
ATOM     13  C   UNL     1      45.709   5.189  11.413  0.00  0.00    +0.000 A 
ATOM     17  C   UNL     1      45.303   4.253  12.363  0.00  0.00    +0.000 A 
ATOM     18  N   UNL     1      45.739   4.170  13.653  0.00  0.00    +0.000 NA
ATOM     19  C   UNL     1      46.674   5.094  13.956  0.00  0.00    +0.000 A 
ENDROOT
BRANCH  13  14
ATOM     14  C   UNL     1      45.135   5.125  10.049  0.00  0.00    +0.000 C 
ATOM     15  N   UNL     1      43.801   4.876   9.906  0.00  0.00    +0.000 N 
ATOM     16  O   UNL     1      45.840   5.291   9.052  0.00  0.00    +0.000 OA
ATOM     24  H   UNL     1      43.157   4.691  10.662  0.00  0.00    +0.000 HD
ATOM     25  H   UNL     1      43.440   4.817   8.965  0.00  0.00    +0.000 HD
ENDBRANCH  13  14
BRANCH   8   7
ATOM      7  C   UNL     1      47.197   4.317  16.305  0.00  0.00    +0.000 C 
BRANCH   7   6
ATOM      3  C   UNL     1      50.898   2.331  17.422  0.00  0.00    +0.000 A 
ATOM      4  C   UNL     1      50.662   3.651  17.815  0.00  0.00    +0.000 A 
ATOM      5  C   UNL     1      49.465   4.294  17.484  0.00  0.00    +0.000 A 
ATOM      6  C   UNL     1      48.486   3.641  16.719  0.00  0.00    +0.000 A 
ATOM     20  C   UNL     1      48.711   2.303  16.364  0.00  0.00    +0.000 A 
ATOM     21  C   UNL     1      49.901   1.654  16.709  0.00  0.00    +0.000 A 
BRANCH   3   2
ATOM      2  C   UNL     1      52.207   1.669  17.765  0.00  0.00    +0.000 C 
BRANCH   2   1
ATOM      1  N   UNL     1      52.004   0.285  18.168  0.00  0.00    +0.000 NA
ATOM     22  H   UNL     1      51.101  -0.037  17.830  0.00  0.00    +0.000 HD
ATOM     23  H   UNL     1      51.976   0.236  19.185  0.00  0.00    +0.000 HD
ENDBRANCH   2   1
ENDBRANCH   3   2
ENDBRANCH   7   6
ENDBRANCH   8   7
TORSDOF 5
ENDMDL
MODEL 8
REMARK VINA RESULT:    -6.226      1.937      2.840
REMARK INTER + INTRA:          -8.286
REMARK INTER:                  -8.271
REMARK INTRA:                  -0.016
REMARK UNBOUND:                -0.422
REMARK  Name = 
REMARK  5 active torsions:
REMARK  status: ('A' for Active; 'I' for Inactive)
REMARK    1  A    between atoms: N_1  and  C_2
REMARK    2  A    between atoms: C_2  and  C_3
REMARK    3  A    between atoms: C_6  and  C_7
REMARK    4  A    between atoms: C_7  and  N_8
REMARK    5  A    between atoms: C_13  and  C_14
REMARK                            x       y       z     vdW  Elec       q    Type
REMARK                         _______ _______ _______ _____ _____    ______ ____
ROOT
ATOM      8  N   UNL     1      46.195   5.561  13.426  0.00  0.00    +0.000 N 
ATOM      9  C   UNL     1      46.737   6.750  12.985  0.00  0.00    +0.000 A 
ATOM     10  C   UNL     1      47.815   7.058  13.786  0.00  0.00    +0.000 A 
ATOM     11  C   UNL     1      47.917   6.042  14.772  0.00  0.00    +0.000 A 
ATOM     12  C   UNL     1      48.756   5.821  15.876  0.00  0.00    +0.000 A 
ATOM     13  C   UNL     1      48.516   4.699  16.674  0.00  0.00    +0.000 A 
ATOM     17  C   UNL     1      47.471   3.850  16.311  0.00  0.00    +0.000 A 
ATOM     18  N   UNL     1      46.646   4.001  15.236  0.00  0.00    +0.000 NA
ATOM     19  C   UNL     1      46.904   5.117  14.522  0.00  0.00    +0.000 A 
ENDROOT
BRANCH  13  14
ATOM     14  C   UNL     1      49.309   4.385  17.885  0.00  0.00    +0.000 C 
ATOM     15  N   UNL     1      49.592   3.080  18.169  0.00  0.00    +0.000 N 
ATOM     16  O   UNL     1      49.712   5.278  18.633  0.00  0.00    +0.000 OA
ATOM     24  H   UNL     1      49.273   2.284  17.634  0.00  0.00    +0.000 HD
ATOM     25  H   UNL     1      50.116   2.892  19.011  0.00  0.00    +0.000 HD
ENDBRANCH  13  14
BRANCH   8   7
ATOM      7  C   UNL     1      44.995   4.937  12.873  0.00  0.00    +0.000 C 
BRANCH   7   6
ATOM      3  C   UNL     1      45.450   3.811   8.699  0.00  0.00    +0.000 A 
ATOM      4  C   UNL     1      45.007   2.874   9.637  0.00  0.00    +0.000 A 
ATOM      5  C   UNL     1      44.831   3.229  10.978  0.00  0.00    +0.000 A 
ATOM      6  C   UNL     1      45.131   4.526  11.423  0.00  0.00    +0.000 A 
ATOM     20  C   UNL     1      45.535   5.472  10.471  0.00  0.00    +0.000 A 
ATOM     21  C   UNL     1      45.694   5.123   9.125  0.00  0.00    +0.000 A 
BRANCH   3   2
ATOM      2  C   UNL     1      45.659   3.397   7.267  0.00  0.00    +0.000 C 
BRANCH   2   1
ATOM      1  N   UNL     1      46.843   4.032   6.706  0.00  0.00    +0.000 NA
ATOM     22  H   UNL     1      47.489   3.317   6.383  0.00  0.00    +0.000 HD
ATOM     23  H   UNL     1      47.318   4.554   7.440  0.00  0.00    +0.000 HD
ENDBRANCH   2   1
ENDBRANCH   3   2
ENDBRANCH   7   6
ENDBRANCH   8   7
TORSDOF 5
ENDMDL
MODEL 9
REMARK VINA RESULT:    -5.879      4.316      5.881
REMARK INTER + INTRA:          -7.848
REMARK INTER:                  -7.312
REMARK INTRA:                  -0.536
REMARK UNBOUND:                -0.422
REMARK  Name = 
REMARK  5 active torsions:
REMARK  status: ('A' for Active; 'I' for Inactive)
REMARK    1  A    between atoms: N_1  and  C_2
REMARK    2  A    between atoms: C_2  and  C_3
REMARK    3  A    between atoms: C_6  and  C_7
REMARK    4  A    between atoms: C_7  and  N_8
REMARK    5  A    between atoms: C_13  and  C_14
REMARK                            x       y       z     vdW  Elec       q    Type
REMARK                         _______ _______ _______ _____ _____    ______ ____
ROOT
ATOM      8  N   UNL     1      48.652   7.054  14.722  0.00  0.00    +0.000 N 
ATOM      9  C   UNL     1      48.738   8.406  14.979  0.00  0.00    +0.000 A 
ATOM     10  C   UNL     1      48.867   8.583  16.339  0.00  0.00    +0.000 A 
ATOM     11  C   UNL     1      48.825   7.297  16.940  0.00  0.00    +0.000 A 
ATOM     12  C   UNL     1      48.855   6.826  18.263  0.00  0.00    +0.000 A 
ATOM     13  C   UNL     1      48.738   5.450  18.478  0.00  0.00    +0.000 A 
ATOM     17  C   UNL     1      48.623   4.623  17.361  0.00  0.00    +0.000 A 
ATOM     18  N   UNL     1      48.617   5.022  16.057  0.00  0.00    +0.000 NA
ATOM     19  C   UNL     1      48.700   6.362  15.913  0.00  0.00    +0.000 A 
ENDROOT
BRANCH  13  14
ATOM     14  C   UNL     1      48.718   4.842  19.828  0.00  0.00    +0.000 C 
ATOM     15  N   UNL     1      48.497   3.500  19.944  0.00  0.00    +0.000 N 
ATOM     16  O   UNL     1      48.896   5.525  20.838  0.00  0.00    +0.000 OA
ATOM     24  H   UNL     1      48.305   2.872  19.177  0.00  0.00    +0.000 HD
ATOM     25  H   UNL     1      48.468   3.115  20.877  0.00  0.00    +0.000 HD
ENDBRANCH  13  14
BRANCH   8   7
ATOM      7  C   UNL     1      48.440   6.469  13.400  0.00  0.00    +0.000 C 
BRANCH   7   6
ATOM      3  C   UNL     1      44.280   5.506  12.587  0.00  0.00    +0.000 A 
ATOM      4  C   UNL     1      44.766   6.793  12.340  0.00  0.00    +0.000 A 
ATOM      5  C   UNL     1      46.108   7.109  12.573  0.00  0.00    +0.000 A 
ATOM      6  C   UNL     1      46.992   6.153  13.094  0.00  0.00    +0.000 A 
ATOM     20  C   UNL     1      46.510   4.853  13.301  0.00  0.00    +0.000 A 
ATOM     21  C   UNL     1      45.171   4.530  13.052  0.00  0.00    +0.000 A 
BRANCH   3   2
ATOM      2  C   UNL     1      42.825   5.196  12.356  0.00  0.00    +0.000 C 
BRANCH   2   1
ATOM      1  N   UNL     1      42.141   6.323  11.738  0.00  0.00    +0.000 NA
ATOM     22  H   UNL     1      42.273   6.288  10.730  0.00  0.00    +0.000 HD
ATOM     23  H   UNL     1      42.567   7.189  12.064  0.00  0.00    +0.000 HD
ENDBRANCH   2   1
ENDBRANCH   3   2
ENDBRANCH   7   6
ENDBRANCH   8   7
TORSDOF 5
ENDMDL
