MODEL 1
REMARK VINA RESULT:    -6.719      0.000      0.000
REMARK INTER + INTRA:          -8.216
REMARK INTER:                  -7.897
REMARK INTRA:                  -0.319
REMARK UNBOUND:                -0.319
REMARK  Name = 
REMARK  6 active torsions:
REMARK  status: ('A' for Active; 'I' for Inactive)
REMARK    1  A    between atoms: C_1  and  C_2
REMARK    2  A    between atoms: C_2  and  C_3
REMARK    3  A    between atoms: C_2  and  C_4
REMARK    4  A    between atoms: C_2  and  C_5
REMARK    5  A    between atoms: C_5  and  N_6
REMARK    6  A    between atoms: C_10  and  C_11
REMARK                            x       y       z     vdW  Elec       q    Type
REMARK                         _______ _______ _______ _____ _____    ______ ____
ROOT
ATOM      6  N   UNL     1      44.501   5.268   9.833  0.00  0.00    +0.000 N 
ATOM      7  C   UNL     1      45.197   4.308   9.081  0.00  0.00    +0.000 A 
ATOM      8  C   UNL     1      46.057   4.745   8.077  0.00  0.00    +0.000 A 
ATOM      9  C   UNL     1      46.762   3.806   7.321  0.00  0.00    +0.000 A 
ATOM     10  C   UNL     1      46.594   2.447   7.581  0.00  0.00    +0.000 A 
ATOM     14  C   UNL     1      45.710   2.103   8.588  0.00  0.00    +0.000 A 
ATOM     15  N   UNL     1      45.014   2.997   9.329  0.00  0.00    +0.000 NA
ATOM     16  H   UNL     1      45.188   5.906  10.226  0.00  0.00    +0.000 HD
ENDROOT
BRANCH  10  11
ATOM     11  C   UNL     1      47.351   1.449   6.788  0.00  0.00    +0.000 C 
ATOM     12  N   UNL     1      48.402   1.873   6.021  0.00  0.00    +0.000 N 
ATOM     13  O   UNL     1      47.048   0.263   6.810  0.00  0.00    +0.000 OA
ATOM     17  H   UNL     1      48.738   2.817   5.940  0.00  0.00    +0.000 HD
ATOM     18  H   UNL     1      48.894   1.157   5.500  0.00  0.00    +0.000 HD
ENDBRANCH  10  11
BRANCH   6   5
ATOM      5  C   UNL     1      43.619   4.697  10.856  0.00  0.00    +0.000 C 
BRANCH   5   2
ATOM      1  C   UNL     1      44.733   6.430  12.336  0.00  0.00    +0.000 C 
ATOM      2  C   UNL     1      44.115   5.023  12.286  0.00  0.00    +0.000 C 
ATOM      3  C   UNL     1      45.147   3.985  12.762  0.00  0.00    +0.000 C 
ATOM      4  C   UNL     1      42.909   4.984  13.246  0.00  0.00    +0.000 C 
ENDBRANCH   5   2
ENDBRANCH   6   5
TORSDOF 3
ENDMDL
MODEL 2
REMARK VINA RESULT:    -6.716      1.070      1.574
REMARK INTER + INTRA:          -8.213
REMARK INTER:                  -8.023
REMARK INTRA:                  -0.190
REMARK UNBOUND:                -0.319
REMARK  Name = 
REMARK  6 active torsions:
REMARK  status: ('A' for Active; 'I' for Inactive)
REMARK    1  A    between atoms: C_1  and  C_2
REMARK    2  A    between atoms: C_2  and  C_3
REMARK    3  A    between atoms: C_2  and  C_4
REMARK    4  A    between atoms: C_2  and  C_5
REMARK    5  A    between atoms: C_5  and  N_6
REMARK    6  A    between atoms: C_10  and  C_11
REMARK                            x       y       z     vdW  Elec       q    Type
REMARK                         _______ _______ _______ _____ _____    ______ ____
ROOT
ATOM      6  N   UNL     1      43.922   3.322  10.407  0.00  0.00    +0.000 N 
ATOM      7  C   UNL     1      44.850   3.091   9.379  0.00  0.00    +0.000 A 
ATOM      8  C   UNL     1      45.235   1.779   9.114  0.00  0.00    +0.000 A 
ATOM      9  C   UNL     1      46.153   1.527   8.092  0.00  0.00    +0.000 A 
ATOM     10  C   UNL     1      46.670   2.591   7.354  0.00  0.00    +0.000 A 
ATOM     14  C   UNL     1      46.241   3.861   7.694  0.00  0.00    +0.000 A 
ATOM     15  N   UNL     1      45.356   4.126   8.684  0.00  0.00    +0.000 NA
ATOM     16  H   UNL     1      43.100   2.758  10.211  0.00  0.00    +0.000 HD
ENDROOT
BRANCH  10  11
ATOM     11  C   UNL     1      47.635   2.325   6.260  0.00  0.00    +0.000 C 
ATOM     12  N   UNL     1      47.662   3.167   5.183  0.00  0.00    +0.000 N 
ATOM     13  O   UNL     1      48.397   1.367   6.309  0.00  0.00    +0.000 OA
ATOM     17  H   UNL     1      47.089   3.982   5.048  0.00  0.00    +0.000 HD
ATOM     18  H   UNL     1      48.339   2.950   4.461  0.00  0.00    +0.000 HD
ENDBRANCH  10  11
BRANCH   6   5
ATOM      5  C   UNL     1      43.594   4.738  10.605  0.00  0.00    +0.000 C 
BRANCH   5   2
ATOM      1  C   UNL     1      44.538   6.723  11.871  0.00  0.00    +0.000 C 
ATOM      2  C   UNL     1      44.095   5.254  11.977  0.00  0.00    +0.000 C 
ATOM      3  C   UNL     1      45.261   4.395  12.497  0.00  0.00    +0.000 C 
ATOM      4  C   UNL     1      42.935   5.165  12.989  0.00  0.00    +0.000 C 
ENDBRANCH   5   2
ENDBRANCH   6   5
TORSDOF 3
ENDMDL
MODEL 3
REMARK VINA RESULT:    -5.664      3.982      5.388
REMARK INTER + INTRA:          -6.977
REMARK INTER:                  -6.766
REMARK INTRA:                  -0.210
REMARK UNBOUND:                -0.319
REMARK  Name = 
REMARK  6 active torsions:
REMARK  status: ('A' for Active; 'I' for Inactive)
REMARK    1  A    between atoms: C_1  and  C_2
REMARK    2  A    between atoms: C_2  and  C_3
REMARK    3  A    between atoms: C_2  and  C_4
REMARK    4  A    between atoms: C_2  and  C_5
REMARK    5  A    between atoms: C_5  and  N_6
REMARK    6  A    between atoms: C_10  and  C_11
REMARK                            x       y       z     vdW  Elec       q    Type
REMARK                         _______ _______ _______ _____ _____    ______ ____
ROOT
ATOM      6  N   UNL     1      47.130   5.340  14.805  0.00  0.00    +0.000 N 
ATOM      7  C   UNL     1      46.429   4.947  13.655  0.00  0.00    +0.000 A 
ATOM      8  C   UNL     1      46.241   5.881  12.640  0.00  0.00    +0.000 A 
ATOM      9  C   UNL     1      45.551   5.508  11.484  0.00  0.00    +0.000 A 
ATOM     10  C   UNL     1      45.059   4.209  11.365  0.00  0.00    +0.000 A 
ATOM     14  C   UNL     1      45.282   3.352  12.428  0.00  0.00    +0.000 A 
ATOM     15  N   UNL     1      45.945   3.694  13.557  0.00  0.00    +0.000 NA
ATOM     16  H   UNL     1      48.030   5.705  14.507  0.00  0.00    +0.000 HD
ENDROOT
BRANCH  10  11
ATOM     11  C   UNL     1      44.338   3.807  10.134  0.00  0.00    +0.000 C 
ATOM     12  N   UNL     1      44.241   4.700   9.102  0.00  0.00    +0.000 N 
ATOM     13  O   UNL     1      43.829   2.697  10.033  0.00  0.00    +0.000 OA
ATOM     17  H   UNL     1      44.628   5.628   9.078  0.00  0.00    +0.000 HD
ATOM     18  H   UNL     1      43.744   4.382   8.279  0.00  0.00    +0.000 HD
ENDBRANCH  10  11
BRANCH   6   5
ATOM      5  C   UNL     1      47.263   4.282  15.812  0.00  0.00    +0.000 C 
BRANCH   5   2
ATOM      1  C   UNL     1      48.997   5.957  16.599  0.00  0.00    +0.000 C 
ATOM      2  C   UNL     1      48.171   4.720  16.988  0.00  0.00    +0.000 C 
ATOM      3  C   UNL     1      49.111   3.579  17.413  0.00  0.00    +0.000 C 
ATOM      4  C   UNL     1      47.277   5.088  18.189  0.00  0.00    +0.000 C 
ENDBRANCH   5   2
ENDBRANCH   6   5
TORSDOF 3
ENDMDL
MODEL 4
REMARK VINA RESULT:    -5.524      2.671      6.094
REMARK INTER + INTRA:          -6.812
REMARK INTER:                  -6.526
REMARK INTRA:                  -0.286
REMARK UNBOUND:                -0.319
REMARK  Name = 
REMARK  6 active torsions:
REMARK  status: ('A' for Active; 'I' for Inactive)
REMARK    1  A    between atoms: C_1  and  C_2
REMARK    2  A    between atoms: C_2  and  C_3
REMARK    3  A    between atoms: C_2  and  C_4
REMARK    4  A    between atoms: C_2  and  C_5
REMARK    5  A    between atoms: C_5  and  N_6
REMARK    6  A    between atoms: C_10  and  C_11
REMARK                            x       y       z     vdW  Elec       q    Type
REMARK                         _______ _______ _______ _____ _____    ______ ____
ROOT
ATOM      6  N   UNL     1      46.033   4.304   7.822  0.00  0.00    +0.000 N 
ATOM      7  C   UNL     1      45.388   4.328   9.068  0.00  0.00    +0.000 A 
ATOM      8  C   UNL     1      45.647   5.389   9.931  0.00  0.00    +0.000 A 
ATOM      9  C   UNL     1      45.011   5.434  11.173  0.00  0.00    +0.000 A 
ATOM     10  C   UNL     1      44.128   4.416  11.532  0.00  0.00    +0.000 A 
ATOM     14  C   UNL     1      43.940   3.395  10.617  0.00  0.00    +0.000 A 
ATOM     15  N   UNL     1      44.550   3.331   9.411  0.00  0.00    +0.000 NA
ATOM     16  H   UNL     1      45.829   5.182   7.353  0.00  0.00    +0.000 HD
ENDROOT
BRANCH  10  11
ATOM     11  C   UNL     1      43.442   4.468  12.844  0.00  0.00    +0.000 C 
ATOM     12  N   UNL     1      42.743   5.595  13.181  0.00  0.00    +0.000 N 
ATOM     13  O   UNL     1      43.497   3.526  13.624  0.00  0.00    +0.000 OA
ATOM     17  H   UNL     1      42.627   6.417  12.614  0.00  0.00    +0.000 HD
ATOM     18  H   UNL     1      42.286   5.585  14.085  0.00  0.00    +0.000 HD
ENDBRANCH  10  11
BRANCH   6   5
ATOM      5  C   UNL     1      45.694   3.139   6.998  0.00  0.00    +0.000 C 
BRANCH   5   2
ATOM      1  C   UNL     1      46.922   2.241   4.968  0.00  0.00    +0.000 C 
ATOM      2  C   UNL     1      46.962   2.404   6.496  0.00  0.00    +0.000 C 
ATOM      3  C   UNL     1      47.099   1.024   7.163  0.00  0.00    +0.000 C 
ATOM      4  C   UNL     1      48.198   3.248   6.866  0.00  0.00    +0.000 C 
ENDBRANCH   5   2
ENDBRANCH   6   5
TORSDOF 3
ENDMDL
MODEL 5
REMARK VINA RESULT:    -5.192      4.281      6.190
REMARK INTER + INTRA:          -6.421
REMARK INTER:                  -6.188
REMARK INTRA:                  -0.234
REMARK UNBOUND:                -0.319
REMARK  Name = 
REMARK  6 active torsions:
REMARK  status: ('A' for Active; 'I' for Inactive)
REMARK    1  A    between atoms: C_1  and  C_2
REMARK    2  A    between atoms: C_2  and  C_3
REMARK    3  A    between atoms: C_2  and  C_4
REMARK    4  A    between atoms: C_2  and  C_5
REMARK    5  A    between atoms: C_5  and  N_6
REMARK    6  A    between atoms: C_10  and  C_11
REMARK                            x       y       z     vdW  Elec       q    Type
REMARK                         _______ _______ _______ _____ _____    ______ ____
ROOT
ATOM      6  N   UNL     1      47.257   3.741  14.879  0.00  0.00    +0.000 N 
ATOM      7  C   UNL     1      46.351   4.166  13.896  0.00  0.00    +0.000 A 
ATOM      8  C   UNL     1      45.923   3.247  12.943  0.00  0.00    +0.000 A 
ATOM      9  C   UNL     1      45.017   3.649  11.959  0.00  0.00    +0.000 A 
ATOM     10  C   UNL     1      44.555   4.964  11.945  0.00  0.00    +0.000 A 
ATOM     14  C   UNL     1      45.042   5.812  12.923  0.00  0.00    +0.000 A 
ATOM     15  N   UNL     1      45.923   5.443  13.882  0.00  0.00    +0.000 NA
ATOM     16  H   UNL     1      46.850   2.933  15.343  0.00  0.00    +0.000 HD
ENDROOT
BRANCH  10  11
ATOM     11  C   UNL     1      43.583   5.390  10.910  0.00  0.00    +0.000 C 
ATOM     12  N   UNL     1      42.833   6.513  11.128  0.00  0.00    +0.000 N 
ATOM     13  O   UNL     1      43.443   4.752   9.874  0.00  0.00    +0.000 OA
ATOM     17  H   UNL     1      42.876   7.111  11.936  0.00  0.00    +0.000 HD
ATOM     18  H   UNL     1      42.186   6.769  10.393  0.00  0.00    +0.000 HD
ENDBRANCH  10  11
BRANCH   6   5
ATOM      5  C   UNL     1      47.645   4.792  15.825  0.00  0.00    +0.000 C 
BRANCH   5   2
ATOM      1  C   UNL     1      47.467   5.157  18.330  0.00  0.00    +0.000 C 
ATOM      2  C   UNL     1      47.967   4.212  17.225  0.00  0.00    +0.000 C 
ATOM      3  C   UNL     1      49.479   3.975  17.389  0.00  0.00    +0.000 C 
ATOM      4  C   UNL     1      47.244   2.858  17.374  0.00  0.00    +0.000 C 
ENDBRANCH   5   2
ENDBRANCH   6   5
TORSDOF 3
ENDMDL
MODEL 6
REMARK VINA RESULT:    -5.085      3.552      5.370
REMARK INTER + INTRA:          -6.296
REMARK INTER:                  -6.046
REMARK INTRA:                  -0.250
REMARK UNBOUND:                -0.319
REMARK  Name = 
REMARK  6 active torsions:
REMARK  status: ('A' for Active; 'I' for Inactive)
REMARK    1  A    between atoms: C_1  and  C_2
REMARK    2  A    between atoms: C_2  and  C_3
REMARK    3  A    between atoms: C_2  and  C_4
REMARK    4  A    between atoms: C_2  and  C_5
REMARK    5  A    between atoms: C_5  and  N_6
REMARK    6  A    between atoms: C_10  and  C_11
REMARK                            x       y       z     vdW  Elec       q    Type
REMARK                         _______ _______ _______ _____ _____    ______ ____
ROOT
ATOM      6  N   UNL     1      46.761   7.173  13.524  0.00  0.00    +0.000 N 
ATOM      7  C   UNL     1      46.090   6.117  12.888  0.00  0.00    +0.000 A 
ATOM      8  C   UNL     1      46.159   4.848  13.455  0.00  0.00    +0.000 A 
ATOM      9  C   UNL     1      45.493   3.785  12.841  0.00  0.00    +0.000 A 
ATOM     10  C   UNL     1      44.771   4.010  11.669  0.00  0.00    +0.000 A 
ATOM     14  C   UNL     1      44.766   5.300  11.171  0.00  0.00    +0.000 A 
ATOM     15  N   UNL     1      45.408   6.342  11.748  0.00  0.00    +0.000 NA
ATOM     16  H   UNL     1      46.434   7.210  14.485  0.00  0.00    +0.000 HD
ENDROOT
BRANCH  10  11
ATOM     11  C   UNL     1      44.052   2.886  11.023  0.00  0.00    +0.000 C 
ATOM     12  N   UNL     1      44.610   2.289   9.926  0.00  0.00    +0.000 N 
ATOM     13  O   UNL     1      42.975   2.493  11.453  0.00  0.00    +0.000 OA
ATOM     17  H   UNL     1      45.489   2.526   9.499  0.00  0.00    +0.000 HD
ATOM     18  H   UNL     1      44.087   1.522   9.519  0.00  0.00    +0.000 HD
ENDBRANCH  10  11
BRANCH   6   5
ATOM      5  C   UNL     1      46.628   8.462  12.838  0.00  0.00    +0.000 C 
BRANCH   5   2
ATOM      1  C   UNL     1      47.836  10.369  11.680  0.00  0.00    +0.000 C 
ATOM      2  C   UNL     1      48.008   9.049  12.450  0.00  0.00    +0.000 C 
ATOM      3  C   UNL     1      48.811   8.051  11.598  0.00  0.00    +0.000 C 
ATOM      4  C   UNL     1      48.801   9.336  13.741  0.00  0.00    +0.000 C 
ENDBRANCH   5   2
ENDBRANCH   6   5
TORSDOF 3
ENDMDL
MODEL 7
REMARK VINA RESULT:    -5.048      3.580      5.424
REMARK INTER + INTRA:          -6.252
REMARK INTER:                  -5.969
REMARK INTRA:                  -0.283
REMARK UNBOUND:                -0.319
REMARK  Name = 
REMARK  6 active torsions:
REMARK  status: ('A' for Active; 'I' for Inactive)
REMARK    1  A    between atoms: C_1  and  C_2
REMARK    2  A    between atoms: C_2  and  C_3
REMARK    3  A    between atoms: C_2  and  C_4
REMARK    4  A    between atoms: C_2  and  C_5
REMARK    5  A    between atoms: C_5  and  N_6
REMARK    6  A    between atoms: C_10  and  C_11
REMARK                            x       y       z     vdW  Elec       q    Type
REMARK                         _______ _______ _______ _____ _____    ______ ____
ROOT
ATOM      6  N   UNL     1      46.807   7.267  13.275  0.00  0.00    +0.000 N 
ATOM      7  C   UNL     1      46.147   6.190  12.664  0.00  0.00    +0.000 A 
ATOM      8  C   UNL     1      45.843   5.072  13.436  0.00  0.00    +0.000 A 
ATOM      9  C   UNL     1      45.181   3.991  12.849  0.00  0.00    +0.000 A 
ATOM     10  C   UNL     1      44.835   4.047  11.499  0.00  0.00    +0.000 A 
ATOM     14  C   UNL     1      45.186   5.192  10.807  0.00  0.00    +0.000 A 
ATOM     15  N   UNL     1      45.832   6.247  11.356  0.00  0.00    +0.000 NA
ATOM     16  H   UNL     1      46.256   7.548  14.081  0.00  0.00    +0.000 HD
ENDROOT
BRANCH  10  11
ATOM     11  C   UNL     1      44.121   2.907  10.877  0.00  0.00    +0.000 C 
ATOM     12  N   UNL     1      44.707   2.251   9.830  0.00  0.00    +0.000 N 
ATOM     13  O   UNL     1      43.021   2.553  11.283  0.00  0.00    +0.000 OA
ATOM     17  H   UNL     1      45.606   2.454   9.427  0.00  0.00    +0.000 HD
ATOM     18  H   UNL     1      44.186   1.476   9.438  0.00  0.00    +0.000 HD
ENDBRANCH  10  11
BRANCH   6   5
ATOM      5  C   UNL     1      47.084   8.386  12.368  0.00  0.00    +0.000 C 
BRANCH   5   2
ATOM      1  C   UNL     1      49.426   7.673  11.702  0.00  0.00    +0.000 C 
ATOM      2  C   UNL     1      48.585   8.770  12.375  0.00  0.00    +0.000 C 
ATOM      3  C   UNL     1      49.087   9.004  13.811  0.00  0.00    +0.000 C 
ATOM      4  C   UNL     1      48.761  10.079  11.579  0.00  0.00    +0.000 C 
ENDBRANCH   5   2
ENDBRANCH   6   5
TORSDOF 3
ENDMDL
MODEL 8
REMARK VINA RESULT:    -4.950      4.289      6.719
REMARK INTER + INTRA:          -6.137
REMARK INTER:                  -5.846
REMARK INTRA:                  -0.291
REMARK UNBOUND:                -0.319
REMARK  Name = 
REMARK  6 active torsions:
REMARK  status: ('A' for Active; 'I' for Inactive)
REMARK    1  A    between atoms: C_1  and  C_2
REMARK    2  A    between atoms: C_2  and  C_3
REMARK    3  A    between atoms: C_2  and  C_4
REMARK    4  A    between atoms: C_2  and  C_5
REMARK    5  A    between atoms: C_5  and  N_6
REMARK    6  A    between atoms: C_10  and  C_11
REMARK                            x       y       z     vdW  Elec       q    Type
REMARK                         _______ _______ _______ _____ _____    ______ ____
ROOT
ATOM      6  N   UNL     1      44.803   6.301  10.727  0.00  0.00    +0.000 N 
ATOM      7  C   UNL     1      45.641   6.934  11.658  0.00  0.00    +0.000 A 
ATOM      8  C   UNL     1      45.252   8.167  12.173  0.00  0.00    +0.000 A 
ATOM      9  C   UNL     1      46.069   8.811  13.104  0.00  0.00    +0.000 A 
ATOM     10  C   UNL     1      47.263   8.212  13.503  0.00  0.00    +0.000 A 
ATOM     14  C   UNL     1      47.577   6.992  12.930  0.00  0.00    +0.000 A 
ATOM     15  N   UNL     1      46.800   6.354  12.023  0.00  0.00    +0.000 NA
ATOM     16  H   UNL     1      43.883   6.218  11.150  0.00  0.00    +0.000 HD
ENDROOT
BRANCH  10  11
ATOM     11  C   UNL     1      48.126   8.887  14.500  0.00  0.00    +0.000 C 
ATOM     12  N   UNL     1      47.604   9.195  15.727  0.00  0.00    +0.000 N 
ATOM     13  O   UNL     1      49.289   9.173  14.241  0.00  0.00    +0.000 OA
ATOM     17  H   UNL     1      46.671   8.997  16.044  0.00  0.00    +0.000 HD
ATOM     18  H   UNL     1      48.230   9.651  16.379  0.00  0.00    +0.000 HD
ENDBRANCH  10  11
BRANCH   6   5
ATOM      5  C   UNL     1      45.314   5.014  10.245  0.00  0.00    +0.000 C 
BRANCH   5   2
ATOM      1  C   UNL     1      45.178   3.268  12.080  0.00  0.00    +0.000 C 
ATOM      2  C   UNL     1      44.502   3.825  10.816  0.00  0.00    +0.000 C 
ATOM      3  C   UNL     1      44.353   2.706   9.770  0.00  0.00    +0.000 C 
ATOM      4  C   UNL     1      43.095   4.328  11.195  0.00  0.00    +0.000 C 
ENDBRANCH   5   2
ENDBRANCH   6   5
TORSDOF 3
ENDMDL
MODEL 9
REMARK VINA RESULT:    -4.856      5.822      7.928
REMARK INTER + INTRA:          -6.027
REMARK INTER:                  -5.786
REMARK INTRA:                  -0.241
REMARK UNBOUND:                -0.319
REMARK  Name = 
REMARK  6 active torsions:
REMARK  status: ('A' for Active; 'I' for Inactive)
REMARK    1  A    between atoms: C_1  and  C_2
REMARK    2  A    between atoms: C_2  and  C_3
REMARK    3  A    between atoms: C_2  and  C_4
REMARK    4  A    between atoms: C_2  and  C_5
REMARK    5  A    between atoms: C_5  and  N_6
REMARK    6  A    between atoms: C_10  and  C_11
REMARK                            x       y       z     vdW  Elec       q    Type
REMARK                         _______ _______ _______ _____ _____    ______ ____
ROOT
ATOM      6  N   UNL     1      46.752   5.058  13.516  0.00  0.00    +0.000 N 
ATOM      7  C   UNL     1      47.342   4.769  14.756  0.00  0.00    +0.000 A 
ATOM      8  C   UNL     1      48.051   5.775  15.406  0.00  0.00    +0.000 A 
ATOM      9  C   UNL     1      48.640   5.510  16.644  0.00  0.00    +0.000 A 
ATOM     10  C   UNL     1      48.513   4.241  17.209  0.00  0.00    +0.000 A 
ATOM     14  C   UNL     1      47.802   3.300  16.487  0.00  0.00    +0.000 A 
ATOM     15  N   UNL     1      47.227   3.536  15.285  0.00  0.00    +0.000 NA
ATOM     16  H   UNL     1      46.154   5.869  13.642  0.00  0.00    +0.000 HD
ENDROOT
BRANCH  10  11
ATOM     11  C   UNL     1      49.127   3.961  18.529  0.00  0.00    +0.000 C 
ATOM     12  N   UNL     1      48.434   3.203  19.432  0.00  0.00    +0.000 N 
ATOM     13  O   UNL     1      50.234   4.398  18.817  0.00  0.00    +0.000 OA
ATOM     17  H   UNL     1      47.528   2.789  19.295  0.00  0.00    +0.000 HD
ATOM     18  H   UNL     1      48.894   3.032  20.319  0.00  0.00    +0.000 HD
ENDBRANCH  10  11
BRANCH   6   5
ATOM      5  C   UNL     1      46.039   3.925  12.917  0.00  0.00    +0.000 C 
BRANCH   5   2
ATOM      1  C   UNL     1      44.178   5.649  12.934  0.00  0.00    +0.000 C 
ATOM      2  C   UNL     1      44.704   4.367  12.268  0.00  0.00    +0.000 C 
ATOM      3  C   UNL     1      43.646   3.255  12.371  0.00  0.00    +0.000 C 
ATOM      4  C   UNL     1      44.957   4.660  10.775  0.00  0.00    +0.000 C 
ENDBRANCH   5   2
ENDBRANCH   6   5
TORSDOF 3
ENDMDL
