MODEL 1
REMARK VINA RESULT:    -7.907      0.000      0.000
REMARK INTER + INTRA:         -14.664
REMARK INTER:                 -12.530
REMARK INTRA:                  -2.134
REMARK UNBOUND:                -2.134
REMARK  Name = 
REMARK  11 active torsions:
REMARK  status: ('A' for Active; 'I' for Inactive)
REMARK    1  A    between atoms: C_1  and  C_2
REMARK    2  A    between atoms: C_2  and  C_3
REMARK    3  A    between atoms: C_3  and  O_4
REMARK    4  A    between atoms: O_4  and  C_5
REMARK    5  A    between atoms: C_12  and  C_13
REMARK    6  A    between atoms: N_15  and  C_16
REMARK    7  A    between atoms: C_16  and  C_17
REMARK    8  A    between atoms: C_20  and  C_21
REMARK    9  A    between atoms: C_21  and  N_22
REMARK   10  A    between atoms: N_22  and  C_23
REMARK   11  A    between atoms: C_23  and  C_24
REMARK                            x       y       z     vdW  Elec       q    Type
REMARK                         _______ _______ _______ _____ _____    ______ ____
ROOT
ATOM     13  C   UNL     1      48.781   7.019  14.572  0.00  0.00    +0.000 C 
ATOM     14  O   UNL     1      49.649   6.959  13.703  0.00  0.00    +0.000 OA
ATOM     15  N   UNL     1      47.610   7.694  14.352  0.00  0.00    +0.000 N 
ATOM     33  H   UNL     1      46.917   7.766  15.085  0.00  0.00    +0.000 HD
ENDROOT
BRANCH  13  12
ATOM      5  C   UNL     1      47.231   4.342  16.101  0.00  0.00    +0.000 A 
ATOM      6  N   UNL     1      46.897   3.276  16.856  0.00  0.00    +0.000 NA
ATOM      7  C   UNL     1      47.568   3.074  17.993  0.00  0.00    +0.000 A 
ATOM      8  N   UNL     1      48.548   3.826  18.489  0.00  0.00    +0.000 NA
ATOM      9  C   UNL     1      48.870   4.857  17.692  0.00  0.00    +0.000 A 
ATOM     10  S   UNL     1      50.095   5.931  18.169  0.00  0.00    +0.000 S 
ATOM     11  C   UNL     1      49.928   6.833  16.740  0.00  0.00    +0.000 A 
ATOM     12  C   UNL     1      48.959   6.344  15.870  0.00  0.00    +0.000 A 
ATOM     32  C   UNL     1      48.295   5.185  16.466  0.00  0.00    +0.000 A 
BRANCH   5   4
ATOM      4  O   UNL     1      46.520   4.590  14.950  0.00  0.00    +0.000 OA
BRANCH   4   3
ATOM      3  C   UNL     1      47.053   4.016  13.751  0.00  0.00    +0.000 C 
BRANCH   3   2
ATOM      1  C   UNL     1      44.571   3.736  13.387  0.00  0.00    +0.000 C 
ATOM      2  C   UNL     1      45.958   3.209  13.067  0.00  0.00    +0.000 C 
ENDBRANCH   3   2
ENDBRANCH   4   3
ENDBRANCH   5   4
ENDBRANCH  13  12
BRANCH  15  16
ATOM     16  C   UNL     1      47.341   8.358  13.097  0.00  0.00    +0.000 C 
BRANCH  16  17
ATOM     17  C   UNL     1      46.364   7.567  12.264  0.00  0.00    +0.000 A 
ATOM     18  C   UNL     1      44.985   7.708  12.460  0.00  0.00    +0.000 A 
ATOM     19  C   UNL     1      44.080   6.910  11.753  0.00  0.00    +0.000 A 
ATOM     20  C   UNL     1      44.532   5.952  10.835  0.00  0.00    +0.000 A 
ATOM     30  C   UNL     1      45.912   5.833  10.617  0.00  0.00    +0.000 A 
ATOM     31  C   UNL     1      46.818   6.628  11.328  0.00  0.00    +0.000 A 
BRANCH  20  21
ATOM     21  C   UNL     1      43.557   5.016  10.155  0.00  0.00    +0.000 C 
BRANCH  21  22
ATOM     22  N   UNL     1      44.122   4.432   8.941  0.00  0.00    +0.000 NA
ATOM     34  H   UNL     1      44.940   4.969   8.660  0.00  0.00    +0.000 HD
BRANCH  22  23
ATOM     23  C   UNL     1      44.516   3.040   9.154  0.00  0.00    +0.000 C 
BRANCH  23  24
ATOM     24  C   UNL     1      45.613   2.631   8.195  0.00  0.00    +0.000 A 
ATOM     25  C   UNL     1      46.127   1.328   8.197  0.00  0.00    +0.000 A 
ATOM     26  C   UNL     1      47.129   0.957   7.296  0.00  0.00    +0.000 A 
ATOM     27  C   UNL     1      47.623   1.885   6.381  0.00  0.00    +0.000 A 
ATOM     28  C   UNL     1      47.119   3.184   6.366  0.00  0.00    +0.000 A 
ATOM     29  C   UNL     1      46.119   3.556   7.267  0.00  0.00    +0.000 A 
ENDBRANCH  23  24
ENDBRANCH  22  23
ENDBRANCH  21  22
ENDBRANCH  20  21
ENDBRANCH  16  17
ENDBRANCH  15  16
TORSDOF 10
ENDMDL
MODEL 2
REMARK VINA RESULT:    -7.759      2.087      2.910
REMARK INTER + INTRA:         -14.429
REMARK INTER:                 -12.771
REMARK INTRA:                  -1.657
REMARK UNBOUND:                -2.134
REMARK  Name = 
REMARK  11 active torsions:
REMARK  status: ('A' for Active; 'I' for Inactive)
REMARK    1  A    between atoms: C_1  and  C_2
REMARK    2  A    between atoms: C_2  and  C_3
REMARK    3  A    between atoms: C_3  and  O_4
REMARK    4  A    between atoms: O_4  and  C_5
REMARK    5  A    between atoms: C_12  and  C_13
REMARK    6  A    between atoms: N_15  and  C_16
REMARK    7  A    between atoms: C_16  and  C_17
REMARK    8  A    between atoms: C_20  and  C_21
REMARK    9  A    between atoms: C_21  and  N_22
REMARK   10  A    between atoms: N_22  and  C_23
REMARK   11  A    between atoms: C_23  and  C_24
REMARK                            x       y       z     vdW  Elec       q    Type
REMARK                         _______ _______ _______ _____ _____    ______ ____
ROOT
ATOM     13  C   UNL     1      48.846   7.161  15.588  0.00  0.00    +0.000 C 
ATOM     14  O   UNL     1      49.902   6.539  15.483  0.00  0.00    +0.000 OA
ATOM     15  N   UNL     1      47.953   7.209  14.551  0.00  0.00    +0.000 N 
ATOM     33  H   UNL     1      47.103   7.751  14.634  0.00  0.00    +0.000 HD
ENDROOT
BRANCH  13  12
ATOM      5  C   UNL     1      48.305   6.102  18.827  0.00  0.00    +0.000 A 
ATOM      6  N   UNL     1      48.171   5.984  20.163  0.00  0.00    +0.000 NA
ATOM      7  C   UNL     1      47.979   7.096  20.877  0.00  0.00    +0.000 A 
ATOM      8  N   UNL     1      47.892   8.341  20.413  0.00  0.00    +0.000 NA
ATOM      9  C   UNL     1      48.062   8.417  19.084  0.00  0.00    +0.000 A 
ATOM     10  S   UNL     1      47.973   9.927  18.314  0.00  0.00    +0.000 S 
ATOM     11  C   UNL     1      48.301   9.230  16.801  0.00  0.00    +0.000 A 
ATOM     12  C   UNL     1      48.493   7.853  16.840  0.00  0.00    +0.000 A 
ATOM     32  C   UNL     1      48.303   7.363  18.205  0.00  0.00    +0.000 A 
BRANCH   5   4
ATOM      4  O   UNL     1      48.458   4.962  18.071  0.00  0.00    +0.000 OA
BRANCH   4   3
ATOM      3  C   UNL     1      47.256   4.406  17.530  0.00  0.00    +0.000 C 
BRANCH   3   2
ATOM      1  C   UNL     1      48.777   2.520  16.821  0.00  0.00    +0.000 C 
ATOM      2  C   UNL     1      47.625   3.426  16.424  0.00  0.00    +0.000 C 
ENDBRANCH   3   2
ENDBRANCH   4   3
ENDBRANCH   5   4
ENDBRANCH  13  12
BRANCH  15  16
ATOM     16  C   UNL     1      48.206   6.534  13.298  0.00  0.00    +0.000 C 
BRANCH  16  17
ATOM     17  C   UNL     1      46.939   5.938  12.739  0.00  0.00    +0.000 A 
ATOM     18  C   UNL     1      46.259   4.931  13.437  0.00  0.00    +0.000 A 
ATOM     19  C   UNL     1      45.137   4.312  12.879  0.00  0.00    +0.000 A 
ATOM     20  C   UNL     1      44.667   4.683  11.610  0.00  0.00    +0.000 A 
ATOM     30  C   UNL     1      45.331   5.711  10.926  0.00  0.00    +0.000 A 
ATOM     31  C   UNL     1      46.457   6.328  11.483  0.00  0.00    +0.000 A 
BRANCH  20  21
ATOM     21  C   UNL     1      43.521   3.936  10.964  0.00  0.00    +0.000 C 
BRANCH  21  22
ATOM     22  N   UNL     1      43.834   3.543   9.592  0.00  0.00    +0.000 NA
ATOM     34  H   UNL     1      44.350   4.295   9.138  0.00  0.00    +0.000 HD
BRANCH  22  23
ATOM     23  C   UNL     1      44.642   2.325   9.559  0.00  0.00    +0.000 C 
BRANCH  23  24
ATOM     24  C   UNL     1      45.610   2.344   8.396  0.00  0.00    +0.000 A 
ATOM     25  C   UNL     1      45.813   3.507   7.643  0.00  0.00    +0.000 A 
ATOM     26  C   UNL     1      46.721   3.518   6.581  0.00  0.00    +0.000 A 
ATOM     27  C   UNL     1      47.438   2.365   6.265  0.00  0.00    +0.000 A 
ATOM     28  C   UNL     1      47.248   1.201   7.007  0.00  0.00    +0.000 A 
ATOM     29  C   UNL     1      46.340   1.190   8.067  0.00  0.00    +0.000 A 
ENDBRANCH  23  24
ENDBRANCH  22  23
ENDBRANCH  21  22
ENDBRANCH  20  21
ENDBRANCH  16  17
ENDBRANCH  15  16
TORSDOF 10
ENDMDL
MODEL 3
REMARK VINA RESULT:    -7.740      1.761      2.536
REMARK INTER + INTRA:         -14.398
REMARK INTER:                 -12.717
REMARK INTRA:                  -1.681
REMARK UNBOUND:                -2.134
REMARK  Name = 
REMARK  11 active torsions:
REMARK  status: ('A' for Active; 'I' for Inactive)
REMARK    1  A    between atoms: C_1  and  C_2
REMARK    2  A    between atoms: C_2  and  C_3
REMARK    3  A    between atoms: C_3  and  O_4
REMARK    4  A    between atoms: O_4  and  C_5
REMARK    5  A    between atoms: C_12  and  C_13
REMARK    6  A    between atoms: N_15  and  C_16
REMARK    7  A    between atoms: C_16  and  C_17
REMARK    8  A    between atoms: C_20  and  C_21
REMARK    9  A    between atoms: C_21  and  N_22
REMARK   10  A    between atoms: N_22  and  C_23
REMARK   11  A    between atoms: C_23  and  C_24
REMARK                            x       y       z     vdW  Elec       q    Type
REMARK                         _______ _______ _______ _____ _____    ______ ____
ROOT
ATOM     13  C   UNL     1      49.167   6.934  15.519  0.00  0.00    +0.000 C 
ATOM     14  O   UNL     1      50.295   6.922  15.030  0.00  0.00    +0.000 OA
ATOM     15  N   UNL     1      48.059   6.750  14.735  0.00  0.00    +0.000 N 
ATOM     33  H   UNL     1      47.133   6.796  15.140  0.00  0.00    +0.000 HD
ENDROOT
BRANCH  13  12
ATOM      5  C   UNL     1      49.835   4.986  18.287  0.00  0.00    +0.000 A 
ATOM      6  N   UNL     1      50.099   4.502  19.517  0.00  0.00    +0.000 NA
ATOM      7  C   UNL     1      49.783   5.257  20.572  0.00  0.00    +0.000 A 
ATOM      8  N   UNL     1      49.214   6.460  20.554  0.00  0.00    +0.000 NA
ATOM      9  C   UNL     1      48.998   6.918  19.311  0.00  0.00    +0.000 A 
ATOM     10  S   UNL     1      48.269   8.435  19.094  0.00  0.00    +0.000 S 
ATOM     11  C   UNL     1      48.376   8.300  17.405  0.00  0.00    +0.000 A 
ATOM     12  C   UNL     1      48.969   7.120  16.967  0.00  0.00    +0.000 A 
ATOM     32  C   UNL     1      49.298   6.274  18.114  0.00  0.00    +0.000 A 
BRANCH   5   4
ATOM      4  O   UNL     1      50.112   4.202  17.191  0.00  0.00    +0.000 OA
BRANCH   4   3
ATOM      3  C   UNL     1      49.540   2.890  17.201  0.00  0.00    +0.000 C 
BRANCH   3   2
ATOM      1  C   UNL     1      47.033   3.176  17.256  0.00  0.00    +0.000 C 
ATOM      2  C   UNL     1      48.252   2.912  16.390  0.00  0.00    +0.000 C 
ENDBRANCH   3   2
ENDBRANCH   4   3
ENDBRANCH   5   4
ENDBRANCH  13  12
BRANCH  15  16
ATOM     16  C   UNL     1      48.164   6.531  13.311  0.00  0.00    +0.000 C 
BRANCH  16  17
ATOM     17  C   UNL     1      46.914   5.886  12.768  0.00  0.00    +0.000 A 
ATOM     18  C   UNL     1      46.290   4.844  13.467  0.00  0.00    +0.000 A 
ATOM     19  C   UNL     1      45.185   4.183  12.922  0.00  0.00    +0.000 A 
ATOM     20  C   UNL     1      44.676   4.547  11.667  0.00  0.00    +0.000 A 
ATOM     30  C   UNL     1      45.283   5.610  10.982  0.00  0.00    +0.000 A 
ATOM     31  C   UNL     1      46.392   6.268  11.525  0.00  0.00    +0.000 A 
BRANCH  20  21
ATOM     21  C   UNL     1      43.551   3.758  11.033  0.00  0.00    +0.000 C 
BRANCH  21  22
ATOM     22  N   UNL     1      43.818   3.465   9.627  0.00  0.00    +0.000 NA
ATOM     34  H   UNL     1      44.378   4.217   9.229  0.00  0.00    +0.000 HD
BRANCH  22  23
ATOM     23  C   UNL     1      44.540   2.202   9.475  0.00  0.00    +0.000 C 
BRANCH  23  24
ATOM     24  C   UNL     1      45.594   2.303   8.395  0.00  0.00    +0.000 A 
ATOM     25  C   UNL     1      46.415   1.213   8.080  0.00  0.00    +0.000 A 
ATOM     26  C   UNL     1      47.374   1.312   7.069  0.00  0.00    +0.000 A 
ATOM     27  C   UNL     1      47.519   2.503   6.360  0.00  0.00    +0.000 A 
ATOM     28  C   UNL     1      46.708   3.595   6.661  0.00  0.00    +0.000 A 
ATOM     29  C   UNL     1      45.750   3.497   7.672  0.00  0.00    +0.000 A 
ENDBRANCH  23  24
ENDBRANCH  22  23
ENDBRANCH  21  22
ENDBRANCH  20  21
ENDBRANCH  16  17
ENDBRANCH  15  16
TORSDOF 10
ENDMDL
MODEL 4
REMARK VINA RESULT:    -7.287      1.865      3.651
REMARK INTER + INTRA:         -13.681
REMARK INTER:                 -11.735
REMARK INTRA:                  -1.946
REMARK UNBOUND:                -2.134
REMARK  Name = 
REMARK  11 active torsions:
REMARK  status: ('A' for Active; 'I' for Inactive)
REMARK    1  A    between atoms: C_1  and  C_2
REMARK    2  A    between atoms: C_2  and  C_3
REMARK    3  A    between atoms: C_3  and  O_4
REMARK    4  A    between atoms: O_4  and  C_5
REMARK    5  A    between atoms: C_12  and  C_13
REMARK    6  A    between atoms: N_15  and  C_16
REMARK    7  A    between atoms: C_16  and  C_17
REMARK    8  A    between atoms: C_20  and  C_21
REMARK    9  A    between atoms: C_21  and  N_22
REMARK   10  A    between atoms: N_22  and  C_23
REMARK   11  A    between atoms: C_23  and  C_24
REMARK                            x       y       z     vdW  Elec       q    Type
REMARK                         _______ _______ _______ _____ _____    ______ ____
ROOT
ATOM     13  C   UNL     1      48.448   5.171  16.528  0.00  0.00    +0.000 C 
ATOM     14  O   UNL     1      49.115   4.181  16.822  0.00  0.00    +0.000 OA
ATOM     15  N   UNL     1      47.500   5.114  15.542  0.00  0.00    +0.000 N 
ATOM     33  H   UNL     1      46.980   5.942  15.284  0.00  0.00    +0.000 HD
ENDROOT
BRANCH  13  12
ATOM      5  C   UNL     1      48.774   8.454  15.516  0.00  0.00    +0.000 A 
ATOM      6  N   UNL     1      48.793   9.797  15.409  0.00  0.00    +0.000 NA
ATOM      7  C   UNL     1      48.825  10.519  16.532  0.00  0.00    +0.000 A 
ATOM      8  N   UNL     1      48.851  10.056  17.780  0.00  0.00    +0.000 NA
ATOM      9  C   UNL     1      48.798   8.716  17.843  0.00  0.00    +0.000 A 
ATOM     10  S   UNL     1      48.832   7.947  19.356  0.00  0.00    +0.000 S 
ATOM     11  C   UNL     1      48.705   6.415  18.634  0.00  0.00    +0.000 A 
ATOM     12  C   UNL     1      48.625   6.446  17.246  0.00  0.00    +0.000 A 
ATOM     32  C   UNL     1      48.728   7.826  16.773  0.00  0.00    +0.000 A 
BRANCH   5   4
ATOM      4  O   UNL     1      48.787   7.696  14.368  0.00  0.00    +0.000 OA
BRANCH   4   3
ATOM      3  C   UNL     1      49.982   7.770  13.584  0.00  0.00    +0.000 C 
BRANCH   3   2
ATOM      1  C   UNL     1      48.226   8.368  11.871  0.00  0.00    +0.000 C 
ATOM      2  C   UNL     1      49.600   7.767  12.109  0.00  0.00    +0.000 C 
ENDBRANCH   3   2
ENDBRANCH   4   3
ENDBRANCH   5   4
ENDBRANCH  13  12
BRANCH  15  16
ATOM     16  C   UNL     1      47.240   3.896  14.808  0.00  0.00    +0.000 C 
BRANCH  16  17
ATOM     17  C   UNL     1      46.398   4.168  13.588  0.00  0.00    +0.000 A 
ATOM     18  C   UNL     1      46.188   5.480  13.147  0.00  0.00    +0.000 A 
ATOM     19  C   UNL     1      45.334   5.742  12.071  0.00  0.00    +0.000 A 
ATOM     20  C   UNL     1      44.670   4.699  11.410  0.00  0.00    +0.000 A 
ATOM     30  C   UNL     1      44.905   3.383  11.833  0.00  0.00    +0.000 A 
ATOM     31  C   UNL     1      45.756   3.121  12.912  0.00  0.00    +0.000 A 
BRANCH  20  21
ATOM     21  C   UNL     1      43.664   4.994  10.319  0.00  0.00    +0.000 C 
BRANCH  21  22
ATOM     22  N   UNL     1      43.963   4.260   9.092  0.00  0.00    +0.000 NA
ATOM     34  H   UNL     1      43.267   4.492   8.385  0.00  0.00    +0.000 HD
BRANCH  22  23
ATOM     23  C   UNL     1      45.291   4.597   8.581  0.00  0.00    +0.000 C 
BRANCH  23  24
ATOM     24  C   UNL     1      45.964   3.386   7.971  0.00  0.00    +0.000 A 
ATOM     25  C   UNL     1      45.774   2.107   8.508  0.00  0.00    +0.000 A 
ATOM     26  C   UNL     1      46.387   0.993   7.928  0.00  0.00    +0.000 A 
ATOM     27  C   UNL     1      47.192   1.149   6.801  0.00  0.00    +0.000 A 
ATOM     28  C   UNL     1      47.388   2.416   6.254  0.00  0.00    +0.000 A 
ATOM     29  C   UNL     1      46.776   3.529   6.835  0.00  0.00    +0.000 A 
ENDBRANCH  23  24
ENDBRANCH  22  23
ENDBRANCH  21  22
ENDBRANCH  20  21
ENDBRANCH  16  17
ENDBRANCH  15  16
TORSDOF 10
ENDMDL
MODEL 5
REMARK VINA RESULT:    -7.147      1.908      2.722
REMARK INTER + INTRA:         -13.458
REMARK INTER:                 -11.805
REMARK INTRA:                  -1.653
REMARK UNBOUND:                -2.134
REMARK  Name = 
REMARK  11 active torsions:
REMARK  status: ('A' for Active; 'I' for Inactive)
REMARK    1  A    between atoms: C_1  and  C_2
REMARK    2  A    between atoms: C_2  and  C_3
REMARK    3  A    between atoms: C_3  and  O_4
REMARK    4  A    between atoms: O_4  and  C_5
REMARK    5  A    between atoms: C_12  and  C_13
REMARK    6  A    between atoms: N_15  and  C_16
REMARK    7  A    between atoms: C_16  and  C_17
REMARK    8  A    between atoms: C_20  and  C_21
REMARK    9  A    between atoms: C_21  and  N_22
REMARK   10  A    between atoms: N_22  and  C_23
REMARK   11  A    between atoms: C_23  and  C_24
REMARK                            x       y       z     vdW  Elec       q    Type
REMARK                         _______ _______ _______ _____ _____    ______ ____
ROOT
ATOM     13  C   UNL     1      49.562   7.823  14.994  0.00  0.00    +0.000 C 
ATOM     14  O   UNL     1      49.062   8.863  15.418  0.00  0.00    +0.000 OA
ATOM     15  N   UNL     1      49.034   7.181  13.906  0.00  0.00    +0.000 N 
ATOM     33  H   UNL     1      49.432   6.308  13.585  0.00  0.00    +0.000 HD
ENDROOT
BRANCH  13  12
ATOM      5  C   UNL     1      50.063   5.494  17.491  0.00  0.00    +0.000 A 
ATOM      6  N   UNL     1      50.536   4.546  18.324  0.00  0.00    +0.000 NA
ATOM      7  C   UNL     1      51.858   4.365  18.386  0.00  0.00    +0.000 A 
ATOM      8  N   UNL     1      52.791   5.033  17.711  0.00  0.00    +0.000 NA
ATOM      9  C   UNL     1      52.276   5.945  16.871  0.00  0.00    +0.000 A 
ATOM     10  S   UNL     1      53.319   6.902  15.935  0.00  0.00    +0.000 S 
ATOM     11  C   UNL     1      52.010   7.689  15.193  0.00  0.00    +0.000 A 
ATOM     12  C   UNL     1      50.764   7.246  15.624  0.00  0.00    +0.000 A 
ATOM     32  C   UNL     1      50.929   6.232  16.664  0.00  0.00    +0.000 A 
BRANCH   5   4
ATOM      4  O   UNL     1      48.707   5.725  17.448  0.00  0.00    +0.000 OA
BRANCH   4   3
ATOM      3  C   UNL     1      47.886   4.736  18.078  0.00  0.00    +0.000 C 
BRANCH   3   2
ATOM      1  C   UNL     1      47.949   2.905  16.341  0.00  0.00    +0.000 C 
ATOM      2  C   UNL     1      47.112   3.986  17.002  0.00  0.00    +0.000 C 
ENDBRANCH   3   2
ENDBRANCH   4   3
ENDBRANCH   5   4
ENDBRANCH  13  12
BRANCH  15  16
ATOM     16  C   UNL     1      47.876   7.693  13.210  0.00  0.00    +0.000 C 
BRANCH  16  17
ATOM     17  C   UNL     1      47.004   6.569  12.710  0.00  0.00    +0.000 A 
ATOM     18  C   UNL     1      46.470   6.606  11.415  0.00  0.00    +0.000 A 
ATOM     19  C   UNL     1      45.588   5.612  10.980  0.00  0.00    +0.000 A 
ATOM     20  C   UNL     1      45.217   4.559  11.828  0.00  0.00    +0.000 A 
ATOM     30  C   UNL     1      45.775   4.507  13.114  0.00  0.00    +0.000 A 
ATOM     31  C   UNL     1      46.654   5.504  13.551  0.00  0.00    +0.000 A 
BRANCH  20  21
ATOM     21  C   UNL     1      44.178   3.548  11.393  0.00  0.00    +0.000 C 
BRANCH  21  22
ATOM     22  N   UNL     1      44.089   3.455   9.938  0.00  0.00    +0.000 NA
ATOM     34  H   UNL     1      44.679   4.171   9.520  0.00  0.00    +0.000 HD
BRANCH  22  23
ATOM     23  C   UNL     1      44.524   2.142   9.462  0.00  0.00    +0.000 C 
BRANCH  23  24
ATOM     24  C   UNL     1      45.605   2.274   8.411  0.00  0.00    +0.000 A 
ATOM     25  C   UNL     1      46.411   1.183   8.062  0.00  0.00    +0.000 A 
ATOM     26  C   UNL     1      47.396   1.311   7.079  0.00  0.00    +0.000 A 
ATOM     27  C   UNL     1      47.580   2.533   6.432  0.00  0.00    +0.000 A 
ATOM     28  C   UNL     1      46.784   3.626   6.768  0.00  0.00    +0.000 A 
ATOM     29  C   UNL     1      45.800   3.497   7.751  0.00  0.00    +0.000 A 
ENDBRANCH  23  24
ENDBRANCH  22  23
ENDBRANCH  21  22
ENDBRANCH  20  21
ENDBRANCH  16  17
ENDBRANCH  15  16
TORSDOF 10
ENDMDL
MODEL 6
REMARK VINA RESULT:    -7.118      2.371      3.276
REMARK INTER + INTRA:         -13.414
REMARK INTER:                 -11.646
REMARK INTRA:                  -1.768
REMARK UNBOUND:                -2.134
REMARK  Name = 
REMARK  11 active torsions:
REMARK  status: ('A' for Active; 'I' for Inactive)
REMARK    1  A    between atoms: C_1  and  C_2
REMARK    2  A    between atoms: C_2  and  C_3
REMARK    3  A    between atoms: C_3  and  O_4
REMARK    4  A    between atoms: O_4  and  C_5
REMARK    5  A    between atoms: C_12  and  C_13
REMARK    6  A    between atoms: N_15  and  C_16
REMARK    7  A    between atoms: C_16  and  C_17
REMARK    8  A    between atoms: C_20  and  C_21
REMARK    9  A    between atoms: C_21  and  N_22
REMARK   10  A    between atoms: N_22  and  C_23
REMARK   11  A    between atoms: C_23  and  C_24
REMARK                            x       y       z     vdW  Elec       q    Type
REMARK                         _______ _______ _______ _____ _____    ______ ____
ROOT
ATOM     13  C   UNL     1      50.431   6.291  17.126  0.00  0.00    +0.000 C 
ATOM     14  O   UNL     1      50.177   7.218  17.894  0.00  0.00    +0.000 OA
ATOM     15  N   UNL     1      49.862   6.232  15.882  0.00  0.00    +0.000 N 
ATOM     33  H   UNL     1      50.051   5.448  15.271  0.00  0.00    +0.000 HD
ENDROOT
BRANCH  13  12
ATOM      5  C   UNL     1      50.260   2.844  17.148  0.00  0.00    +0.000 A 
ATOM      6  N   UNL     1      50.507   1.519  17.138  0.00  0.00    +0.000 NA
ATOM      7  C   UNL     1      51.723   1.102  17.499  0.00  0.00    +0.000 A 
ATOM      8  N   UNL     1      52.747   1.859  17.887  0.00  0.00    +0.000 NA
ATOM      9  C   UNL     1      52.469   3.172  17.853  0.00  0.00    +0.000 A 
ATOM     10  S   UNL     1      53.656   4.289  18.326  0.00  0.00    +0.000 S 
ATOM     11  C   UNL     1      52.626   5.598  17.991  0.00  0.00    +0.000 A 
ATOM     12  C   UNL     1      51.375   5.226  17.508  0.00  0.00    +0.000 A 
ATOM     32  C   UNL     1      51.270   3.768  17.471  0.00  0.00    +0.000 A 
BRANCH   5   4
ATOM      4  O   UNL     1      48.999   3.288  16.823  0.00  0.00    +0.000 OA
BRANCH   4   3
ATOM      3  C   UNL     1      48.052   3.317  17.895  0.00  0.00    +0.000 C 
BRANCH   3   2
ATOM      1  C   UNL     1      47.261   5.531  18.815  0.00  0.00    +0.000 C 
ATOM      2  C   UNL     1      47.127   4.511  17.698  0.00  0.00    +0.000 C 
ENDBRANCH   3   2
ENDBRANCH   4   3
ENDBRANCH   5   4
ENDBRANCH  13  12
BRANCH  15  16
ATOM     16  C   UNL     1      48.949   7.250  15.415  0.00  0.00    +0.000 C 
BRANCH  16  17
ATOM     17  C   UNL     1      48.159   6.765  14.226  0.00  0.00    +0.000 A 
ATOM     18  C   UNL     1      48.196   7.467  13.014  0.00  0.00    +0.000 A 
ATOM     19  C   UNL     1      47.395   7.072  11.938  0.00  0.00    +0.000 A 
ATOM     20  C   UNL     1      46.537   5.968  12.048  0.00  0.00    +0.000 A 
ATOM     30  C   UNL     1      46.523   5.249  13.251  0.00  0.00    +0.000 A 
ATOM     31  C   UNL     1      47.322   5.646  14.329  0.00  0.00    +0.000 A 
BRANCH  20  21
ATOM     21  C   UNL     1      45.592   5.612  10.921  0.00  0.00    +0.000 C 
BRANCH  21  22
ATOM     22  N   UNL     1      45.251   4.191  10.928  0.00  0.00    +0.000 NA
ATOM     34  H   UNL     1      44.683   3.987  11.748  0.00  0.00    +0.000 HD
BRANCH  22  23
ATOM     23  C   UNL     1      44.504   3.818   9.726  0.00  0.00    +0.000 C 
BRANCH  23  24
ATOM     24  C   UNL     1      45.402   3.138   8.716  0.00  0.00    +0.000 A 
ATOM     25  C   UNL     1      45.646   1.760   8.777  0.00  0.00    +0.000 A 
ATOM     26  C   UNL     1      46.464   1.138   7.830  0.00  0.00    +0.000 A 
ATOM     27  C   UNL     1      47.043   1.890   6.809  0.00  0.00    +0.000 A 
ATOM     28  C   UNL     1      46.807   3.262   6.734  0.00  0.00    +0.000 A 
ATOM     29  C   UNL     1      45.991   3.882   7.682  0.00  0.00    +0.000 A 
ENDBRANCH  23  24
ENDBRANCH  22  23
ENDBRANCH  21  22
ENDBRANCH  20  21
ENDBRANCH  16  17
ENDBRANCH  15  16
TORSDOF 10
ENDMDL
MODEL 7
REMARK VINA RESULT:    -7.073      2.237      3.632
REMARK INTER + INTRA:         -13.342
REMARK INTER:                 -11.786
REMARK INTRA:                  -1.555
REMARK UNBOUND:                -2.134
REMARK  Name = 
REMARK  11 active torsions:
REMARK  status: ('A' for Active; 'I' for Inactive)
REMARK    1  A    between atoms: C_1  and  C_2
REMARK    2  A    between atoms: C_2  and  C_3
REMARK    3  A    between atoms: C_3  and  O_4
REMARK    4  A    between atoms: O_4  and  C_5
REMARK    5  A    between atoms: C_12  and  C_13
REMARK    6  A    between atoms: N_15  and  C_16
REMARK    7  A    between atoms: C_16  and  C_17
REMARK    8  A    between atoms: C_20  and  C_21
REMARK    9  A    between atoms: C_21  and  N_22
REMARK   10  A    between atoms: N_22  and  C_23
REMARK   11  A    between atoms: C_23  and  C_24
REMARK                            x       y       z     vdW  Elec       q    Type
REMARK                         _______ _______ _______ _____ _____    ______ ____
ROOT
ATOM     13  C   UNL     1      48.965   6.542  15.774  0.00  0.00    +0.000 C 
ATOM     14  O   UNL     1      49.971   7.107  15.345  0.00  0.00    +0.000 OA
ATOM     15  N   UNL     1      47.903   6.278  14.952  0.00  0.00    +0.000 N 
ATOM     33  H   UNL     1      47.067   5.844  15.321  0.00  0.00    +0.000 HD
ENDROOT
BRANCH  13  12
ATOM      5  C   UNL     1      47.931   8.072  18.689  0.00  0.00    +0.000 A 
ATOM      6  N   UNL     1      47.478   8.374  19.922  0.00  0.00    +0.000 NA
ATOM      7  C   UNL     1      47.544   7.431  20.865  0.00  0.00    +0.000 A 
ATOM      8  N   UNL     1      48.025   6.197  20.731  0.00  0.00    +0.000 NA
ATOM      9  C   UNL     1      48.435   5.927  19.482  0.00  0.00    +0.000 A 
ATOM     10  S   UNL     1      49.089   4.402  19.127  0.00  0.00    +0.000 S 
ATOM     11  C   UNL     1      49.303   4.819  17.495  0.00  0.00    +0.000 A 
ATOM     12  C   UNL     1      48.881   6.106  17.179  0.00  0.00    +0.000 A 
ATOM     32  C   UNL     1      48.403   6.783  18.384  0.00  0.00    +0.000 A 
BRANCH   5   4
ATOM      4  O   UNL     1      47.913   9.046  17.717  0.00  0.00    +0.000 OA
BRANCH   4   3
ATOM      3  C   UNL     1      48.716  10.202  17.978  0.00  0.00    +0.000 C 
BRANCH   3   2
ATOM      1  C   UNL     1      50.467  10.646  16.215  0.00  0.00    +0.000 C 
ATOM      2  C   UNL     1      50.138   9.925  17.509  0.00  0.00    +0.000 C 
ENDBRANCH   3   2
ENDBRANCH   4   3
ENDBRANCH   5   4
ENDBRANCH  13  12
BRANCH  15  16
ATOM     16  C   UNL     1      47.914   6.644  13.554  0.00  0.00    +0.000 C 
BRANCH  16  17
ATOM     17  C   UNL     1      46.836   5.914  12.794  0.00  0.00    +0.000 A 
ATOM     18  C   UNL     1      46.452   6.341  11.516  0.00  0.00    +0.000 A 
ATOM     19  C   UNL     1      45.391   5.723  10.847  0.00  0.00    +0.000 A 
ATOM     20  C   UNL     1      44.688   4.664  11.439  0.00  0.00    +0.000 A 
ATOM     30  C   UNL     1      45.092   4.217  12.705  0.00  0.00    +0.000 A 
ATOM     31  C   UNL     1      46.151   4.839  13.377  0.00  0.00    +0.000 A 
BRANCH  20  21
ATOM     21  C   UNL     1      43.472   4.072  10.760  0.00  0.00    +0.000 C 
BRANCH  21  22
ATOM     22  N   UNL     1      43.789   3.564   9.427  0.00  0.00    +0.000 NA
ATOM     34  H   UNL     1      44.255   4.294   8.893  0.00  0.00    +0.000 HD
BRANCH  22  23
ATOM     23  C   UNL     1      44.664   2.394   9.499  0.00  0.00    +0.000 C 
BRANCH  23  24
ATOM     24  C   UNL     1      45.675   2.400   8.373  0.00  0.00    +0.000 A 
ATOM     25  C   UNL     1      46.393   1.245   8.039  0.00  0.00    +0.000 A 
ATOM     26  C   UNL     1      47.313   1.258   6.988  0.00  0.00    +0.000 A 
ATOM     27  C   UNL     1      47.521   2.427   6.257  0.00  0.00    +0.000 A 
ATOM     28  C   UNL     1      46.812   3.583   6.577  0.00  0.00    +0.000 A 
ATOM     29  C   UNL     1      45.893   3.570   7.628  0.00  0.00    +0.000 A 
ENDBRANCH  23  24
ENDBRANCH  22  23
ENDBRANCH  21  22
ENDBRANCH  20  21
ENDBRANCH  16  17
ENDBRANCH  15  16
TORSDOF 10
ENDMDL
MODEL 8
REMARK VINA RESULT:    -6.772      2.398      3.964
REMARK INTER + INTRA:         -12.865
REMARK INTER:                 -11.300
REMARK INTRA:                  -1.565
REMARK UNBOUND:                -2.134
REMARK  Name = 
REMARK  11 active torsions:
REMARK  status: ('A' for Active; 'I' for Inactive)
REMARK    1  A    between atoms: C_1  and  C_2
REMARK    2  A    between atoms: C_2  and  C_3
REMARK    3  A    between atoms: C_3  and  O_4
REMARK    4  A    between atoms: O_4  and  C_5
REMARK    5  A    between atoms: C_12  and  C_13
REMARK    6  A    between atoms: N_15  and  C_16
REMARK    7  A    between atoms: C_16  and  C_17
REMARK    8  A    between atoms: C_20  and  C_21
REMARK    9  A    between atoms: C_21  and  N_22
REMARK   10  A    between atoms: N_22  and  C_23
REMARK   11  A    between atoms: C_23  and  C_24
REMARK                            x       y       z     vdW  Elec       q    Type
REMARK                         _______ _______ _______ _____ _____    ______ ____
ROOT
ATOM     13  C   UNL     1      48.612   7.047  14.348  0.00  0.00    +0.000 C 
ATOM     14  O   UNL     1      49.267   6.605  13.406  0.00  0.00    +0.000 OA
ATOM     15  N   UNL     1      47.716   6.256  15.015  0.00  0.00    +0.000 N 
ATOM     33  H   UNL     1      47.157   6.638  15.767  0.00  0.00    +0.000 HD
ENDROOT
BRANCH  13  12
ATOM      5  C   UNL     1      48.985   8.497  17.458  0.00  0.00    +0.000 A 
ATOM      6  N   UNL     1      49.271   9.292  18.508  0.00  0.00    +0.000 NA
ATOM      7  C   UNL     1      49.490  10.588  18.276  0.00  0.00    +0.000 A 
ATOM      8  N   UNL     1      49.450  11.209  17.099  0.00  0.00    +0.000 NA
ATOM      9  C   UNL     1      49.193  10.377  16.077  0.00  0.00    +0.000 A 
ATOM     10  S   UNL     1      49.093  10.996  14.500  0.00  0.00    +0.000 S 
ATOM     11  C   UNL     1      48.807   9.449  13.859  0.00  0.00    +0.000 A 
ATOM     12  C   UNL     1      48.790   8.435  14.811  0.00  0.00    +0.000 A 
ATOM     32  C   UNL     1      48.976   9.003  16.146  0.00  0.00    +0.000 A 
BRANCH   5   4
ATOM      4  O   UNL     1      48.712   7.168  17.685  0.00  0.00    +0.000 OA
BRANCH   4   3
ATOM      3  C   UNL     1      48.014   6.873  18.899  0.00  0.00    +0.000 C 
BRANCH   3   2
ATOM      1  C   UNL     1      47.927   4.406  18.368  0.00  0.00    +0.000 C 
ATOM      2  C   UNL     1      47.123   5.659  18.668  0.00  0.00    +0.000 C 
ENDBRANCH   3   2
ENDBRANCH   4   3
ENDBRANCH   5   4
ENDBRANCH  13  12
BRANCH  15  16
ATOM     16  C   UNL     1      47.501   4.875  14.647  0.00  0.00    +0.000 C 
BRANCH  16  17
ATOM     17  C   UNL     1      46.380   4.748  13.648  0.00  0.00    +0.000 A 
ATOM     18  C   UNL     1      46.106   3.516  13.038  0.00  0.00    +0.000 A 
ATOM     19  C   UNL     1      45.128   3.415  12.044  0.00  0.00    +0.000 A 
ATOM     20  C   UNL     1      44.400   4.542  11.635  0.00  0.00    +0.000 A 
ATOM     30  C   UNL     1      44.653   5.768  12.268  0.00  0.00    +0.000 A 
ATOM     31  C   UNL     1      45.636   5.870  13.259  0.00  0.00    +0.000 A 
BRANCH  20  21
ATOM     21  C   UNL     1      43.421   4.451  10.485  0.00  0.00    +0.000 C 
BRANCH  21  22
ATOM     22  N   UNL     1      43.858   3.489   9.476  0.00  0.00    +0.000 NA
ATOM     34  H   UNL     1      43.040   3.089   9.019  0.00  0.00    +0.000 HD
BRANCH  22  23
ATOM     23  C   UNL     1      44.704   4.125   8.466  0.00  0.00    +0.000 C 
BRANCH  23  24
ATOM     24  C   UNL     1      45.691   3.138   7.882  0.00  0.00    +0.000 A 
ATOM     25  C   UNL     1      45.802   1.838   8.393  0.00  0.00    +0.000 A 
ATOM     26  C   UNL     1      46.706   0.929   7.836  0.00  0.00    +0.000 A 
ATOM     27  C   UNL     1      47.504   1.311   6.759  0.00  0.00    +0.000 A 
ATOM     28  C   UNL     1      47.402   2.600   6.239  0.00  0.00    +0.000 A 
ATOM     29  C   UNL     1      46.500   3.509   6.796  0.00  0.00    +0.000 A 
ENDBRANCH  23  24
ENDBRANCH  22  23
ENDBRANCH  21  22
ENDBRANCH  20  21
ENDBRANCH  16  17
ENDBRANCH  15  16
TORSDOF 10
ENDMDL
MODEL 9
REMARK VINA RESULT:    -6.300      2.599      4.025
REMARK INTER + INTRA:         -12.116
REMARK INTER:                 -10.791
REMARK INTRA:                  -1.325
REMARK UNBOUND:                -2.134
REMARK  Name = 
REMARK  11 active torsions:
REMARK  status: ('A' for Active; 'I' for Inactive)
REMARK    1  A    between atoms: C_1  and  C_2
REMARK    2  A    between atoms: C_2  and  C_3
REMARK    3  A    between atoms: C_3  and  O_4
REMARK    4  A    between atoms: O_4  and  C_5
REMARK    5  A    between atoms: C_12  and  C_13
REMARK    6  A    between atoms: N_15  and  C_16
REMARK    7  A    between atoms: C_16  and  C_17
REMARK    8  A    between atoms: C_20  and  C_21
REMARK    9  A    between atoms: C_21  and  N_22
REMARK   10  A    between atoms: N_22  and  C_23
REMARK   11  A    between atoms: C_23  and  C_24
REMARK                            x       y       z     vdW  Elec       q    Type
REMARK                         _______ _______ _______ _____ _____    ______ ____
ROOT
ATOM     13  C   UNL     1      48.958   6.802  16.034  0.00  0.00    +0.000 C 
ATOM     14  O   UNL     1      49.972   6.473  15.421  0.00  0.00    +0.000 OA
ATOM     15  N   UNL     1      47.826   6.033  15.986  0.00  0.00    +0.000 N 
ATOM     33  H   UNL     1      46.986   6.330  16.466  0.00  0.00    +0.000 HD
ENDROOT
BRANCH  13  12
ATOM      5  C   UNL     1      49.977   7.521  19.251  0.00  0.00    +0.000 A 
ATOM      6  N   UNL     1      50.393   8.095  20.397  0.00  0.00    +0.000 NA
ATOM      7  C   UNL     1      50.198   9.407  20.551  0.00  0.00    +0.000 A 
ATOM      8  N   UNL     1      49.618  10.237  19.688  0.00  0.00    +0.000 NA
ATOM      9  C   UNL     1      49.248   9.632  18.548  0.00  0.00    +0.000 A 
ATOM     10  S   UNL     1      48.480  10.535  17.333  0.00  0.00    +0.000 S 
ATOM     11  C   UNL     1      48.385   9.177  16.317  0.00  0.00    +0.000 A 
ATOM     12  C   UNL     1      48.934   8.021  16.862  0.00  0.00    +0.000 A 
ATOM     32  C   UNL     1      49.409   8.288  18.219  0.00  0.00    +0.000 A 
BRANCH   5   4
ATOM      4  O   UNL     1      50.129   6.162  19.095  0.00  0.00    +0.000 OA
BRANCH   4   3
ATOM      3  C   UNL     1      51.452   5.715  18.779  0.00  0.00    +0.000 C 
BRANCH   3   2
ATOM      1  C   UNL     1      50.108   3.772  17.888  0.00  0.00    +0.000 C 
ATOM      2  C   UNL     1      51.413   4.213  18.527  0.00  0.00    +0.000 C 
ENDBRANCH   3   2
ENDBRANCH   4   3
ENDBRANCH   5   4
ENDBRANCH  13  12
BRANCH  15  16
ATOM     16  C   UNL     1      47.772   4.807  15.223  0.00  0.00    +0.000 C 
BRANCH  16  17
ATOM     17  C   UNL     1      47.057   5.015  13.912  0.00  0.00    +0.000 A 
ATOM     18  C   UNL     1      47.409   6.079  13.071  0.00  0.00    +0.000 A 
ATOM     19  C   UNL     1      46.688   6.329  11.900  0.00  0.00    +0.000 A 
ATOM     20  C   UNL     1      45.598   5.523  11.541  0.00  0.00    +0.000 A 
ATOM     30  C   UNL     1      45.266   4.441  12.367  0.00  0.00    +0.000 A 
ATOM     31  C   UNL     1      45.985   4.193  13.542  0.00  0.00    +0.000 A 
BRANCH  20  21
ATOM     21  C   UNL     1      44.754   5.863  10.332  0.00  0.00    +0.000 C 
BRANCH  21  22
ATOM     22  N   UNL     1      45.299   5.282   9.108  0.00  0.00    +0.000 NA
ATOM     34  H   UNL     1      46.305   5.160   9.214  0.00  0.00    +0.000 HD
BRANCH  22  23
ATOM     23  C   UNL     1      44.691   3.983   8.819  0.00  0.00    +0.000 C 
BRANCH  23  24
ATOM     24  C   UNL     1      45.667   3.069   8.112  0.00  0.00    +0.000 A 
ATOM     25  C   UNL     1      45.776   1.717   8.461  0.00  0.00    +0.000 A 
ATOM     26  C   UNL     1      46.669   0.878   7.791  0.00  0.00    +0.000 A 
ATOM     27  C   UNL     1      47.460   1.383   6.760  0.00  0.00    +0.000 A 
ATOM     28  C   UNL     1      47.361   2.725   6.400  0.00  0.00    +0.000 A 
ATOM     29  C   UNL     1      46.469   3.564   7.071  0.00  0.00    +0.000 A 
ENDBRANCH  23  24
ENDBRANCH  22  23
ENDBRANCH  21  22
ENDBRANCH  20  21
ENDBRANCH  16  17
ENDBRANCH  15  16
TORSDOF 10
ENDMDL
