MODEL 1
REMARK VINA RESULT:    -8.677      0.000      0.000
REMARK INTER + INTRA:         -11.428
REMARK INTER:                 -10.706
REMARK INTRA:                  -0.722
REMARK UNBOUND:                -0.722
REMARK  Name = 
REMARK  4 active torsions:
REMARK  status: ('A' for Active; 'I' for Inactive)
REMARK    1  A    between atoms: C_2  and  C_4
REMARK    2  A    between atoms: N_8  and  C_9
REMARK    3  A    between atoms: C_9  and  C_10
REMARK    4  A    between atoms: C_14  and  N_15
REMARK                            x       y       z     vdW  Elec       q    Type
REMARK                         _______ _______ _______ _____ _____    ______ ____
ROOT
ATOM      9  C   UNL     1      43.490   4.754  11.110  0.00  0.00    +0.000 C 
ENDROOT
BRANCH   9   8
ATOM      4  C   UNL     1      46.426   2.333   7.677  0.00  0.00    +0.000 A 
ATOM      5  C   UNL     1      45.642   1.807   8.697  0.00  0.00    +0.000 A 
ATOM      6  C   UNL     1      44.804   2.658   9.417  0.00  0.00    +0.000 A 
ATOM      7  C   UNL     1      44.777   4.018   9.125  0.00  0.00    +0.000 A 
ATOM      8  N   UNL     1      43.926   4.905   9.737  0.00  0.00    +0.000 N 
ATOM     22  N   UNL     1      45.543   4.536   8.143  0.00  0.00    +0.000 NA
ATOM     23  C   UNL     1      46.354   3.696   7.449  0.00  0.00    +0.000 A 
ATOM     26  H   UNL     1      44.162   5.846   9.440  0.00  0.00    +0.000 HD
BRANCH   4   2
ATOM      1  N   UNL     1      48.442   2.091   6.348  0.00  0.00    +0.000 N 
ATOM      2  C   UNL     1      47.321   1.493   6.855  0.00  0.00    +0.000 C 
ATOM      3  O   UNL     1      47.090   0.306   6.662  0.00  0.00    +0.000 OA
ATOM     24  H   UNL     1      49.097   1.488   5.866  0.00  0.00    +0.000 HD
ATOM     25  H   UNL     1      48.790   2.976   6.691  0.00  0.00    +0.000 HD
ENDBRANCH   4   2
ENDBRANCH   9   8
BRANCH   9  10
ATOM     10  C   UNL     1      44.596   4.938  12.120  0.00  0.00    +0.000 A 
ATOM     11  C   UNL     1      45.183   3.830  12.744  0.00  0.00    +0.000 A 
ATOM     12  C   UNL     1      46.320   3.993  13.525  0.00  0.00    +0.000 A 
ATOM     13  C   UNL     1      46.896   5.256  13.668  0.00  0.00    +0.000 A 
ATOM     14  C   UNL     1      46.340   6.394  13.064  0.00  0.00    +0.000 A 
ATOM     21  C   UNL     1      45.158   6.213  12.329  0.00  0.00    +0.000 A 
BRANCH  14  15
ATOM     15  N   UNL     1      46.959   7.624  13.128  0.00  0.00    +0.000 N 
ATOM     16  C   UNL     1      46.189   8.872  13.183  0.00  0.00    +0.000 C 
ATOM     17  C   UNL     1      46.573   9.798  12.010  0.00  0.00    +0.000 C 
ATOM     18  N   UNL     1      48.027  10.060  11.931  0.00  0.00    +0.000 NA
ATOM     19  C   UNL     1      48.733   8.761  11.833  0.00  0.00    +0.000 C 
ATOM     20  C   UNL     1      48.411   7.775  12.987  0.00  0.00    +0.000 C 
ATOM     27  H   UNL     1      48.311  10.505  12.804  0.00  0.00    +0.000 HD
ENDBRANCH  14  15
ENDBRANCH   9  10
TORSDOF 4
ENDMDL
MODEL 2
REMARK VINA RESULT:    -7.995      1.729      3.007
REMARK INTER + INTRA:         -10.586
REMARK INTER:                  -9.883
REMARK INTRA:                  -0.703
REMARK UNBOUND:                -0.722
REMARK  Name = 
REMARK  4 active torsions:
REMARK  status: ('A' for Active; 'I' for Inactive)
REMARK    1  A    between atoms: C_2  and  C_4
REMARK    2  A    between atoms: N_8  and  C_9
REMARK    3  A    between atoms: C_9  and  C_10
REMARK    4  A    between atoms: C_14  and  N_15
REMARK                            x       y       z     vdW  Elec       q    Type
REMARK                         _______ _______ _______ _____ _____    ______ ____
ROOT
ATOM      9  C   UNL     1      43.639   5.319  10.905  0.00  0.00    +0.000 C 
ENDROOT
BRANCH   9   8
ATOM      4  C   UNL     1      46.251   2.063   7.931  0.00  0.00    +0.000 A 
ATOM      5  C   UNL     1      45.612   1.834   9.144  0.00  0.00    +0.000 A 
ATOM      6  C   UNL     1      44.830   2.845   9.701  0.00  0.00    +0.000 A 
ATOM      7  C   UNL     1      44.716   4.072   9.055  0.00  0.00    +0.000 A 
ATOM      8  N   UNL     1      43.907   5.088   9.501  0.00  0.00    +0.000 N 
ATOM     22  N   UNL     1      45.341   4.304   7.882  0.00  0.00    +0.000 NA
ATOM     23  C   UNL     1      46.099   3.309   7.350  0.00  0.00    +0.000 A 
ATOM     26  H   UNL     1      44.069   5.912   8.932  0.00  0.00    +0.000 HD
BRANCH   4   2
ATOM      1  N   UNL     1      46.813  -0.271   7.576  0.00  0.00    +0.000 N 
ATOM      2  C   UNL     1      47.078   1.035   7.267  0.00  0.00    +0.000 C 
ATOM      3  O   UNL     1      47.941   1.333   6.452  0.00  0.00    +0.000 OA
ATOM     24  H   UNL     1      47.318  -0.972   7.049  0.00  0.00    +0.000 HD
ATOM     25  H   UNL     1      45.959  -0.559   8.036  0.00  0.00    +0.000 HD
ENDBRANCH   4   2
ENDBRANCH   9   8
BRANCH   9  10
ATOM     10  C   UNL     1      44.671   6.188  11.583  0.00  0.00    +0.000 A 
ATOM     11  C   UNL     1      44.507   7.577  11.640  0.00  0.00    +0.000 A 
ATOM     12  C   UNL     1      45.357   8.347  12.424  0.00  0.00    +0.000 A 
ATOM     13  C   UNL     1      46.358   7.735  13.179  0.00  0.00    +0.000 A 
ATOM     14  C   UNL     1      46.560   6.347  13.150  0.00  0.00    +0.000 A 
ATOM     21  C   UNL     1      45.728   5.598  12.304  0.00  0.00    +0.000 A 
BRANCH  14  15
ATOM     15  N   UNL     1      47.487   5.733  13.966  0.00  0.00    +0.000 N 
ATOM     16  C   UNL     1      47.268   4.383  14.501  0.00  0.00    +0.000 C 
ATOM     17  C   UNL     1      47.325   4.396  16.042  0.00  0.00    +0.000 C 
ATOM     18  N   UNL     1      48.570   4.995  16.571  0.00  0.00    +0.000 NA
ATOM     19  C   UNL     1      48.701   6.366  16.026  0.00  0.00    +0.000 C 
ATOM     20  C   UNL     1      48.667   6.439  14.476  0.00  0.00    +0.000 C 
ATOM     27  H   UNL     1      49.354   4.444  16.221  0.00  0.00    +0.000 HD
ENDBRANCH  14  15
ENDBRANCH   9  10
TORSDOF 4
ENDMDL
MODEL 3
REMARK VINA RESULT:    -7.198      2.588      3.897
REMARK INTER + INTRA:          -9.603
REMARK INTER:                  -9.005
REMARK INTRA:                  -0.598
REMARK UNBOUND:                -0.722
REMARK  Name = 
REMARK  4 active torsions:
REMARK  status: ('A' for Active; 'I' for Inactive)
REMARK    1  A    between atoms: C_2  and  C_4
REMARK    2  A    between atoms: N_8  and  C_9
REMARK    3  A    between atoms: C_9  and  C_10
REMARK    4  A    between atoms: C_14  and  N_15
REMARK                            x       y       z     vdW  Elec       q    Type
REMARK                         _______ _______ _______ _____ _____    ______ ____
ROOT
ATOM      9  C   UNL     1      44.775   4.501  12.154  0.00  0.00    +0.000 C 
ENDROOT
BRANCH   9   8
ATOM      4  C   UNL     1      46.308   2.783   7.575  0.00  0.00    +0.000 A 
ATOM      5  C   UNL     1      45.947   2.069   8.712  0.00  0.00    +0.000 A 
ATOM      6  C   UNL     1      45.415   2.754   9.803  0.00  0.00    +0.000 A 
ATOM      7  C   UNL     1      45.272   4.137   9.754  0.00  0.00    +0.000 A 
ATOM      8  N   UNL     1      44.688   4.871  10.757  0.00  0.00    +0.000 N 
ATOM     22  N   UNL     1      45.629   4.837   8.658  0.00  0.00    +0.000 NA
ATOM     23  C   UNL     1      46.145   4.157   7.601  0.00  0.00    +0.000 A 
ATOM     26  H   UNL     1      44.792   5.858  10.546  0.00  0.00    +0.000 HD
BRANCH   4   2
ATOM      1  N   UNL     1      47.117   2.926   5.292  0.00  0.00    +0.000 N 
ATOM      2  C   UNL     1      46.857   2.127   6.371  0.00  0.00    +0.000 C 
ATOM      3  O   UNL     1      47.100   0.928   6.348  0.00  0.00    +0.000 OA
ATOM     24  H   UNL     1      47.580   2.488   4.505  0.00  0.00    +0.000 HD
ATOM     25  H   UNL     1      47.171   3.934   5.361  0.00  0.00    +0.000 HD
ENDBRANCH   4   2
ENDBRANCH   9   8
BRANCH   9  10
ATOM     10  C   UNL     1      45.997   5.049  12.852  0.00  0.00    +0.000 A 
ATOM     11  C   UNL     1      46.606   6.226  12.402  0.00  0.00    +0.000 A 
ATOM     12  C   UNL     1      47.608   6.823  13.157  0.00  0.00    +0.000 A 
ATOM     13  C   UNL     1      47.990   6.266  14.378  0.00  0.00    +0.000 A 
ATOM     14  C   UNL     1      47.408   5.087  14.866  0.00  0.00    +0.000 A 
ATOM     21  C   UNL     1      46.441   4.470  14.057  0.00  0.00    +0.000 A 
BRANCH  14  15
ATOM     15  N   UNL     1      47.717   4.588  16.115  0.00  0.00    +0.000 N 
ATOM     16  C   UNL     1      48.408   5.405  17.120  0.00  0.00    +0.000 C 
ATOM     17  C   UNL     1      49.717   4.723  17.567  0.00  0.00    +0.000 C 
ATOM     18  N   UNL     1      49.516   3.335  18.038  0.00  0.00    +0.000 NA
ATOM     19  C   UNL     1      48.858   2.563  16.959  0.00  0.00    +0.000 C 
ATOM     20  C   UNL     1      47.523   3.177  16.462  0.00  0.00    +0.000 C 
ATOM     27  H   UNL     1      48.877   3.366  18.833  0.00  0.00    +0.000 HD
ENDBRANCH  14  15
ENDBRANCH   9  10
TORSDOF 4
ENDMDL
MODEL 4
REMARK VINA RESULT:    -6.909      4.538      8.336
REMARK INTER + INTRA:          -9.247
REMARK INTER:                  -8.797
REMARK INTRA:                  -0.450
REMARK UNBOUND:                -0.722
REMARK  Name = 
REMARK  4 active torsions:
REMARK  status: ('A' for Active; 'I' for Inactive)
REMARK    1  A    between atoms: C_2  and  C_4
REMARK    2  A    between atoms: N_8  and  C_9
REMARK    3  A    between atoms: C_9  and  C_10
REMARK    4  A    between atoms: C_14  and  N_15
REMARK                            x       y       z     vdW  Elec       q    Type
REMARK                         _______ _______ _______ _____ _____    ______ ____
ROOT
ATOM      9  C   UNL     1      46.639   4.702  13.657  0.00  0.00    +0.000 C 
ENDROOT
BRANCH   9   8
ATOM      4  C   UNL     1      48.709   4.250  18.324  0.00  0.00    +0.000 A 
ATOM      5  C   UNL     1      47.992   5.305  17.774  0.00  0.00    +0.000 A 
ATOM      6  C   UNL     1      47.392   5.141  16.526  0.00  0.00    +0.000 A 
ATOM      7  C   UNL     1      47.535   3.940  15.838  0.00  0.00    +0.000 A 
ATOM      8  N   UNL     1      46.914   3.676  14.642  0.00  0.00    +0.000 N 
ATOM     22  N   UNL     1      48.238   2.915  16.362  0.00  0.00    +0.000 NA
ATOM     23  C   UNL     1      48.816   3.089  17.579  0.00  0.00    +0.000 A 
ATOM     26  H   UNL     1      47.250   2.788  14.285  0.00  0.00    +0.000 HD
BRANCH   4   2
ATOM      1  N   UNL     1      48.623   3.917  20.726  0.00  0.00    +0.000 N 
ATOM      2  C   UNL     1      49.354   4.339  19.650  0.00  0.00    +0.000 C 
ATOM      3  O   UNL     1      50.503   4.742  19.779  0.00  0.00    +0.000 OA
ATOM     24  H   UNL     1      49.103   3.893  21.617  0.00  0.00    +0.000 HD
ATOM     25  H   UNL     1      47.790   3.352  20.631  0.00  0.00    +0.000 HD
ENDBRANCH   4   2
ENDBRANCH   9   8
BRANCH   9  10
ATOM     10  C   UNL     1      45.416   4.423  12.818  0.00  0.00    +0.000 A 
ATOM     11  C   UNL     1      44.161   4.908  13.203  0.00  0.00    +0.000 A 
ATOM     12  C   UNL     1      43.080   4.811  12.335  0.00  0.00    +0.000 A 
ATOM     13  C   UNL     1      43.250   4.254  11.067  0.00  0.00    +0.000 A 
ATOM     14  C   UNL     1      44.489   3.753  10.640  0.00  0.00    +0.000 A 
ATOM     21  C   UNL     1      45.550   3.808  11.557  0.00  0.00    +0.000 A 
BRANCH  14  15
ATOM     15  N   UNL     1      44.679   3.288   9.355  0.00  0.00    +0.000 N 
ATOM     16  C   UNL     1      44.687   1.853   9.049  0.00  0.00    +0.000 C 
ATOM     17  C   UNL     1      46.016   1.450   8.377  0.00  0.00    +0.000 C 
ATOM     18  N   UNL     1      46.331   2.263   7.182  0.00  0.00    +0.000 NA
ATOM     19  C   UNL     1      46.349   3.691   7.577  0.00  0.00    +0.000 C 
ATOM     20  C   UNL     1      45.039   4.181   8.248  0.00  0.00    +0.000 C 
ATOM     27  H   UNL     1      45.574   2.135   6.510  0.00  0.00    +0.000 HD
ENDBRANCH  14  15
ENDBRANCH   9  10
TORSDOF 4
ENDMDL
MODEL 5
REMARK VINA RESULT:    -6.694      2.986      6.908
REMARK INTER + INTRA:          -8.981
REMARK INTER:                  -8.337
REMARK INTRA:                  -0.644
REMARK UNBOUND:                -0.722
REMARK  Name = 
REMARK  4 active torsions:
REMARK  status: ('A' for Active; 'I' for Inactive)
REMARK    1  A    between atoms: C_2  and  C_4
REMARK    2  A    between atoms: N_8  and  C_9
REMARK    3  A    between atoms: C_9  and  C_10
REMARK    4  A    between atoms: C_14  and  N_15
REMARK                            x       y       z     vdW  Elec       q    Type
REMARK                         _______ _______ _______ _____ _____    ______ ____
ROOT
ATOM      9  C   UNL     1      44.825   6.513  12.487  0.00  0.00    +0.000 C 
ENDROOT
BRANCH   9   8
ATOM      4  C   UNL     1      49.702   8.083  12.578  0.00  0.00    +0.000 A 
ATOM      5  C   UNL     1      48.649   8.518  11.783  0.00  0.00    +0.000 A 
ATOM      6  C   UNL     1      47.363   8.045  12.042  0.00  0.00    +0.000 A 
ATOM      7  C   UNL     1      47.151   7.133  13.071  0.00  0.00    +0.000 A 
ATOM      8  N   UNL     1      45.907   6.681  13.435  0.00  0.00    +0.000 N 
ATOM     22  N   UNL     1      48.171   6.700  13.840  0.00  0.00    +0.000 NA
ATOM     23  C   UNL     1      49.418   7.170  13.577  0.00  0.00    +0.000 A 
ATOM     26  H   UNL     1      46.012   5.950  14.131  0.00  0.00    +0.000 HD
BRANCH   4   2
ATOM      1  N   UNL     1      51.921   7.750  11.652  0.00  0.00    +0.000 N 
ATOM      2  C   UNL     1      51.088   8.555  12.380  0.00  0.00    +0.000 C 
ATOM      3  O   UNL     1      51.468   9.633  12.819  0.00  0.00    +0.000 OA
ATOM     24  H   UNL     1      52.839   8.122  11.442  0.00  0.00    +0.000 HD
ATOM     25  H   UNL     1      51.579   6.996  11.071  0.00  0.00    +0.000 HD
ENDBRANCH   4   2
ENDBRANCH   9   8
BRANCH   9  10
ATOM     10  C   UNL     1      44.586   5.078  12.087  0.00  0.00    +0.000 A 
ATOM     11  C   UNL     1      43.804   4.235  12.885  0.00  0.00    +0.000 A 
ATOM     12  C   UNL     1      43.435   2.979  12.419  0.00  0.00    +0.000 A 
ATOM     13  C   UNL     1      43.820   2.566  11.143  0.00  0.00    +0.000 A 
ATOM     14  C   UNL     1      44.606   3.376  10.310  0.00  0.00    +0.000 A 
ATOM     21  C   UNL     1      45.016   4.615  10.827  0.00  0.00    +0.000 A 
BRANCH  14  15
ATOM     15  N   UNL     1      44.907   3.008   9.016  0.00  0.00    +0.000 N 
ATOM     16  C   UNL     1      45.103   1.602   8.641  0.00  0.00    +0.000 C 
ATOM     17  C   UNL     1      46.500   1.397   8.019  0.00  0.00    +0.000 C 
ATOM     18  N   UNL     1      46.767   2.304   6.881  0.00  0.00    +0.000 NA
ATOM     19  C   UNL     1      46.593   3.701   7.345  0.00  0.00    +0.000 C 
ATOM     20  C   UNL     1      45.206   3.995   7.972  0.00  0.00    +0.000 C 
ATOM     27  H   UNL     1      46.061   2.124   6.166  0.00  0.00    +0.000 HD
ENDBRANCH  14  15
ENDBRANCH   9  10
TORSDOF 4
ENDMDL
MODEL 6
REMARK VINA RESULT:    -6.487      5.304      8.067
REMARK INTER + INTRA:          -8.726
REMARK INTER:                  -8.143
REMARK INTRA:                  -0.583
REMARK UNBOUND:                -0.722
REMARK  Name = 
REMARK  4 active torsions:
REMARK  status: ('A' for Active; 'I' for Inactive)
REMARK    1  A    between atoms: C_2  and  C_4
REMARK    2  A    between atoms: N_8  and  C_9
REMARK    3  A    between atoms: C_9  and  C_10
REMARK    4  A    between atoms: C_14  and  N_15
REMARK                            x       y       z     vdW  Elec       q    Type
REMARK                         _______ _______ _______ _____ _____    ______ ____
ROOT
ATOM      9  C   UNL     1      47.558   4.962  16.436  0.00  0.00    +0.000 C 
ENDROOT
BRANCH   9   8
ATOM      4  C   UNL     1      51.559   1.941  17.503  0.00  0.00    +0.000 A 
ATOM      5  C   UNL     1      51.214   3.175  18.042  0.00  0.00    +0.000 A 
ATOM      6  C   UNL     1      49.989   3.746  17.702  0.00  0.00    +0.000 A 
ATOM      7  C   UNL     1      49.138   3.091  16.817  0.00  0.00    +0.000 A 
ATOM      8  N   UNL     1      47.886   3.552  16.493  0.00  0.00    +0.000 N 
ATOM     22  N   UNL     1      49.471   1.898  16.282  0.00  0.00    +0.000 NA
ATOM     23  C   UNL     1      50.668   1.353  16.623  0.00  0.00    +0.000 A 
ATOM     26  H   UNL     1      47.501   2.971  15.756  0.00  0.00    +0.000 HD
BRANCH   4   2
ATOM      1  N   UNL     1      52.760  -0.067  18.146  0.00  0.00    +0.000 N 
ATOM      2  C   UNL     1      52.829   1.262  17.831  0.00  0.00    +0.000 C 
ATOM      3  O   UNL     1      53.901   1.852  17.793  0.00  0.00    +0.000 OA
ATOM     24  H   UNL     1      53.642  -0.547  18.279  0.00  0.00    +0.000 HD
ATOM     25  H   UNL     1      51.947  -0.633  17.942  0.00  0.00    +0.000 HD
ENDBRANCH   4   2
ENDBRANCH   9   8
BRANCH   9  10
ATOM     10  C   UNL     1      47.396   5.490  15.031  0.00  0.00    +0.000 A 
ATOM     11  C   UNL     1      48.334   6.377  14.490  0.00  0.00    +0.000 A 
ATOM     12  C   UNL     1      48.281   6.709  13.142  0.00  0.00    +0.000 A 
ATOM     13  C   UNL     1      47.311   6.137  12.319  0.00  0.00    +0.000 A 
ATOM     14  C   UNL     1      46.350   5.246  12.819  0.00  0.00    +0.000 A 
ATOM     21  C   UNL     1      46.387   4.973  14.195  0.00  0.00    +0.000 A 
BRANCH  14  15
ATOM     15  N   UNL     1      45.450   4.609  11.989  0.00  0.00    +0.000 N 
ATOM     16  C   UNL     1      44.604   5.358  11.052  0.00  0.00    +0.000 C 
ATOM     17  C   UNL     1      43.112   5.070  11.320  0.00  0.00    +0.000 C 
ATOM     18  N   UNL     1      42.790   3.626  11.309  0.00  0.00    +0.000 NA
ATOM     19  C   UNL     1      43.648   2.945  12.306  0.00  0.00    +0.000 C 
ATOM     20  C   UNL     1      45.168   3.174  12.097  0.00  0.00    +0.000 C 
ATOM     27  H   UNL     1      43.032   3.260  10.388  0.00  0.00    +0.000 HD
ENDBRANCH  14  15
ENDBRANCH   9  10
TORSDOF 4
ENDMDL
MODEL 7
REMARK VINA RESULT:    -6.369      4.109      6.525
REMARK INTER + INTRA:          -8.581
REMARK INTER:                  -7.846
REMARK INTRA:                  -0.735
REMARK UNBOUND:                -0.722
REMARK  Name = 
REMARK  4 active torsions:
REMARK  status: ('A' for Active; 'I' for Inactive)
REMARK    1  A    between atoms: C_2  and  C_4
REMARK    2  A    between atoms: N_8  and  C_9
REMARK    3  A    between atoms: C_9  and  C_10
REMARK    4  A    between atoms: C_14  and  N_15
REMARK                            x       y       z     vdW  Elec       q    Type
REMARK                         _______ _______ _______ _____ _____    ______ ____
ROOT
ATOM      9  C   UNL     1      48.176   7.852  13.801  0.00  0.00    +0.000 C 
ENDROOT
BRANCH   9   8
ATOM      4  C   UNL     1      44.694   4.454  12.189  0.00  0.00    +0.000 A 
ATOM      5  C   UNL     1      45.860   4.247  12.916  0.00  0.00    +0.000 A 
ATOM      6  C   UNL     1      46.580   5.350  13.374  0.00  0.00    +0.000 A 
ATOM      7  C   UNL     1      46.140   6.637  13.082  0.00  0.00    +0.000 A 
ATOM      8  N   UNL     1      46.750   7.771  13.559  0.00  0.00    +0.000 N 
ATOM     22  N   UNL     1      45.014   6.845  12.368  0.00  0.00    +0.000 NA
ATOM     23  C   UNL     1      44.322   5.761  11.930  0.00  0.00    +0.000 A 
ATOM     26  H   UNL     1      46.320   8.583  13.130  0.00  0.00    +0.000 HD
BRANCH   4   2
ATOM      1  N   UNL     1      43.692   2.269  12.527  0.00  0.00    +0.000 N 
ATOM      2  C   UNL     1      43.866   3.337  11.690  0.00  0.00    +0.000 C 
ATOM      3  O   UNL     1      43.332   3.377  10.589  0.00  0.00    +0.000 OA
ATOM     24  H   UNL     1      43.050   1.551  12.217  0.00  0.00    +0.000 HD
ATOM     25  H   UNL     1      43.900   2.313  13.516  0.00  0.00    +0.000 HD
ENDBRANCH   4   2
ENDBRANCH   9   8
BRANCH   9  10
ATOM     10  C   UNL     1      48.538   7.949  15.263  0.00  0.00    +0.000 A 
ATOM     11  C   UNL     1      48.310   9.131  15.976  0.00  0.00    +0.000 A 
ATOM     12  C   UNL     1      48.469   9.153  17.357  0.00  0.00    +0.000 A 
ATOM     13  C   UNL     1      48.829   7.990  18.037  0.00  0.00    +0.000 A 
ATOM     14  C   UNL     1      49.071   6.784  17.362  0.00  0.00    +0.000 A 
ATOM     21  C   UNL     1      48.962   6.803  15.963  0.00  0.00    +0.000 A 
BRANCH  14  15
ATOM     15  N   UNL     1      49.335   5.613  18.042  0.00  0.00    +0.000 N 
ATOM     16  C   UNL     1      49.174   4.300  17.405  0.00  0.00    +0.000 C 
ATOM     17  C   UNL     1      48.185   3.428  18.205  0.00  0.00    +0.000 C 
ATOM     18  N   UNL     1      48.548   3.299  19.633  0.00  0.00    +0.000 NA
ATOM     19  C   UNL     1      48.648   4.657  20.217  0.00  0.00    +0.000 C 
ATOM     20  C   UNL     1      49.638   5.595  19.477  0.00  0.00    +0.000 C 
ATOM     27  H   UNL     1      49.473   2.870  19.681  0.00  0.00    +0.000 HD
ENDBRANCH  14  15
ENDBRANCH   9  10
TORSDOF 4
ENDMDL
MODEL 8
REMARK VINA RESULT:    -6.302      4.714      8.476
REMARK INTER + INTRA:          -8.497
REMARK INTER:                  -8.005
REMARK INTRA:                  -0.492
REMARK UNBOUND:                -0.722
REMARK  Name = 
REMARK  4 active torsions:
REMARK  status: ('A' for Active; 'I' for Inactive)
REMARK    1  A    between atoms: C_2  and  C_4
REMARK    2  A    between atoms: N_8  and  C_9
REMARK    3  A    between atoms: C_9  and  C_10
REMARK    4  A    between atoms: C_14  and  N_15
REMARK                            x       y       z     vdW  Elec       q    Type
REMARK                         _______ _______ _______ _____ _____    ______ ____
ROOT
ATOM      9  C   UNL     1      47.820   6.706  14.048  0.00  0.00    +0.000 C 
ENDROOT
BRANCH   9   8
ATOM      4  C   UNL     1      49.611   5.082  18.567  0.00  0.00    +0.000 A 
ATOM      5  C   UNL     1      49.392   6.378  18.118  0.00  0.00    +0.000 A 
ATOM      6  C   UNL     1      48.751   6.574  16.895  0.00  0.00    +0.000 A 
ATOM      7  C   UNL     1      48.360   5.479  16.132  0.00  0.00    +0.000 A 
ATOM      8  N   UNL     1      47.660   5.589  14.956  0.00  0.00    +0.000 N 
ATOM     22  N   UNL     1      48.579   4.218  16.558  0.00  0.00    +0.000 NA
ATOM     23  C   UNL     1      49.203   4.042  17.752  0.00  0.00    +0.000 A 
ATOM     26  H   UNL     1      47.582   4.671  14.531  0.00  0.00    +0.000 HD
BRANCH   4   2
ATOM      1  N   UNL     1      49.455   4.391  20.889  0.00  0.00    +0.000 N 
ATOM      2  C   UNL     1      50.263   4.794  19.861  0.00  0.00    +0.000 C 
ATOM      3  O   UNL     1      51.476   4.880  20.002  0.00  0.00    +0.000 OA
ATOM     24  H   UNL     1      49.917   4.106  21.743  0.00  0.00    +0.000 HD
ATOM     25  H   UNL     1      48.507   4.069  20.742  0.00  0.00    +0.000 HD
ENDBRANCH   4   2
ENDBRANCH   9   8
BRANCH   9  10
ATOM     10  C   UNL     1      46.588   7.003  13.229  0.00  0.00    +0.000 A 
ATOM     11  C   UNL     1      46.286   8.314  12.845  0.00  0.00    +0.000 A 
ATOM     12  C   UNL     1      45.261   8.555  11.938  0.00  0.00    +0.000 A 
ATOM     13  C   UNL     1      44.549   7.490  11.388  0.00  0.00    +0.000 A 
ATOM     14  C   UNL     1      44.815   6.160  11.746  0.00  0.00    +0.000 A 
ATOM     21  C   UNL     1      45.814   5.946  12.709  0.00  0.00    +0.000 A 
BRANCH  14  15
ATOM     15  N   UNL     1      44.176   5.102  11.134  0.00  0.00    +0.000 N 
ATOM     16  C   UNL     1      43.064   4.395  11.781  0.00  0.00    +0.000 C 
ATOM     17  C   UNL     1      43.383   2.892  11.917  0.00  0.00    +0.000 C 
ATOM     18  N   UNL     1      43.755   2.260  10.632  0.00  0.00    +0.000 NA
ATOM     19  C   UNL     1      44.907   2.996  10.062  0.00  0.00    +0.000 C 
ATOM     20  C   UNL     1      44.661   4.517   9.879  0.00  0.00    +0.000 C 
ATOM     27  H   UNL     1      42.968   2.369   9.992  0.00  0.00    +0.000 HD
ENDBRANCH  14  15
ENDBRANCH   9  10
TORSDOF 4
ENDMDL
MODEL 9
REMARK VINA RESULT:    -6.219      4.313      6.510
REMARK INTER + INTRA:          -8.395
REMARK INTER:                  -7.845
REMARK INTRA:                  -0.551
REMARK UNBOUND:                -0.722
REMARK  Name = 
REMARK  4 active torsions:
REMARK  status: ('A' for Active; 'I' for Inactive)
REMARK    1  A    between atoms: C_2  and  C_4
REMARK    2  A    between atoms: N_8  and  C_9
REMARK    3  A    between atoms: C_9  and  C_10
REMARK    4  A    between atoms: C_14  and  N_15
REMARK                            x       y       z     vdW  Elec       q    Type
REMARK                         _______ _______ _______ _____ _____    ______ ____
ROOT
ATOM      9  C   UNL     1      48.424   7.417  13.938  0.00  0.00    +0.000 C 
ENDROOT
BRANCH   9   8
ATOM      4  C   UNL     1      44.983   4.740  11.244  0.00  0.00    +0.000 A 
ATOM      5  C   UNL     1      45.604   5.944  10.935  0.00  0.00    +0.000 A 
ATOM      6  C   UNL     1      46.628   6.411  11.759  0.00  0.00    +0.000 A 
ATOM      7  C   UNL     1      46.999   5.685  12.886  0.00  0.00    +0.000 A 
ATOM      8  N   UNL     1      48.044   6.040  13.702  0.00  0.00    +0.000 N 
ATOM     22  N   UNL     1      46.392   4.520  13.197  0.00  0.00    +0.000 NA
ATOM     23  C   UNL     1      45.398   4.077  12.385  0.00  0.00    +0.000 A 
ATOM     26  H   UNL     1      48.056   5.425  14.509  0.00  0.00    +0.000 HD
BRANCH   4   2
ATOM      1  N   UNL     1      43.936   4.460   9.072  0.00  0.00    +0.000 N 
ATOM      2  C   UNL     1      43.907   4.169  10.408  0.00  0.00    +0.000 C 
ATOM      3  O   UNL     1      43.044   3.441  10.882  0.00  0.00    +0.000 OA
ATOM     24  H   UNL     1      43.252   3.991   8.491  0.00  0.00    +0.000 HD
ATOM     25  H   UNL     1      44.757   4.836   8.615  0.00  0.00    +0.000 HD
ENDBRANCH   4   2
ENDBRANCH   9   8
BRANCH   9  10
ATOM     10  C   UNL     1      48.641   7.745  15.395  0.00  0.00    +0.000 A 
ATOM     11  C   UNL     1      48.262   8.989  15.911  0.00  0.00    +0.000 A 
ATOM     12  C   UNL     1      48.291   9.213  17.282  0.00  0.00    +0.000 A 
ATOM     13  C   UNL     1      48.672   8.189  18.150  0.00  0.00    +0.000 A 
ATOM     14  C   UNL     1      49.063   6.927  17.677  0.00  0.00    +0.000 A 
ATOM     21  C   UNL     1      49.082   6.745  16.285  0.00  0.00    +0.000 A 
BRANCH  14  15
ATOM     15  N   UNL     1      49.349   5.888  18.537  0.00  0.00    +0.000 N 
ATOM     16  C   UNL     1      49.529   4.514  18.051  0.00  0.00    +0.000 C 
ATOM     17  C   UNL     1      48.535   3.560  18.743  0.00  0.00    +0.000 C 
ATOM     18  N   UNL     1      48.598   3.627  20.220  0.00  0.00    +0.000 NA
ATOM     19  C   UNL     1      48.364   5.029  20.637  0.00  0.00    +0.000 C 
ATOM     20  C   UNL     1      49.336   6.054  19.994  0.00  0.00    +0.000 C 
ATOM     27  H   UNL     1      49.545   3.372  20.503  0.00  0.00    +0.000 HD
ENDBRANCH  14  15
ENDBRANCH   9  10
TORSDOF 4
ENDMDL
