MODEL 1
REMARK VINA RESULT:    -6.874      0.000      0.000
REMARK INTER + INTRA:          -7.819
REMARK INTER:                  -7.678
REMARK INTRA:                  -0.141
REMARK UNBOUND:                -0.141
REMARK  Name = 
REMARK  2 active torsions:
REMARK  status: ('A' for Active; 'I' for Inactive)
REMARK    1  A    between atoms: C_2  and  C_4
REMARK    2  A    between atoms: N_8  and  C_9
REMARK                            x       y       z     vdW  Elec       q    Type
REMARK                         _______ _______ _______ _____ _____    ______ ____
ROOT
ATOM      4  C   UNL     1      46.699   2.520   7.172  0.00  0.00    +0.000 A 
ATOM      5  C   UNL     1      46.241   1.467   7.952  0.00  0.00    +0.000 A 
ATOM      6  C   UNL     1      45.346   1.738   8.986  0.00  0.00    +0.000 A 
ATOM      7  C   UNL     1      44.952   3.051   9.248  0.00  0.00    +0.000 A 
ATOM      8  N   UNL     1      44.065   3.240  10.303  0.00  0.00    +0.000 N 
ATOM     14  N   UNL     1      45.422   4.085   8.527  0.00  0.00    +0.000 NA
ATOM     15  C   UNL     1      46.278   3.800   7.503  0.00  0.00    +0.000 A 
ATOM     18  H   UNL     1      43.205   2.730  10.134  0.00  0.00    +0.000 HD
ENDROOT
BRANCH   4   2
ATOM      1  N   UNL     1      47.540   3.228   5.001  0.00  0.00    +0.000 N 
ATOM      2  C   UNL     1      47.621   2.330   6.031  0.00  0.00    +0.000 C 
ATOM      3  O   UNL     1      48.447   1.429   6.015  0.00  0.00    +0.000 OA
ATOM     16  H   UNL     1      48.236   3.141   4.273  0.00  0.00    +0.000 HD
ATOM     17  H   UNL     1      47.049   4.107   5.072  0.00  0.00    +0.000 HD
ENDBRANCH   4   2
BRANCH   8   9
ATOM      9  C   UNL     1      43.858   4.570  10.859  0.00  0.00    +0.000 C 
ATOM     10  C   UNL     1      45.059   4.875  11.763  0.00  0.00    +0.000 C 
ATOM     11  C   UNL     1      44.549   5.746  12.900  0.00  0.00    +0.000 C 
ATOM     12  C   UNL     1      43.030   5.759  12.793  0.00  0.00    +0.000 C 
ATOM     13  C   UNL     1      42.660   4.665  11.796  0.00  0.00    +0.000 C 
ENDBRANCH   8   9
TORSDOF 2
ENDMDL
MODEL 2
REMARK VINA RESULT:    -6.651      2.984      6.315
REMARK INTER + INTRA:          -7.570
REMARK INTER:                  -7.429
REMARK INTRA:                  -0.141
REMARK UNBOUND:                -0.141
REMARK  Name = 
REMARK  2 active torsions:
REMARK  status: ('A' for Active; 'I' for Inactive)
REMARK    1  A    between atoms: C_2  and  C_4
REMARK    2  A    between atoms: N_8  and  C_9
REMARK                            x       y       z     vdW  Elec       q    Type
REMARK                         _______ _______ _______ _____ _____    ______ ____
ROOT
ATOM      4  C   UNL     1      43.689   4.521  11.340  0.00  0.00    +0.000 A 
ATOM      5  C   UNL     1      43.307   3.203  11.130  0.00  0.00    +0.000 A 
ATOM      6  C   UNL     1      44.061   2.417  10.261  0.00  0.00    +0.000 A 
ATOM      7  C   UNL     1      45.156   2.963   9.589  0.00  0.00    +0.000 A 
ATOM      8  N   UNL     1      45.850   2.117   8.730  0.00  0.00    +0.000 N 
ATOM     14  N   UNL     1      45.511   4.251   9.750  0.00  0.00    +0.000 NA
ATOM     15  C   UNL     1      44.777   5.000  10.623  0.00  0.00    +0.000 A 
ATOM     18  H   UNL     1      46.218   1.322   9.242  0.00  0.00    +0.000 HD
ENDROOT
BRANCH   4   2
ATOM      1  N   UNL     1      42.008   6.233  11.741  0.00  0.00    +0.000 N 
ATOM      2  C   UNL     1      42.976   5.424  12.270  0.00  0.00    +0.000 C 
ATOM      3  O   UNL     1      43.215   5.429  13.468  0.00  0.00    +0.000 OA
ATOM     16  H   UNL     1      41.467   6.777  12.400  0.00  0.00    +0.000 HD
ATOM     17  H   UNL     1      41.620   6.101  10.819  0.00  0.00    +0.000 HD
ENDBRANCH   4   2
BRANCH   8   9
ATOM      9  C   UNL     1      46.779   2.664   7.752  0.00  0.00    +0.000 C 
ATOM     10  C   UNL     1      45.942   3.198   6.581  0.00  0.00    +0.000 C 
ATOM     11  C   UNL     1      46.768   3.004   5.320  0.00  0.00    +0.000 C 
ATOM     12  C   UNL     1      47.972   2.159   5.712  0.00  0.00    +0.000 C 
ATOM     13  C   UNL     1      47.683   1.620   7.109  0.00  0.00    +0.000 C 
ENDBRANCH   8   9
TORSDOF 2
ENDMDL
MODEL 3
REMARK VINA RESULT:    -6.487      2.836      6.393
REMARK INTER + INTRA:          -7.387
REMARK INTER:                  -7.463
REMARK INTRA:                   0.076
REMARK UNBOUND:                -0.141
REMARK  Name = 
REMARK  2 active torsions:
REMARK  status: ('A' for Active; 'I' for Inactive)
REMARK    1  A    between atoms: C_2  and  C_4
REMARK    2  A    between atoms: N_8  and  C_9
REMARK                            x       y       z     vdW  Elec       q    Type
REMARK                         _______ _______ _______ _____ _____    ______ ____
ROOT
ATOM      4  C   UNL     1      44.086   4.492  11.612  0.00  0.00    +0.000 A 
ATOM      5  C   UNL     1      45.028   5.463  11.301  0.00  0.00    +0.000 A 
ATOM      6  C   UNL     1      45.638   5.429  10.048  0.00  0.00    +0.000 A 
ATOM      7  C   UNL     1      45.328   4.413   9.143  0.00  0.00    +0.000 A 
ATOM      8  N   UNL     1      45.986   4.442   7.918  0.00  0.00    +0.000 N 
ATOM     14  N   UNL     1      44.448   3.441   9.449  0.00  0.00    +0.000 NA
ATOM     15  C   UNL     1      43.842   3.503  10.670  0.00  0.00    +0.000 A 
ATOM     18  H   UNL     1      45.782   5.307   7.430  0.00  0.00    +0.000 HD
ENDROOT
BRANCH   4   2
ATOM      1  N   UNL     1      42.626   5.572  13.232  0.00  0.00    +0.000 N 
ATOM      2  C   UNL     1      43.359   4.465  12.900  0.00  0.00    +0.000 C 
ATOM      3  O   UNL     1      43.380   3.484  13.629  0.00  0.00    +0.000 OA
ATOM     16  H   UNL     1      42.063   5.504  14.069  0.00  0.00    +0.000 HD
ATOM     17  H   UNL     1      42.392   6.297  12.571  0.00  0.00    +0.000 HD
ENDBRANCH   4   2
BRANCH   8   9
ATOM      9  C   UNL     1      45.985   3.269   7.055  0.00  0.00    +0.000 C 
ATOM     10  C   UNL     1      46.709   2.148   7.813  0.00  0.00    +0.000 C 
ATOM     11  C   UNL     1      47.419   1.296   6.773  0.00  0.00    +0.000 C 
ATOM     12  C   UNL     1      47.305   2.038   5.449  0.00  0.00    +0.000 C 
ATOM     13  C   UNL     1      46.805   3.440   5.782  0.00  0.00    +0.000 C 
ENDBRANCH   8   9
TORSDOF 2
ENDMDL
MODEL 4
REMARK VINA RESULT:    -6.409      1.242      1.837
REMARK INTER + INTRA:          -7.299
REMARK INTER:                  -7.373
REMARK INTRA:                   0.073
REMARK UNBOUND:                -0.141
REMARK  Name = 
REMARK  2 active torsions:
REMARK  status: ('A' for Active; 'I' for Inactive)
REMARK    1  A    between atoms: C_2  and  C_4
REMARK    2  A    between atoms: N_8  and  C_9
REMARK                            x       y       z     vdW  Elec       q    Type
REMARK                         _______ _______ _______ _____ _____    ______ ____
ROOT
ATOM      4  C   UNL     1      46.668   2.469   7.416  0.00  0.00    +0.000 A 
ATOM      5  C   UNL     1      46.709   3.836   7.175  0.00  0.00    +0.000 A 
ATOM      6  C   UNL     1      46.046   4.692   8.054  0.00  0.00    +0.000 A 
ATOM      7  C   UNL     1      45.328   4.173   9.132  0.00  0.00    +0.000 A 
ATOM      8  N   UNL     1      44.685   5.092   9.957  0.00  0.00    +0.000 N 
ATOM     14  N   UNL     1      45.245   2.848   9.352  0.00  0.00    +0.000 NA
ATOM     15  C   UNL     1      45.919   2.026   8.497  0.00  0.00    +0.000 A 
ATOM     18  H   UNL     1      45.361   5.729  10.365  0.00  0.00    +0.000 HD
ENDROOT
BRANCH   4   2
ATOM      1  N   UNL     1      48.361   1.952   5.748  0.00  0.00    +0.000 N 
ATOM      2  C   UNL     1      47.368   1.483   6.563  0.00  0.00    +0.000 C 
ATOM      3  O   UNL     1      47.097   0.292   6.604  0.00  0.00    +0.000 OA
ATOM     16  H   UNL     1      48.891   1.257   5.239  0.00  0.00    +0.000 HD
ATOM     17  H   UNL     1      48.772   2.868   5.848  0.00  0.00    +0.000 HD
ENDBRANCH   4   2
BRANCH   8   9
ATOM      9  C   UNL     1      43.660   4.649  10.890  0.00  0.00    +0.000 C 
ATOM     10  C   UNL     1      43.031   5.907  11.502  0.00  0.00    +0.000 C 
ATOM     11  C   UNL     1      42.631   5.556  12.926  0.00  0.00    +0.000 C 
ATOM     12  C   UNL     1      43.224   4.186  13.222  0.00  0.00    +0.000 C 
ATOM     13  C   UNL     1      44.207   3.891  12.093  0.00  0.00    +0.000 C 
ENDBRANCH   8   9
TORSDOF 2
ENDMDL
MODEL 5
REMARK VINA RESULT:    -6.355      1.554      1.772
REMARK INTER + INTRA:          -7.239
REMARK INTER:                  -7.115
REMARK INTRA:                  -0.125
REMARK UNBOUND:                -0.141
REMARK  Name = 
REMARK  2 active torsions:
REMARK  status: ('A' for Active; 'I' for Inactive)
REMARK    1  A    between atoms: C_2  and  C_4
REMARK    2  A    between atoms: N_8  and  C_9
REMARK                            x       y       z     vdW  Elec       q    Type
REMARK                         _______ _______ _______ _____ _____    ______ ____
ROOT
ATOM      4  C   UNL     1      46.511   2.656   7.436  0.00  0.00    +0.000 A 
ATOM      5  C   UNL     1      45.696   2.077   8.400  0.00  0.00    +0.000 A 
ATOM      6  C   UNL     1      45.077   2.902   9.338  0.00  0.00    +0.000 A 
ATOM      7  C   UNL     1      45.308   4.278   9.325  0.00  0.00    +0.000 A 
ATOM      8  N   UNL     1      44.663   5.031  10.301  0.00  0.00    +0.000 N 
ATOM     14  N   UNL     1      46.131   4.847   8.424  0.00  0.00    +0.000 NA
ATOM     15  C   UNL     1      46.709   4.029   7.497  0.00  0.00    +0.000 A 
ATOM     18  H   UNL     1      43.658   4.927  10.217  0.00  0.00    +0.000 HD
ENDROOT
BRANCH   4   2
ATOM      1  N   UNL     1      47.896   2.564   5.438  0.00  0.00    +0.000 N 
ATOM      2  C   UNL     1      47.182   1.871   6.378  0.00  0.00    +0.000 C 
ATOM      3  O   UNL     1      47.133   0.650   6.355  0.00  0.00    +0.000 OA
ATOM     16  H   UNL     1      48.423   2.011   4.775  0.00  0.00    +0.000 HD
ATOM     17  H   UNL     1      48.156   3.533   5.546  0.00  0.00    +0.000 HD
ENDBRANCH   4   2
BRANCH   8   9
ATOM      9  C   UNL     1      45.089   6.396  10.576  0.00  0.00    +0.000 C 
ATOM     10  C   UNL     1      46.385   6.310  11.393  0.00  0.00    +0.000 C 
ATOM     11  C   UNL     1      46.397   7.505  12.333  0.00  0.00    +0.000 C 
ATOM     12  C   UNL     1      45.024   8.154  12.234  0.00  0.00    +0.000 C 
ATOM     13  C   UNL     1      44.136   7.168  11.481  0.00  0.00    +0.000 C 
ENDBRANCH   8   9
TORSDOF 2
ENDMDL
MODEL 6
REMARK VINA RESULT:    -5.752      4.435      6.142
REMARK INTER + INTRA:          -6.567
REMARK INTER:                  -6.438
REMARK INTRA:                  -0.128
REMARK UNBOUND:                -0.141
REMARK  Name = 
REMARK  2 active torsions:
REMARK  status: ('A' for Active; 'I' for Inactive)
REMARK    1  A    between atoms: C_2  and  C_4
REMARK    2  A    between atoms: N_8  and  C_9
REMARK                            x       y       z     vdW  Elec       q    Type
REMARK                         _______ _______ _______ _____ _____    ______ ____
ROOT
ATOM      4  C   UNL     1      45.190   4.592  11.578  0.00  0.00    +0.000 A 
ATOM      5  C   UNL     1      45.649   5.850  11.948  0.00  0.00    +0.000 A 
ATOM      6  C   UNL     1      46.343   5.984  13.149  0.00  0.00    +0.000 A 
ATOM      7  C   UNL     1      46.536   4.877  13.977  0.00  0.00    +0.000 A 
ATOM      8  N   UNL     1      47.228   5.095  15.164  0.00  0.00    +0.000 N 
ATOM     14  N   UNL     1      46.059   3.662  13.651  0.00  0.00    +0.000 NA
ATOM     15  C   UNL     1      45.403   3.542  12.461  0.00  0.00    +0.000 A 
ATOM     18  H   UNL     1      48.158   5.450  14.967  0.00  0.00    +0.000 HD
ENDROOT
BRANCH   4   2
ATOM      1  N   UNL     1      45.071   4.777   9.155  0.00  0.00    +0.000 N 
ATOM      2  C   UNL     1      44.475   4.341  10.308  0.00  0.00    +0.000 C 
ATOM      3  O   UNL     1      43.412   3.740  10.277  0.00  0.00    +0.000 OA
ATOM     16  H   UNL     1      44.618   4.519   8.289  0.00  0.00    +0.000 HD
ATOM     17  H   UNL     1      46.037   5.063   9.107  0.00  0.00    +0.000 HD
ENDBRANCH   4   2
BRANCH   8   9
ATOM      9  C   UNL     1      47.193   4.103  16.228  0.00  0.00    +0.000 C 
ATOM     10  C   UNL     1      47.524   4.830  17.537  0.00  0.00    +0.000 C 
ATOM     11  C   UNL     1      48.268   3.840  18.419  0.00  0.00    +0.000 C 
ATOM     12  C   UNL     1      48.573   2.626  17.553  0.00  0.00    +0.000 C 
ATOM     13  C   UNL     1      48.279   3.039  16.114  0.00  0.00    +0.000 C 
ENDBRANCH   8   9
TORSDOF 2
ENDMDL
MODEL 7
REMARK VINA RESULT:    -5.673      4.351      6.870
REMARK INTER + INTRA:          -6.478
REMARK INTER:                  -6.242
REMARK INTRA:                  -0.236
REMARK UNBOUND:                -0.141
REMARK  Name = 
REMARK  2 active torsions:
REMARK  status: ('A' for Active; 'I' for Inactive)
REMARK    1  A    between atoms: C_2  and  C_4
REMARK    2  A    between atoms: N_8  and  C_9
REMARK                            x       y       z     vdW  Elec       q    Type
REMARK                         _______ _______ _______ _____ _____    ______ ____
ROOT
ATOM      4  C   UNL     1      46.756   8.221  12.975  0.00  0.00    +0.000 A 
ATOM      5  C   UNL     1      45.606   8.646  12.324  0.00  0.00    +0.000 A 
ATOM      6  C   UNL     1      44.898   7.731  11.547  0.00  0.00    +0.000 A 
ATOM      7  C   UNL     1      45.364   6.423  11.402  0.00  0.00    +0.000 A 
ATOM      8  N   UNL     1      44.607   5.574  10.601  0.00  0.00    +0.000 N 
ATOM     14  N   UNL     1      46.500   6.010  11.993  0.00  0.00    +0.000 NA
ATOM     15  C   UNL     1      47.168   6.912  12.770  0.00  0.00    +0.000 A 
ATOM     18  H   UNL     1      43.668   5.484  10.974  0.00  0.00    +0.000 HD
ENDROOT
BRANCH   4   2
ATOM      1  N   UNL     1      47.393   8.967  15.202  0.00  0.00    +0.000 N 
ATOM      2  C   UNL     1      47.555   9.106  13.850  0.00  0.00    +0.000 C 
ATOM      3  O   UNL     1      48.354   9.910  13.393  0.00  0.00    +0.000 OA
ATOM     16  H   UNL     1      48.010   9.513  15.788  0.00  0.00    +0.000 HD
ATOM     17  H   UNL     1      46.931   8.175  15.624  0.00  0.00    +0.000 HD
ENDBRANCH   4   2
BRANCH   8   9
ATOM      9  C   UNL     1      45.170   4.318  10.126  0.00  0.00    +0.000 C 
ATOM     10  C   UNL     1      45.486   4.499   8.635  0.00  0.00    +0.000 C 
ATOM     11  C   UNL     1      45.277   3.148   7.970  0.00  0.00    +0.000 C 
ATOM     12  C   UNL     1      44.626   2.245   9.008  0.00  0.00    +0.000 C 
ATOM     13  C   UNL     1      44.188   3.153  10.154  0.00  0.00    +0.000 C 
ENDBRANCH   8   9
TORSDOF 2
ENDMDL
MODEL 8
REMARK VINA RESULT:    -5.472      4.256      5.762
REMARK INTER + INTRA:          -6.253
REMARK INTER:                  -6.014
REMARK INTRA:                  -0.239
REMARK UNBOUND:                -0.141
REMARK  Name = 
REMARK  2 active torsions:
REMARK  status: ('A' for Active; 'I' for Inactive)
REMARK    1  A    between atoms: C_2  and  C_4
REMARK    2  A    between atoms: N_8  and  C_9
REMARK                            x       y       z     vdW  Elec       q    Type
REMARK                         _______ _______ _______ _____ _____    ______ ____
ROOT
ATOM      4  C   UNL     1      44.878   3.925  11.467  0.00  0.00    +0.000 A 
ATOM      5  C   UNL     1      45.374   3.942  12.765  0.00  0.00    +0.000 A 
ATOM      6  C   UNL     1      46.173   5.013  13.163  0.00  0.00    +0.000 A 
ATOM      7  C   UNL     1      46.493   6.026  12.258  0.00  0.00    +0.000 A 
ATOM      8  N   UNL     1      47.303   7.054  12.728  0.00  0.00    +0.000 N 
ATOM     14  N   UNL     1      46.054   5.999  10.986  0.00  0.00    +0.000 NA
ATOM     15  C   UNL     1      45.254   4.957  10.618  0.00  0.00    +0.000 A 
ATOM     18  H   UNL     1      46.857   7.523  13.509  0.00  0.00    +0.000 HD
ENDROOT
BRANCH   4   2
ATOM      1  N   UNL     1      44.400   2.180   9.840  0.00  0.00    +0.000 N 
ATOM      2  C   UNL     1      43.995   2.852  10.962  0.00  0.00    +0.000 C 
ATOM      3  O   UNL     1      42.959   2.549  11.535  0.00  0.00    +0.000 OA
ATOM     16  H   UNL     1      43.834   1.391   9.559  0.00  0.00    +0.000 HD
ATOM     17  H   UNL     1      45.339   2.233   9.474  0.00  0.00    +0.000 HD
ENDBRANCH   4   2
BRANCH   8   9
ATOM      9  C   UNL     1      47.954   7.962  11.795  0.00  0.00    +0.000 C 
ATOM     10  C   UNL     1      49.443   7.594  11.768  0.00  0.00    +0.000 C 
ATOM     11  C   UNL     1      50.215   8.881  11.530  0.00  0.00    +0.000 C 
ATOM     12  C   UNL     1      49.212  10.020  11.646  0.00  0.00    +0.000 C 
ATOM     13  C   UNL     1      47.945   9.419  12.245  0.00  0.00    +0.000 C 
ENDBRANCH   8   9
TORSDOF 2
ENDMDL
MODEL 9
REMARK VINA RESULT:    -5.442      3.241      6.077
REMARK INTER + INTRA:          -6.220
REMARK INTER:                  -7.198
REMARK INTRA:                   0.978
REMARK UNBOUND:                -0.141
REMARK  Name = 
REMARK  2 active torsions:
REMARK  status: ('A' for Active; 'I' for Inactive)
REMARK    1  A    between atoms: C_2  and  C_4
REMARK    2  A    between atoms: N_8  and  C_9
REMARK                            x       y       z     vdW  Elec       q    Type
REMARK                         _______ _______ _______ _____ _____    ______ ____
ROOT
ATOM      4  C   UNL     1      45.228   6.620  12.103  0.00  0.00    +0.000 A 
ATOM      5  C   UNL     1      44.169   5.850  12.568  0.00  0.00    +0.000 A 
ATOM      6  C   UNL     1      43.833   4.687  11.877  0.00  0.00    +0.000 A 
ATOM      7  C   UNL     1      44.528   4.329  10.722  0.00  0.00    +0.000 A 
ATOM      8  N   UNL     1      44.126   3.160  10.084  0.00  0.00    +0.000 N 
ATOM     14  N   UNL     1      45.528   5.089  10.237  0.00  0.00    +0.000 NA
ATOM     15  C   UNL     1      45.861   6.212  10.938  0.00  0.00    +0.000 A 
ATOM     18  H   UNL     1      44.221   2.368  10.711  0.00  0.00    +0.000 HD
ENDROOT
BRANCH   4   2
ATOM      1  N   UNL     1      44.856   8.940  12.735  0.00  0.00    +0.000 N 
ATOM      2  C   UNL     1      45.683   7.851  12.786  0.00  0.00    +0.000 C 
ATOM      3  O   UNL     1      46.739   7.891  13.399  0.00  0.00    +0.000 OA
ATOM     16  H   UNL     1      45.137   9.743  13.281  0.00  0.00    +0.000 HD
ATOM     17  H   UNL     1      43.890   8.887  12.448  0.00  0.00    +0.000 HD
ENDBRANCH   4   2
BRANCH   8   9
ATOM      9  C   UNL     1      44.553   2.882   8.721  0.00  0.00    +0.000 C 
ATOM     10  C   UNL     1      45.612   1.774   8.795  0.00  0.00    +0.000 C 
ATOM     11  C   UNL     1      46.596   2.024   7.663  0.00  0.00    +0.000 C 
ATOM     12  C   UNL     1      46.252   3.386   7.077  0.00  0.00    +0.000 C 
ATOM     13  C   UNL     1      45.284   4.043   8.055  0.00  0.00    +0.000 C 
ENDBRANCH   8   9
TORSDOF 2
ENDMDL
