MODEL 1
REMARK VINA RESULT:    -9.090      0.000      0.000
REMARK INTER + INTRA:         -17.992
REMARK INTER:                 -15.998
REMARK INTRA:                  -1.995
REMARK UNBOUND:                -1.995
REMARK  Name = 
REMARK  14 active torsions:
REMARK  status: ('A' for Active; 'I' for Inactive)
REMARK    1  A    between atoms: C_2  and  C_3
REMARK    2  A    between atoms: C_3  and  C_4
REMARK    3  A    between atoms: C_4  and  C_5
REMARK    4  A    between atoms: C_5  and  C_6
REMARK    5  A    between atoms: C_6  and  C_7
REMARK    6  A    between atoms: C_7  and  N_8
REMARK    7  A    between atoms: C_9  and  C_11
REMARK    8  A    between atoms: C_15  and  O_16
REMARK    9  A    between atoms: N_18  and  O_19
REMARK   10  A    between atoms: N_20  and  C_21
REMARK   11  A    between atoms: C_21  and  C_22
REMARK   12  A    between atoms: C_25  and  C_26
REMARK   13  A    between atoms: C_26  and  N_27
REMARK   14  A    between atoms: C_28  and  C_30
REMARK                            x       y       z     vdW  Elec       q    Type
REMARK                         _______ _______ _______ _____ _____    ______ ____
ROOT
ATOM      1  O   UNL     1      46.109   5.909  10.911  0.00  0.00    +0.000 OA
ATOM      2  C   UNL     1      45.597   6.575  11.805  0.00  0.00    +0.000 C 
ATOM     20  N   UNL     1      46.259   6.953  12.951  0.00  0.00    +0.000 N 
ATOM     45  H   UNL     1      45.748   7.422  13.685  0.00  0.00    +0.000 HD
ENDROOT
BRANCH   2   3
ATOM      3  C   UNL     1      44.167   7.087  11.713  0.00  0.00    +0.000 C 
BRANCH   3   4
ATOM      4  C   UNL     1      43.163   5.939  11.611  0.00  0.00    +0.000 C 
BRANCH   4   5
ATOM      5  C   UNL     1      43.088   5.142  12.918  0.00  0.00    +0.000 C 
BRANCH   5   6
ATOM      6  C   UNL     1      43.917   3.855  12.855  0.00  0.00    +0.000 C 
BRANCH   6   7
ATOM      7  C   UNL     1      43.373   2.897  11.794  0.00  0.00    +0.000 C 
BRANCH   7   8
ATOM      8  N   UNL     1      44.349   2.617  10.763  0.00  0.00    +0.000 N 
ATOM      9  C   UNL     1      44.417   3.314   9.586  0.00  0.00    +0.000 C 
ATOM     10  O   UNL     1      43.661   4.243   9.316  0.00  0.00    +0.000 OA
ATOM     42  H   UNL     1      44.990   1.837  10.873  0.00  0.00    +0.000 HD
BRANCH   9  11
ATOM     11  C   UNL     1      45.492   2.856   8.625  0.00  0.00    +0.000 A 
ATOM     12  C   UNL     1      45.634   1.517   8.550  0.00  0.00    +0.000 A 
ATOM     13  C   UNL     1      46.679   0.967   7.650  0.00  0.00    +0.000 A 
ATOM     14  O   UNL     1      46.879  -0.242   7.557  0.00  0.00    +0.000 OA
ATOM     15  C   UNL     1      47.494   1.924   6.851  0.00  0.00    +0.000 A 
ATOM     17  C   UNL     1      47.246   3.227   7.014  0.00  0.00    +0.000 A 
ATOM     18  N   UNL     1      46.281   3.734   7.862  0.00  0.00    +0.000 N 
BRANCH  15  16
ATOM     16  O   UNL     1      48.470   1.439   6.008  0.00  0.00    +0.000 OA
ATOM     43  H   UNL     1      47.991   1.184   5.190  0.00  0.00    +0.000 HD
ENDBRANCH  15  16
BRANCH  18  19
ATOM     19  O   UNL     1      46.232   5.114   8.048  0.00  0.00    +0.000 OA
ATOM     44  H   UNL     1      46.452   5.471   7.166  0.00  0.00    +0.000 HD
ENDBRANCH  18  19
ENDBRANCH   9  11
ENDBRANCH   7   8
ENDBRANCH   6   7
ENDBRANCH   5   6
ENDBRANCH   4   5
ENDBRANCH   3   4
ENDBRANCH   2   3
BRANCH  20  21
ATOM     21  C   UNL     1      47.630   6.572  13.234  0.00  0.00    +0.000 C 
BRANCH  21  22
ATOM     22  C   UNL     1      47.715   5.831  14.546  0.00  0.00    +0.000 A 
ATOM     23  C   UNL     1      48.613   6.256  15.533  0.00  0.00    +0.000 A 
ATOM     24  C   UNL     1      48.807   5.504  16.697  0.00  0.00    +0.000 A 
ATOM     25  C   UNL     1      48.124   4.295  16.885  0.00  0.00    +0.000 A 
ATOM     40  C   UNL     1      47.169   3.907  15.932  0.00  0.00    +0.000 A 
ATOM     41  C   UNL     1      46.970   4.664  14.770  0.00  0.00    +0.000 A 
BRANCH  25  26
ATOM     26  C   UNL     1      48.575   3.337  17.961  0.00  0.00    +0.000 C 
BRANCH  26  27
ATOM     27  N   UNL     1      49.993   3.214  18.191  0.00  0.00    +0.000 N 
ATOM     28  C   UNL     1      50.682   2.341  17.372  0.00  0.00    +0.000 C 
ATOM     29  O   UNL     1      50.105   1.757  16.454  0.00  0.00    +0.000 OA
ATOM     46  H   UNL     1      50.448   3.725  18.945  0.00  0.00    +0.000 HD
BRANCH  28  30
ATOM     30  C   UNL     1      52.102   2.069  17.625  0.00  0.00    +0.000 A 
ATOM     31  C   UNL     1      52.535   0.748  17.691  0.00  0.00    +0.000 A 
ATOM     32  S   UNL     1      54.168   0.580  18.149  0.00  0.00    +0.000 S 
ATOM     33  C   UNL     1      54.300   2.253  18.419  0.00  0.00    +0.000 A 
ATOM     34  N   UNL     1      55.368   2.774  19.076  0.00  0.00    +0.000 NA
ATOM     35  C   UNL     1      55.286   4.046  19.288  0.00  0.00    +0.000 A 
ATOM     36  N   UNL     1      54.287   4.856  18.807  0.00  0.00    +0.000 N 
ATOM     37  C   UNL     1      53.258   4.385  18.026  0.00  0.00    +0.000 A 
ATOM     38  O   UNL     1      52.482   5.136  17.444  0.00  0.00    +0.000 OA
ATOM     39  C   UNL     1      53.193   2.943  17.954  0.00  0.00    +0.000 A 
ATOM     47  H   UNL     1      54.340   5.857  18.923  0.00  0.00    +0.000 HD
ENDBRANCH  28  30
ENDBRANCH  26  27
ENDBRANCH  25  26
ENDBRANCH  21  22
ENDBRANCH  20  21
TORSDOF 14
ENDMDL
MODEL 2
REMARK VINA RESULT:    -8.563      1.514      2.396
REMARK INTER + INTRA:         -17.066
REMARK INTER:                 -14.924
REMARK INTRA:                  -2.142
REMARK UNBOUND:                -1.995
REMARK  Name = 
REMARK  14 active torsions:
REMARK  status: ('A' for Active; 'I' for Inactive)
REMARK    1  A    between atoms: C_2  and  C_3
REMARK    2  A    between atoms: C_3  and  C_4
REMARK    3  A    between atoms: C_4  and  C_5
REMARK    4  A    between atoms: C_5  and  C_6
REMARK    5  A    between atoms: C_6  and  C_7
REMARK    6  A    between atoms: C_7  and  N_8
REMARK    7  A    between atoms: C_9  and  C_11
REMARK    8  A    between atoms: C_15  and  O_16
REMARK    9  A    between atoms: N_18  and  O_19
REMARK   10  A    between atoms: N_20  and  C_21
REMARK   11  A    between atoms: C_21  and  C_22
REMARK   12  A    between atoms: C_25  and  C_26
REMARK   13  A    between atoms: C_26  and  N_27
REMARK   14  A    between atoms: C_28  and  C_30
REMARK                            x       y       z     vdW  Elec       q    Type
REMARK                         _______ _______ _______ _____ _____    ______ ____
ROOT
ATOM      1  O   UNL     1      46.407   6.011  10.554  0.00  0.00    +0.000 OA
ATOM      2  C   UNL     1      45.883   6.714  11.412  0.00  0.00    +0.000 C 
ATOM     20  N   UNL     1      46.563   7.661  12.144  0.00  0.00    +0.000 N 
ATOM     45  H   UNL     1      46.089   8.139  12.897  0.00  0.00    +0.000 HD
ENDROOT
BRANCH   2   3
ATOM      3  C   UNL     1      44.397   6.631  11.730  0.00  0.00    +0.000 C 
BRANCH   3   4
ATOM      4  C   UNL     1      44.146   5.952  13.076  0.00  0.00    +0.000 C 
BRANCH   4   5
ATOM      5  C   UNL     1      43.144   4.800  12.944  0.00  0.00    +0.000 C 
BRANCH   5   6
ATOM      6  C   UNL     1      43.841   3.438  12.862  0.00  0.00    +0.000 C 
BRANCH   6   7
ATOM      7  C   UNL     1      43.284   2.599  11.711  0.00  0.00    +0.000 C 
BRANCH   7   8
ATOM      8  N   UNL     1      44.272   2.371  10.678  0.00  0.00    +0.000 N 
ATOM      9  C   UNL     1      44.441   3.204   9.604  0.00  0.00    +0.000 C 
ATOM     10  O   UNL     1      43.773   4.222   9.438  0.00  0.00    +0.000 OA
ATOM     42  H   UNL     1      44.843   1.531  10.702  0.00  0.00    +0.000 HD
BRANCH   9  11
ATOM     11  C   UNL     1      45.510   2.783   8.620  0.00  0.00    +0.000 A 
ATOM     12  C   UNL     1      45.693   1.449   8.539  0.00  0.00    +0.000 A 
ATOM     13  C   UNL     1      46.736   0.934   7.617  0.00  0.00    +0.000 A 
ATOM     14  O   UNL     1      46.973  -0.268   7.517  0.00  0.00    +0.000 OA
ATOM     15  C   UNL     1      47.504   1.918   6.804  0.00  0.00    +0.000 A 
ATOM     17  C   UNL     1      47.218   3.213   6.974  0.00  0.00    +0.000 A 
ATOM     18  N   UNL     1      46.254   3.686   7.844  0.00  0.00    +0.000 N 
BRANCH  15  16
ATOM     16  O   UNL     1      48.477   1.466   5.940  0.00  0.00    +0.000 OA
ATOM     43  H   UNL     1      48.026   1.389   5.071  0.00  0.00    +0.000 HD
ENDBRANCH  15  16
BRANCH  18  19
ATOM     19  O   UNL     1      46.165   5.064   8.034  0.00  0.00    +0.000 OA
ATOM     44  H   UNL     1      47.097   5.343   8.123  0.00  0.00    +0.000 HD
ENDBRANCH  18  19
ENDBRANCH   9  11
ENDBRANCH   7   8
ENDBRANCH   6   7
ENDBRANCH   5   6
ENDBRANCH   4   5
ENDBRANCH   3   4
ENDBRANCH   2   3
BRANCH  20  21
ATOM     21  C   UNL     1      47.987   7.902  11.995  0.00  0.00    +0.000 C 
BRANCH  21  22
ATOM     22  C   UNL     1      48.730   7.476  13.238  0.00  0.00    +0.000 A 
ATOM     23  C   UNL     1      48.094   6.675  14.194  0.00  0.00    +0.000 A 
ATOM     24  C   UNL     1      48.714   6.385  15.414  0.00  0.00    +0.000 A 
ATOM     25  C   UNL     1      49.977   6.914  15.713  0.00  0.00    +0.000 A 
ATOM     40  C   UNL     1      50.648   7.654  14.726  0.00  0.00    +0.000 A 
ATOM     41  C   UNL     1      50.028   7.938  13.502  0.00  0.00    +0.000 A 
BRANCH  25  26
ATOM     26  C   UNL     1      50.490   6.877  17.132  0.00  0.00    +0.000 C 
BRANCH  26  27
ATOM     27  N   UNL     1      51.528   5.924  17.440  0.00  0.00    +0.000 N 
ATOM     28  C   UNL     1      51.148   4.796  18.143  0.00  0.00    +0.000 C 
ATOM     29  O   UNL     1      49.964   4.604  18.424  0.00  0.00    +0.000 OA
ATOM     46  H   UNL     1      52.495   6.099  17.176  0.00  0.00    +0.000 HD
BRANCH  28  30
ATOM     30  C   UNL     1      52.165   3.844  18.600  0.00  0.00    +0.000 A 
ATOM     31  C   UNL     1      53.178   4.290  19.445  0.00  0.00    +0.000 A 
ATOM     32  S   UNL     1      54.375   3.120  19.764  0.00  0.00    +0.000 S 
ATOM     33  C   UNL     1      53.660   2.038  18.666  0.00  0.00    +0.000 A 
ATOM     34  N   UNL     1      54.317   0.924  18.251  0.00  0.00    +0.000 NA
ATOM     35  C   UNL     1      53.688   0.248  17.347  0.00  0.00    +0.000 A 
ATOM     36  N   UNL     1      52.419   0.526  16.904  0.00  0.00    +0.000 N 
ATOM     37  C   UNL     1      51.670   1.569  17.397  0.00  0.00    +0.000 A 
ATOM     38  O   UNL     1      50.477   1.697  17.140  0.00  0.00    +0.000 OA
ATOM     39  C   UNL     1      52.416   2.476  18.240  0.00  0.00    +0.000 A 
ATOM     47  H   UNL     1      51.948  -0.104  16.272  0.00  0.00    +0.000 HD
ENDBRANCH  28  30
ENDBRANCH  26  27
ENDBRANCH  25  26
ENDBRANCH  21  22
ENDBRANCH  20  21
TORSDOF 14
ENDMDL
MODEL 3
REMARK VINA RESULT:    -8.487      5.084      7.211
REMARK INTER + INTRA:         -16.932
REMARK INTER:                 -14.934
REMARK INTRA:                  -1.998
REMARK UNBOUND:                -1.995
REMARK  Name = 
REMARK  14 active torsions:
REMARK  status: ('A' for Active; 'I' for Inactive)
REMARK    1  A    between atoms: C_2  and  C_3
REMARK    2  A    between atoms: C_3  and  C_4
REMARK    3  A    between atoms: C_4  and  C_5
REMARK    4  A    between atoms: C_5  and  C_6
REMARK    5  A    between atoms: C_6  and  C_7
REMARK    6  A    between atoms: C_7  and  N_8
REMARK    7  A    between atoms: C_9  and  C_11
REMARK    8  A    between atoms: C_15  and  O_16
REMARK    9  A    between atoms: N_18  and  O_19
REMARK   10  A    between atoms: N_20  and  C_21
REMARK   11  A    between atoms: C_21  and  C_22
REMARK   12  A    between atoms: C_25  and  C_26
REMARK   13  A    between atoms: C_26  and  N_27
REMARK   14  A    between atoms: C_28  and  C_30
REMARK                            x       y       z     vdW  Elec       q    Type
REMARK                         _______ _______ _______ _____ _____    ______ ____
ROOT
ATOM      1  O   UNL     1      47.834   4.743  13.641  0.00  0.00    +0.000 OA
ATOM      2  C   UNL     1      47.073   5.621  13.248  0.00  0.00    +0.000 C 
ATOM     20  N   UNL     1      47.236   6.957  13.534  0.00  0.00    +0.000 N 
ATOM     45  H   UNL     1      46.521   7.614  13.255  0.00  0.00    +0.000 HD
ENDROOT
BRANCH   2   3
ATOM      3  C   UNL     1      45.877   5.316  12.358  0.00  0.00    +0.000 C 
BRANCH   3   4
ATOM      4  C   UNL     1      44.603   5.979  12.880  0.00  0.00    +0.000 C 
BRANCH   4   5
ATOM      5  C   UNL     1      43.418   5.008  12.861  0.00  0.00    +0.000 C 
BRANCH   5   6
ATOM      6  C   UNL     1      43.871   3.546  12.907  0.00  0.00    +0.000 C 
BRANCH   6   7
ATOM      7  C   UNL     1      43.285   2.746  11.743  0.00  0.00    +0.000 C 
BRANCH   7   8
ATOM      8  N   UNL     1      44.267   2.490  10.711  0.00  0.00    +0.000 N 
ATOM      9  C   UNL     1      44.462   3.319   9.639  0.00  0.00    +0.000 C 
ATOM     10  O   UNL     1      43.825   4.356   9.473  0.00  0.00    +0.000 OA
ATOM     42  H   UNL     1      44.813   1.633  10.735  0.00  0.00    +0.000 HD
BRANCH   9  11
ATOM     11  C   UNL     1      45.520   2.867   8.656  0.00  0.00    +0.000 A 
ATOM     12  C   UNL     1      45.666   1.529   8.577  0.00  0.00    +0.000 A 
ATOM     13  C   UNL     1      46.696   0.984   7.656  0.00  0.00    +0.000 A 
ATOM     14  O   UNL     1      46.900  -0.224   7.559  0.00  0.00    +0.000 OA
ATOM     15  C   UNL     1      47.490   1.946   6.841  0.00  0.00    +0.000 A 
ATOM     17  C   UNL     1      47.238   3.248   7.009  0.00  0.00    +0.000 A 
ATOM     18  N   UNL     1      46.287   3.749   7.878  0.00  0.00    +0.000 N 
BRANCH  15  16
ATOM     16  O   UNL     1      48.450   1.467   5.978  0.00  0.00    +0.000 OA
ATOM     43  H   UNL     1      48.102   0.603   5.668  0.00  0.00    +0.000 HD
ENDBRANCH  15  16
BRANCH  18  19
ATOM     19  O   UNL     1      46.235   5.129   8.065  0.00  0.00    +0.000 OA
ATOM     44  H   UNL     1      45.437   5.396   7.569  0.00  0.00    +0.000 HD
ENDBRANCH  18  19
ENDBRANCH   9  11
ENDBRANCH   7   8
ENDBRANCH   6   7
ENDBRANCH   5   6
ENDBRANCH   4   5
ENDBRANCH   3   4
ENDBRANCH   2   3
BRANCH  20  21
ATOM     21  C   UNL     1      48.314   7.462  14.365  0.00  0.00    +0.000 C 
BRANCH  21  22
ATOM     22  C   UNL     1      49.546   7.724  13.534  0.00  0.00    +0.000 A 
ATOM     23  C   UNL     1      50.740   8.111  14.154  0.00  0.00    +0.000 A 
ATOM     24  C   UNL     1      51.851   8.493  13.395  0.00  0.00    +0.000 A 
ATOM     25  C   UNL     1      51.782   8.520  11.996  0.00  0.00    +0.000 A 
ATOM     40  C   UNL     1      50.612   8.060  11.372  0.00  0.00    +0.000 A 
ATOM     41  C   UNL     1      49.501   7.672  12.133  0.00  0.00    +0.000 A 
BRANCH  25  26
ATOM     26  C   UNL     1      52.849   9.237  11.205  0.00  0.00    +0.000 C 
BRANCH  26  27
ATOM     27  N   UNL     1      53.487   8.508  10.136  0.00  0.00    +0.000 N 
ATOM     28  C   UNL     1      53.171   8.892   8.847  0.00  0.00    +0.000 C 
ATOM     29  O   UNL     1      52.430   9.855   8.645  0.00  0.00    +0.000 OA
ATOM     46  H   UNL     1      54.113   7.730  10.333  0.00  0.00    +0.000 HD
BRANCH  28  30
ATOM     30  C   UNL     1      53.683   8.120   7.709  0.00  0.00    +0.000 A 
ATOM     31  C   UNL     1      53.963   8.779   6.516  0.00  0.00    +0.000 A 
ATOM     32  S   UNL     1      54.395   7.738   5.238  0.00  0.00    +0.000 S 
ATOM     33  C   UNL     1      54.073   6.372   6.196  0.00  0.00    +0.000 A 
ATOM     34  N   UNL     1      53.988   5.133   5.644  0.00  0.00    +0.000 NA
ATOM     35  C   UNL     1      53.647   4.208   6.479  0.00  0.00    +0.000 A 
ATOM     36  N   UNL     1      53.491   4.392   7.831  0.00  0.00    +0.000 N 
ATOM     37  C   UNL     1      53.697   5.605   8.445  0.00  0.00    +0.000 A 
ATOM     38  O   UNL     1      53.745   5.720   9.665  0.00  0.00    +0.000 OA
ATOM     39  C   UNL     1      53.860   6.707   7.524  0.00  0.00    +0.000 A 
ATOM     47  H   UNL     1      53.325   3.604   8.438  0.00  0.00    +0.000 HD
ENDBRANCH  28  30
ENDBRANCH  26  27
ENDBRANCH  25  26
ENDBRANCH  21  22
ENDBRANCH  20  21
TORSDOF 14
ENDMDL
MODEL 4
REMARK VINA RESULT:    -8.303      1.864      2.994
REMARK INTER + INTRA:         -16.607
REMARK INTER:                 -14.832
REMARK INTRA:                  -1.775
REMARK UNBOUND:                -1.995
REMARK  Name = 
REMARK  14 active torsions:
REMARK  status: ('A' for Active; 'I' for Inactive)
REMARK    1  A    between atoms: C_2  and  C_3
REMARK    2  A    between atoms: C_3  and  C_4
REMARK    3  A    between atoms: C_4  and  C_5
REMARK    4  A    between atoms: C_5  and  C_6
REMARK    5  A    between atoms: C_6  and  C_7
REMARK    6  A    between atoms: C_7  and  N_8
REMARK    7  A    between atoms: C_9  and  C_11
REMARK    8  A    between atoms: C_15  and  O_16
REMARK    9  A    between atoms: N_18  and  O_19
REMARK   10  A    between atoms: N_20  and  C_21
REMARK   11  A    between atoms: C_21  and  C_22
REMARK   12  A    between atoms: C_25  and  C_26
REMARK   13  A    between atoms: C_26  and  N_27
REMARK   14  A    between atoms: C_28  and  C_30
REMARK                            x       y       z     vdW  Elec       q    Type
REMARK                         _______ _______ _______ _____ _____    ______ ____
ROOT
ATOM      1  O   UNL     1      45.662   8.136  12.690  0.00  0.00    +0.000 OA
ATOM      2  C   UNL     1      46.096   7.010  12.473  0.00  0.00    +0.000 C 
ATOM     20  N   UNL     1      47.370   6.757  12.016  0.00  0.00    +0.000 N 
ATOM     45  H   UNL     1      47.630   5.812  11.773  0.00  0.00    +0.000 HD
ENDROOT
BRANCH   2   3
ATOM      3  C   UNL     1      45.268   5.760  12.730  0.00  0.00    +0.000 C 
BRANCH   3   4
ATOM      4  C   UNL     1      43.771   6.068  12.738  0.00  0.00    +0.000 C 
BRANCH   4   5
ATOM      5  C   UNL     1      42.938   4.796  12.930  0.00  0.00    +0.000 C 
BRANCH   5   6
ATOM      6  C   UNL     1      43.793   3.528  12.837  0.00  0.00    +0.000 C 
BRANCH   6   7
ATOM      7  C   UNL     1      43.283   2.595  11.738  0.00  0.00    +0.000 C 
BRANCH   7   8
ATOM      8  N   UNL     1      44.271   2.387  10.701  0.00  0.00    +0.000 N 
ATOM      9  C   UNL     1      44.489   3.277   9.683  0.00  0.00    +0.000 C 
ATOM     10  O   UNL     1      43.870   4.332   9.576  0.00  0.00    +0.000 OA
ATOM     42  H   UNL     1      44.803   1.521  10.677  0.00  0.00    +0.000 HD
BRANCH   9  11
ATOM     11  C   UNL     1      45.549   2.869   8.683  0.00  0.00    +0.000 A 
ATOM     12  C   UNL     1      45.706   1.535   8.556  0.00  0.00    +0.000 A 
ATOM     13  C   UNL     1      46.738   1.032   7.615  0.00  0.00    +0.000 A 
ATOM     14  O   UNL     1      46.951  -0.170   7.473  0.00  0.00    +0.000 OA
ATOM     15  C   UNL     1      47.523   2.029   6.834  0.00  0.00    +0.000 A 
ATOM     17  C   UNL     1      47.262   3.322   7.049  0.00  0.00    +0.000 A 
ATOM     18  N   UNL     1      46.308   3.784   7.936  0.00  0.00    +0.000 N 
BRANCH  15  16
ATOM     16  O   UNL     1      48.486   1.589   5.953  0.00  0.00    +0.000 OA
ATOM     43  H   UNL     1      48.584   0.631   6.144  0.00  0.00    +0.000 HD
ENDBRANCH  15  16
BRANCH  18  19
ATOM     19  O   UNL     1      46.246   5.156   8.173  0.00  0.00    +0.000 OA
ATOM     44  H   UNL     1      47.184   5.424   8.209  0.00  0.00    +0.000 HD
ENDBRANCH  18  19
ENDBRANCH   9  11
ENDBRANCH   7   8
ENDBRANCH   6   7
ENDBRANCH   5   6
ENDBRANCH   4   5
ENDBRANCH   3   4
ENDBRANCH   2   3
BRANCH  20  21
ATOM     21  C   UNL     1      48.323   7.808  11.710  0.00  0.00    +0.000 C 
BRANCH  21  22
ATOM     22  C   UNL     1      49.353   7.926  12.807  0.00  0.00    +0.000 A 
ATOM     23  C   UNL     1      50.555   8.602  12.568  0.00  0.00    +0.000 A 
ATOM     24  C   UNL     1      51.579   8.603  13.522  0.00  0.00    +0.000 A 
ATOM     25  C   UNL     1      51.429   7.904  14.727  0.00  0.00    +0.000 A 
ATOM     40  C   UNL     1      50.196   7.290  14.999  0.00  0.00    +0.000 A 
ATOM     41  C   UNL     1      49.170   7.295  14.046  0.00  0.00    +0.000 A 
BRANCH  25  26
ATOM     26  C   UNL     1      52.635   7.632  15.593  0.00  0.00    +0.000 C 
BRANCH  26  27
ATOM     27  N   UNL     1      52.813   6.288  16.083  0.00  0.00    +0.000 N 
ATOM     28  C   UNL     1      52.615   6.088  17.436  0.00  0.00    +0.000 C 
ATOM     29  O   UNL     1      52.241   7.013  18.157  0.00  0.00    +0.000 OA
ATOM     46  H   UNL     1      53.103   5.537  15.460  0.00  0.00    +0.000 HD
BRANCH  28  30
ATOM     30  C   UNL     1      52.898   4.776  18.029  0.00  0.00    +0.000 A 
ATOM     31  C   UNL     1      54.099   4.586  18.707  0.00  0.00    +0.000 A 
ATOM     32  S   UNL     1      54.364   2.977  19.202  0.00  0.00    +0.000 S 
ATOM     33  C   UNL     1      52.961   2.460  18.393  0.00  0.00    +0.000 A 
ATOM     34  N   UNL     1      52.716   1.140  18.187  0.00  0.00    +0.000 NA
ATOM     35  C   UNL     1      51.662   0.905  17.479  0.00  0.00    +0.000 A 
ATOM     36  N   UNL     1      50.774   1.863  17.055  0.00  0.00    +0.000 N 
ATOM     37  C   UNL     1      50.919   3.196  17.356  0.00  0.00    +0.000 A 
ATOM     38  O   UNL     1      50.031   4.016  17.142  0.00  0.00    +0.000 OA
ATOM     39  C   UNL     1      52.194   3.526  17.951  0.00  0.00    +0.000 A 
ATOM     47  H   UNL     1      49.917   1.598  16.594  0.00  0.00    +0.000 HD
ENDBRANCH  28  30
ENDBRANCH  26  27
ENDBRANCH  25  26
ENDBRANCH  21  22
ENDBRANCH  20  21
TORSDOF 14
ENDMDL
MODEL 5
REMARK VINA RESULT:    -8.272      3.675     10.025
REMARK INTER + INTRA:         -16.553
REMARK INTER:                 -13.371
REMARK INTRA:                  -3.182
REMARK UNBOUND:                -1.995
REMARK  Name = 
REMARK  14 active torsions:
REMARK  status: ('A' for Active; 'I' for Inactive)
REMARK    1  A    between atoms: C_2  and  C_3
REMARK    2  A    between atoms: C_3  and  C_4
REMARK    3  A    between atoms: C_4  and  C_5
REMARK    4  A    between atoms: C_5  and  C_6
REMARK    5  A    between atoms: C_6  and  C_7
REMARK    6  A    between atoms: C_7  and  N_8
REMARK    7  A    between atoms: C_9  and  C_11
REMARK    8  A    between atoms: C_15  and  O_16
REMARK    9  A    between atoms: N_18  and  O_19
REMARK   10  A    between atoms: N_20  and  C_21
REMARK   11  A    between atoms: C_21  and  C_22
REMARK   12  A    between atoms: C_25  and  C_26
REMARK   13  A    between atoms: C_26  and  N_27
REMARK   14  A    between atoms: C_28  and  C_30
REMARK                            x       y       z     vdW  Elec       q    Type
REMARK                         _______ _______ _______ _____ _____    ______ ____
ROOT
ATOM      1  O   UNL     1      52.220   4.845  17.667  0.00  0.00    +0.000 OA
ATOM      2  C   UNL     1      53.159   5.502  17.229  0.00  0.00    +0.000 C 
ATOM     20  N   UNL     1      53.090   6.851  16.965  0.00  0.00    +0.000 N 
ATOM     45  H   UNL     1      53.873   7.309  16.520  0.00  0.00    +0.000 HD
ENDROOT
BRANCH   2   3
ATOM      3  C   UNL     1      54.525   4.886  16.967  0.00  0.00    +0.000 C 
BRANCH   3   4
ATOM      4  C   UNL     1      54.859   3.800  17.990  0.00  0.00    +0.000 C 
BRANCH   4   5
ATOM      5  C   UNL     1      54.637   2.398  17.412  0.00  0.00    +0.000 C 
BRANCH   5   6
ATOM      6  C   UNL     1      53.657   1.576  18.255  0.00  0.00    +0.000 C 
BRANCH   6   7
ATOM      7  C   UNL     1      52.425   1.178  17.442  0.00  0.00    +0.000 C 
BRANCH   7   8
ATOM      8  N   UNL     1      51.290   2.031  17.722  0.00  0.00    +0.000 N 
ATOM      9  C   UNL     1      50.204   2.129  16.894  0.00  0.00    +0.000 C 
ATOM     10  O   UNL     1      50.101   1.490  15.850  0.00  0.00    +0.000 OA
ATOM     42  H   UNL     1      51.301   2.634  18.540  0.00  0.00    +0.000 HD
BRANCH   9  11
ATOM     11  C   UNL     1      49.129   3.092  17.349  0.00  0.00    +0.000 A 
ATOM     12  C   UNL     1      49.305   3.568  18.598  0.00  0.00    +0.000 A 
ATOM     13  C   UNL     1      48.291   4.504  19.147  0.00  0.00    +0.000 A 
ATOM     14  O   UNL     1      48.378   4.952  20.288  0.00  0.00    +0.000 OA
ATOM     15  C   UNL     1      47.150   4.895  18.274  0.00  0.00    +0.000 A 
ATOM     17  C   UNL     1      47.098   4.356  17.051  0.00  0.00    +0.000 A 
ATOM     18  N   UNL     1      48.038   3.475  16.551  0.00  0.00    +0.000 N 
BRANCH  15  16
ATOM     16  O   UNL     1      46.196   5.763  18.758  0.00  0.00    +0.000 OA
ATOM     43  H   UNL     1      45.459   5.187  19.053  0.00  0.00    +0.000 HD
ENDBRANCH  15  16
BRANCH  18  19
ATOM     19  O   UNL     1      47.782   2.874  15.321  0.00  0.00    +0.000 OA
ATOM     44  H   UNL     1      48.539   3.150  14.770  0.00  0.00    +0.000 HD
ENDBRANCH  18  19
ENDBRANCH   9  11
ENDBRANCH   7   8
ENDBRANCH   6   7
ENDBRANCH   5   6
ENDBRANCH   4   5
ENDBRANCH   3   4
ENDBRANCH   2   3
BRANCH  20  21
ATOM     21  C   UNL     1      51.880   7.632  17.148  0.00  0.00    +0.000 C 
BRANCH  21  22
ATOM     22  C   UNL     1      51.035   7.604  15.897  0.00  0.00    +0.000 A 
ATOM     23  C   UNL     1      51.392   8.389  14.794  0.00  0.00    +0.000 A 
ATOM     24  C   UNL     1      50.551   8.485  13.681  0.00  0.00    +0.000 A 
ATOM     25  C   UNL     1      49.320   7.816  13.660  0.00  0.00    +0.000 A 
ATOM     40  C   UNL     1      48.996   6.969  14.732  0.00  0.00    +0.000 A 
ATOM     41  C   UNL     1      49.842   6.869  15.844  0.00  0.00    +0.000 A 
BRANCH  25  26
ATOM     26  C   UNL     1      48.284   8.180  12.623  0.00  0.00    +0.000 C 
BRANCH  26  27
ATOM     27  N   UNL     1      47.798   7.125  11.769  0.00  0.00    +0.000 N 
ATOM     28  C   UNL     1      46.458   6.808  11.873  0.00  0.00    +0.000 C 
ATOM     29  O   UNL     1      45.719   7.454  12.618  0.00  0.00    +0.000 OA
ATOM     46  H   UNL     1      48.428   6.623  11.146  0.00  0.00    +0.000 HD
BRANCH  28  30
ATOM     30  C   UNL     1      45.917   5.666  11.128  0.00  0.00    +0.000 A 
ATOM     31  C   UNL     1      45.933   5.698   9.737  0.00  0.00    +0.000 A 
ATOM     32  S   UNL     1      45.132   4.382   9.007  0.00  0.00    +0.000 S 
ATOM     33  C   UNL     1      44.611   3.815  10.522  0.00  0.00    +0.000 A 
ATOM     34  N   UNL     1      43.655   2.855  10.621  0.00  0.00    +0.000 NA
ATOM     35  C   UNL     1      43.296   2.593  11.834  0.00  0.00    +0.000 A 
ATOM     36  N   UNL     1      43.882   3.124  12.956  0.00  0.00    +0.000 N 
ATOM     37  C   UNL     1      44.940   4.000  12.898  0.00  0.00    +0.000 A 
ATOM     38  O   UNL     1      45.580   4.319  13.895  0.00  0.00    +0.000 OA
ATOM     39  C   UNL     1      45.224   4.487  11.568  0.00  0.00    +0.000 A 
ATOM     47  H   UNL     1      43.621   2.796  13.873  0.00  0.00    +0.000 HD
ENDBRANCH  28  30
ENDBRANCH  26  27
ENDBRANCH  25  26
ENDBRANCH  21  22
ENDBRANCH  20  21
TORSDOF 14
ENDMDL
MODEL 6
REMARK VINA RESULT:    -8.054      5.593      7.575
REMARK INTER + INTRA:         -16.170
REMARK INTER:                 -14.247
REMARK INTRA:                  -1.922
REMARK UNBOUND:                -1.995
REMARK  Name = 
REMARK  14 active torsions:
REMARK  status: ('A' for Active; 'I' for Inactive)
REMARK    1  A    between atoms: C_2  and  C_3
REMARK    2  A    between atoms: C_3  and  C_4
REMARK    3  A    between atoms: C_4  and  C_5
REMARK    4  A    between atoms: C_5  and  C_6
REMARK    5  A    between atoms: C_6  and  C_7
REMARK    6  A    between atoms: C_7  and  N_8
REMARK    7  A    between atoms: C_9  and  C_11
REMARK    8  A    between atoms: C_15  and  O_16
REMARK    9  A    between atoms: N_18  and  O_19
REMARK   10  A    between atoms: N_20  and  C_21
REMARK   11  A    between atoms: C_21  and  C_22
REMARK   12  A    between atoms: C_25  and  C_26
REMARK   13  A    between atoms: C_26  and  N_27
REMARK   14  A    between atoms: C_28  and  C_30
REMARK                            x       y       z     vdW  Elec       q    Type
REMARK                         _______ _______ _______ _____ _____    ______ ____
ROOT
ATOM      1  O   UNL     1      44.380   8.452  11.396  0.00  0.00    +0.000 OA
ATOM      2  C   UNL     1      45.142   7.599  11.838  0.00  0.00    +0.000 C 
ATOM     20  N   UNL     1      46.425   7.865  12.261  0.00  0.00    +0.000 N 
ATOM     45  H   UNL     1      47.027   7.100  12.528  0.00  0.00    +0.000 HD
ENDROOT
BRANCH   2   3
ATOM      3  C   UNL     1      44.723   6.145  12.000  0.00  0.00    +0.000 C 
BRANCH   3   4
ATOM      4  C   UNL     1      45.804   5.322  12.701  0.00  0.00    +0.000 C 
BRANCH   4   5
ATOM      5  C   UNL     1      45.454   3.830  12.710  0.00  0.00    +0.000 C 
BRANCH   5   6
ATOM      6  C   UNL     1      43.950   3.593  12.886  0.00  0.00    +0.000 C 
BRANCH   6   7
ATOM      7  C   UNL     1      43.379   2.776  11.727  0.00  0.00    +0.000 C 
BRANCH   7   8
ATOM      8  N   UNL     1      44.363   2.538  10.693  0.00  0.00    +0.000 N 
ATOM      9  C   UNL     1      44.484   3.323   9.577  0.00  0.00    +0.000 C 
ATOM     10  O   UNL     1      43.772   4.302   9.371  0.00  0.00    +0.000 OA
ATOM     42  H   UNL     1      44.969   1.724  10.750  0.00  0.00    +0.000 HD
BRANCH   9  11
ATOM     11  C   UNL     1      45.558   2.898   8.600  0.00  0.00    +0.000 A 
ATOM     12  C   UNL     1      45.683   1.562   8.462  0.00  0.00    +0.000 A 
ATOM     13  C   UNL     1      46.726   1.042   7.542  0.00  0.00    +0.000 A 
ATOM     14  O   UNL     1      46.911  -0.164   7.392  0.00  0.00    +0.000 OA
ATOM     15  C   UNL     1      47.557   2.026   6.793  0.00  0.00    +0.000 A 
ATOM     17  C   UNL     1      47.324   3.323   7.016  0.00  0.00    +0.000 A 
ATOM     18  N   UNL     1      46.361   3.801   7.884  0.00  0.00    +0.000 N 
BRANCH  15  16
ATOM     16  O   UNL     1      48.531   1.570   5.932  0.00  0.00    +0.000 OA
ATOM     43  H   UNL     1      49.043   0.916   6.455  0.00  0.00    +0.000 HD
ENDBRANCH  15  16
BRANCH  18  19
ATOM     19  O   UNL     1      46.328   5.171   8.135  0.00  0.00    +0.000 OA
ATOM     44  H   UNL     1      45.658   5.502   7.506  0.00  0.00    +0.000 HD
ENDBRANCH  18  19
ENDBRANCH   9  11
ENDBRANCH   7   8
ENDBRANCH   6   7
ENDBRANCH   5   6
ENDBRANCH   4   5
ENDBRANCH   3   4
ENDBRANCH   2   3
BRANCH  20  21
ATOM     21  C   UNL     1      47.020   9.188  12.196  0.00  0.00    +0.000 C 
BRANCH  21  22
ATOM     22  C   UNL     1      48.499   9.090  11.911  0.00  0.00    +0.000 A 
ATOM     23  C   UNL     1      49.198  10.212  11.448  0.00  0.00    +0.000 A 
ATOM     24  C   UNL     1      50.534  10.108  11.046  0.00  0.00    +0.000 A 
ATOM     25  C   UNL     1      51.192   8.871  11.075  0.00  0.00    +0.000 A 
ATOM     40  C   UNL     1      50.516   7.763  11.610  0.00  0.00    +0.000 A 
ATOM     41  C   UNL     1      49.180   7.869  12.019  0.00  0.00    +0.000 A 
BRANCH  25  26
ATOM     26  C   UNL     1      52.500   8.698  10.342  0.00  0.00    +0.000 C 
BRANCH  26  27
ATOM     27  N   UNL     1      52.512   7.813   9.203  0.00  0.00    +0.000 N 
ATOM     28  C   UNL     1      53.629   7.014   9.049  0.00  0.00    +0.000 C 
ATOM     29  O   UNL     1      54.528   7.027   9.892  0.00  0.00    +0.000 OA
ATOM     46  H   UNL     1      51.745   7.809   8.535  0.00  0.00    +0.000 HD
BRANCH  28  30
ATOM     30  C   UNL     1      53.770   6.180   7.851  0.00  0.00    +0.000 A 
ATOM     31  C   UNL     1      54.059   4.827   7.999  0.00  0.00    +0.000 A 
ATOM     32  S   UNL     1      54.352   4.019   6.529  0.00  0.00    +0.000 S 
ATOM     33  C   UNL     1      54.254   5.480   5.666  0.00  0.00    +0.000 A 
ATOM     34  N   UNL     1      54.663   5.560   4.373  0.00  0.00    +0.000 NA
ATOM     35  C   UNL     1      54.616   6.753   3.879  0.00  0.00    +0.000 A 
ATOM     36  N   UNL     1      54.094   7.847   4.524  0.00  0.00    +0.000 N 
ATOM     37  C   UNL     1      53.549   7.777   5.785  0.00  0.00    +0.000 A 
ATOM     38  O   UNL     1      52.916   8.706   6.276  0.00  0.00    +0.000 OA
ATOM     39  C   UNL     1      53.785   6.518   6.455  0.00  0.00    +0.000 A 
ATOM     47  H   UNL     1      53.993   8.726   4.041  0.00  0.00    +0.000 HD
ENDBRANCH  28  30
ENDBRANCH  26  27
ENDBRANCH  25  26
ENDBRANCH  21  22
ENDBRANCH  20  21
TORSDOF 14
ENDMDL
MODEL 7
REMARK VINA RESULT:    -7.768      2.947     10.222
REMARK INTER + INTRA:         -15.666
REMARK INTER:                 -13.089
REMARK INTRA:                  -2.576
REMARK UNBOUND:                -1.995
REMARK  Name = 
REMARK  14 active torsions:
REMARK  status: ('A' for Active; 'I' for Inactive)
REMARK    1  A    between atoms: C_2  and  C_3
REMARK    2  A    between atoms: C_3  and  C_4
REMARK    3  A    between atoms: C_4  and  C_5
REMARK    4  A    between atoms: C_5  and  C_6
REMARK    5  A    between atoms: C_6  and  C_7
REMARK    6  A    between atoms: C_7  and  N_8
REMARK    7  A    between atoms: C_9  and  C_11
REMARK    8  A    between atoms: C_15  and  O_16
REMARK    9  A    between atoms: N_18  and  O_19
REMARK   10  A    between atoms: N_20  and  C_21
REMARK   11  A    between atoms: C_21  and  C_22
REMARK   12  A    between atoms: C_25  and  C_26
REMARK   13  A    between atoms: C_26  and  N_27
REMARK   14  A    between atoms: C_28  and  C_30
REMARK                            x       y       z     vdW  Elec       q    Type
REMARK                         _______ _______ _______ _____ _____    ______ ____
ROOT
ATOM      1  O   UNL     1      54.100   7.466  16.835  0.00  0.00    +0.000 OA
ATOM      2  C   UNL     1      53.669   6.323  16.942  0.00  0.00    +0.000 C 
ATOM     20  N   UNL     1      52.357   6.025  17.229  0.00  0.00    +0.000 N 
ATOM     45  H   UNL     1      52.092   5.064  17.393  0.00  0.00    +0.000 HD
ENDROOT
BRANCH   2   3
ATOM      3  C   UNL     1      54.552   5.102  16.726  0.00  0.00    +0.000 C 
BRANCH   3   4
ATOM      4  C   UNL     1      54.351   4.060  17.827  0.00  0.00    +0.000 C 
BRANCH   4   5
ATOM      5  C   UNL     1      54.570   2.638  17.299  0.00  0.00    +0.000 C 
BRANCH   5   6
ATOM      6  C   UNL     1      54.040   1.576  18.268  0.00  0.00    +0.000 C 
BRANCH   6   7
ATOM      7  C   UNL     1      52.730   0.971  17.763  0.00  0.00    +0.000 C 
BRANCH   7   8
ATOM      8  N   UNL     1      51.597   1.832  18.026  0.00  0.00    +0.000 N 
ATOM      9  C   UNL     1      50.580   2.029  17.131  0.00  0.00    +0.000 C 
ATOM     10  O   UNL     1      50.543   1.480  16.033  0.00  0.00    +0.000 OA
ATOM     42  H   UNL     1      51.559   2.367  18.890  0.00  0.00    +0.000 HD
BRANCH   9  11
ATOM     11  C   UNL     1      49.497   2.985  17.581  0.00  0.00    +0.000 A 
ATOM     12  C   UNL     1      48.358   2.908  16.862  0.00  0.00    +0.000 A 
ATOM     13  C   UNL     1      47.240   3.822  17.210  0.00  0.00    +0.000 A 
ATOM     14  O   UNL     1      46.187   3.823  16.577  0.00  0.00    +0.000 OA
ATOM     15  C   UNL     1      47.424   4.751  18.360  0.00  0.00    +0.000 A 
ATOM     17  C   UNL     1      48.600   4.719  18.994  0.00  0.00    +0.000 A 
ATOM     18  N   UNL     1      49.642   3.876  18.656  0.00  0.00    +0.000 N 
BRANCH  15  16
ATOM     16  O   UNL     1      46.402   5.608  18.705  0.00  0.00    +0.000 OA
ATOM     43  H   UNL     1      46.808   6.501  18.693  0.00  0.00    +0.000 HD
ENDBRANCH  15  16
BRANCH  18  19
ATOM     19  O   UNL     1      50.863   4.054  19.303  0.00  0.00    +0.000 OA
ATOM     44  H   UNL     1      50.694   3.721  20.205  0.00  0.00    +0.000 HD
ENDBRANCH  18  19
ENDBRANCH   9  11
ENDBRANCH   7   8
ENDBRANCH   6   7
ENDBRANCH   5   6
ENDBRANCH   4   5
ENDBRANCH   3   4
ENDBRANCH   2   3
BRANCH  20  21
ATOM     21  C   UNL     1      51.349   7.042  17.469  0.00  0.00    +0.000 C 
BRANCH  21  22
ATOM     22  C   UNL     1      50.538   7.289  16.220  0.00  0.00    +0.000 A 
ATOM     23  C   UNL     1      49.317   6.628  16.036  0.00  0.00    +0.000 A 
ATOM     24  C   UNL     1      48.619   6.735  14.829  0.00  0.00    +0.000 A 
ATOM     25  C   UNL     1      49.142   7.487  13.768  0.00  0.00    +0.000 A 
ATOM     40  C   UNL     1      50.327   8.210  13.978  0.00  0.00    +0.000 A 
ATOM     41  C   UNL     1      51.022   8.108  15.190  0.00  0.00    +0.000 A 
BRANCH  25  26
ATOM     26  C   UNL     1      48.567   7.332  12.382  0.00  0.00    +0.000 C 
BRANCH  26  27
ATOM     27  N   UNL     1      47.608   6.275  12.173  0.00  0.00    +0.000 N 
ATOM     28  C   UNL     1      46.318   6.659  11.857  0.00  0.00    +0.000 C 
ATOM     29  O   UNL     1      46.040   7.849  11.702  0.00  0.00    +0.000 OA
ATOM     46  H   UNL     1      47.871   5.299  12.287  0.00  0.00    +0.000 HD
BRANCH  28  30
ATOM     30  C   UNL     1      45.261   5.648  11.753  0.00  0.00    +0.000 A 
ATOM     31  C   UNL     1      44.465   5.384  12.864  0.00  0.00    +0.000 A 
ATOM     32  S   UNL     1      43.390   4.080  12.649  0.00  0.00    +0.000 S 
ATOM     33  C   UNL     1      44.060   3.734  11.126  0.00  0.00    +0.000 A 
ATOM     34  N   UNL     1      43.781   2.568  10.487  0.00  0.00    +0.000 NA
ATOM     35  C   UNL     1      44.435   2.403   9.384  0.00  0.00    +0.000 A 
ATOM     36  N   UNL     1      45.255   3.345   8.813  0.00  0.00    +0.000 N 
ATOM     37  C   UNL     1      45.458   4.588   9.365  0.00  0.00    +0.000 A 
ATOM     38  O   UNL     1      46.032   5.487   8.758  0.00  0.00    +0.000 OA
ATOM     39  C   UNL     1      44.927   4.728  10.701  0.00  0.00    +0.000 A 
ATOM     47  H   UNL     1      45.652   3.190   7.898  0.00  0.00    +0.000 HD
ENDBRANCH  28  30
ENDBRANCH  26  27
ENDBRANCH  25  26
ENDBRANCH  21  22
ENDBRANCH  20  21
TORSDOF 14
ENDMDL
MODEL 8
REMARK VINA RESULT:    -7.682      2.675      4.121
REMARK INTER + INTRA:         -15.515
REMARK INTER:                 -14.004
REMARK INTRA:                  -1.510
REMARK UNBOUND:                -1.995
REMARK  Name = 
REMARK  14 active torsions:
REMARK  status: ('A' for Active; 'I' for Inactive)
REMARK    1  A    between atoms: C_2  and  C_3
REMARK    2  A    between atoms: C_3  and  C_4
REMARK    3  A    between atoms: C_4  and  C_5
REMARK    4  A    between atoms: C_5  and  C_6
REMARK    5  A    between atoms: C_6  and  C_7
REMARK    6  A    between atoms: C_7  and  N_8
REMARK    7  A    between atoms: C_9  and  C_11
REMARK    8  A    between atoms: C_15  and  O_16
REMARK    9  A    between atoms: N_18  and  O_19
REMARK   10  A    between atoms: N_20  and  C_21
REMARK   11  A    between atoms: C_21  and  C_22
REMARK   12  A    between atoms: C_25  and  C_26
REMARK   13  A    between atoms: C_26  and  N_27
REMARK   14  A    between atoms: C_28  and  C_30
REMARK                            x       y       z     vdW  Elec       q    Type
REMARK                         _______ _______ _______ _____ _____    ______ ____
ROOT
ATOM      1  O   UNL     1      47.784   7.973  12.156  0.00  0.00    +0.000 OA
ATOM      2  C   UNL     1      46.965   8.773  12.597  0.00  0.00    +0.000 C 
ATOM     20  N   UNL     1      47.249  10.096  12.849  0.00  0.00    +0.000 N 
ATOM     45  H   UNL     1      46.552  10.675  13.297  0.00  0.00    +0.000 HD
ENDROOT
BRANCH   2   3
ATOM      3  C   UNL     1      45.522   8.382  12.877  0.00  0.00    +0.000 C 
BRANCH   3   4
ATOM      4  C   UNL     1      45.056   7.253  11.958  0.00  0.00    +0.000 C 
BRANCH   4   5
ATOM      5  C   UNL     1      45.036   5.907  12.689  0.00  0.00    +0.000 C 
BRANCH   5   6
ATOM      6  C   UNL     1      43.712   5.162  12.490  0.00  0.00    +0.000 C 
BRANCH   6   7
ATOM      7  C   UNL     1      43.220   5.284  11.047  0.00  0.00    +0.000 C 
BRANCH   7   8
ATOM      8  N   UNL     1      44.166   4.732  10.102  0.00  0.00    +0.000 N 
ATOM      9  C   UNL     1      44.310   3.388   9.881  0.00  0.00    +0.000 C 
ATOM     10  O   UNL     1      43.635   2.541  10.462  0.00  0.00    +0.000 OA
ATOM     42  H   UNL     1      44.802   5.350   9.605  0.00  0.00    +0.000 HD
BRANCH   9  11
ATOM     11  C   UNL     1      45.369   3.007   8.870  0.00  0.00    +0.000 A 
ATOM     12  C   UNL     1      45.565   1.678   8.748  0.00  0.00    +0.000 A 
ATOM     13  C   UNL     1      46.600   1.202   7.797  0.00  0.00    +0.000 A 
ATOM     14  O   UNL     1      46.848   0.006   7.659  0.00  0.00    +0.000 OA
ATOM     15  C   UNL     1      47.345   2.218   7.001  0.00  0.00    +0.000 A 
ATOM     17  C   UNL     1      47.048   3.504   7.213  0.00  0.00    +0.000 A 
ATOM     18  N   UNL     1      46.091   3.941   8.110  0.00  0.00    +0.000 N 
BRANCH  15  16
ATOM     16  O   UNL     1      48.310   1.802   6.111  0.00  0.00    +0.000 OA
ATOM     43  H   UNL     1      48.737   2.629   5.799  0.00  0.00    +0.000 HD
ENDBRANCH  15  16
BRANCH  18  19
ATOM     19  O   UNL     1      45.990   5.311   8.341  0.00  0.00    +0.000 OA
ATOM     44  H   UNL     1      46.708   5.489   8.979  0.00  0.00    +0.000 HD
ENDBRANCH  18  19
ENDBRANCH   9  11
ENDBRANCH   7   8
ENDBRANCH   6   7
ENDBRANCH   5   6
ENDBRANCH   4   5
ENDBRANCH   3   4
ENDBRANCH   2   3
BRANCH  20  21
ATOM     21  C   UNL     1      48.564  10.675  12.648  0.00  0.00    +0.000 C 
BRANCH  21  22
ATOM     22  C   UNL     1      49.441  10.433  13.852  0.00  0.00    +0.000 A 
ATOM     23  C   UNL     1      50.797  10.130  13.681  0.00  0.00    +0.000 A 
ATOM     24  C   UNL     1      51.593   9.765  14.772  0.00  0.00    +0.000 A 
ATOM     25  C   UNL     1      51.041   9.671  16.056  0.00  0.00    +0.000 A 
ATOM     40  C   UNL     1      49.701  10.047  16.241  0.00  0.00    +0.000 A 
ATOM     41  C   UNL     1      48.906  10.419  15.149  0.00  0.00    +0.000 A 
BRANCH  25  26
ATOM     26  C   UNL     1      51.804   8.969  17.153  0.00  0.00    +0.000 C 
BRANCH  26  27
ATOM     27  N   UNL     1      51.257   7.734  17.658  0.00  0.00    +0.000 N 
ATOM     28  C   UNL     1      51.547   6.587  16.944  0.00  0.00    +0.000 C 
ATOM     29  O   UNL     1      52.292   6.632  15.964  0.00  0.00    +0.000 OA
ATOM     46  H   UNL     1      50.661   7.723  18.484  0.00  0.00    +0.000 HD
BRANCH  28  30
ATOM     30  C   UNL     1      50.925   5.314  17.324  0.00  0.00    +0.000 A 
ATOM     31  C   UNL     1      51.722   4.177  17.427  0.00  0.00    +0.000 A 
ATOM     32  S   UNL     1      50.846   2.745  17.718  0.00  0.00    +0.000 S 
ATOM     33  C   UNL     1      49.371   3.574  17.562  0.00  0.00    +0.000 A 
ATOM     34  N   UNL     1      48.198   2.901  17.441  0.00  0.00    +0.000 NA
ATOM     35  C   UNL     1      47.173   3.661  17.238  0.00  0.00    +0.000 A 
ATOM     36  N   UNL     1      47.202   5.034  17.255  0.00  0.00    +0.000 N 
ATOM     37  C   UNL     1      48.348   5.751  17.505  0.00  0.00    +0.000 A 
ATOM     38  O   UNL     1      48.332   6.961  17.709  0.00  0.00    +0.000 OA
ATOM     39  C   UNL     1      49.550   4.947  17.516  0.00  0.00    +0.000 A 
ATOM     47  H   UNL     1      46.346   5.565  17.192  0.00  0.00    +0.000 HD
ENDBRANCH  28  30
ENDBRANCH  26  27
ENDBRANCH  25  26
ENDBRANCH  21  22
ENDBRANCH  20  21
TORSDOF 14
ENDMDL
MODEL 9
REMARK VINA RESULT:    -7.107      3.558     10.063
REMARK INTER + INTRA:         -14.504
REMARK INTER:                 -11.778
REMARK INTRA:                  -2.725
REMARK UNBOUND:                -1.995
REMARK  Name = 
REMARK  14 active torsions:
REMARK  status: ('A' for Active; 'I' for Inactive)
REMARK    1  A    between atoms: C_2  and  C_3
REMARK    2  A    between atoms: C_3  and  C_4
REMARK    3  A    between atoms: C_4  and  C_5
REMARK    4  A    between atoms: C_5  and  C_6
REMARK    5  A    between atoms: C_6  and  C_7
REMARK    6  A    between atoms: C_7  and  N_8
REMARK    7  A    between atoms: C_9  and  C_11
REMARK    8  A    between atoms: C_15  and  O_16
REMARK    9  A    between atoms: N_18  and  O_19
REMARK   10  A    between atoms: N_20  and  C_21
REMARK   11  A    between atoms: C_21  and  C_22
REMARK   12  A    between atoms: C_25  and  C_26
REMARK   13  A    between atoms: C_26  and  N_27
REMARK   14  A    between atoms: C_28  and  C_30
REMARK                            x       y       z     vdW  Elec       q    Type
REMARK                         _______ _______ _______ _____ _____    ______ ____
ROOT
ATOM      1  O   UNL     1      53.942   7.326  18.506  0.00  0.00    +0.000 OA
ATOM      2  C   UNL     1      53.672   6.292  17.903  0.00  0.00    +0.000 C 
ATOM     20  N   UNL     1      53.705   6.177  16.532  0.00  0.00    +0.000 N 
ATOM     45  H   UNL     1      53.384   5.323  16.099  0.00  0.00    +0.000 HD
ENDROOT
BRANCH   2   3
ATOM      3  C   UNL     1      53.307   5.005  18.627  0.00  0.00    +0.000 C 
BRANCH   3   4
ATOM      4  C   UNL     1      53.864   3.776  17.908  0.00  0.00    +0.000 C 
BRANCH   4   5
ATOM      5  C   UNL     1      53.419   2.479  18.591  0.00  0.00    +0.000 C 
BRANCH   5   6
ATOM      6  C   UNL     1      53.171   1.353  17.581  0.00  0.00    +0.000 C 
BRANCH   6   7
ATOM      7  C   UNL     1      51.678   1.059  17.436  0.00  0.00    +0.000 C 
BRANCH   7   8
ATOM      8  N   UNL     1      50.863   2.214  17.745  0.00  0.00    +0.000 N 
ATOM      9  C   UNL     1      49.687   2.496  17.104  0.00  0.00    +0.000 C 
ATOM     10  O   UNL     1      49.222   1.782  16.219  0.00  0.00    +0.000 OA
ATOM     42  H   UNL     1      51.186   2.890  18.432  0.00  0.00    +0.000 HD
BRANCH   9  11
ATOM     11  C   UNL     1      48.992   3.763  17.554  0.00  0.00    +0.000 A 
ATOM     12  C   UNL     1      49.826   4.795  17.795  0.00  0.00    +0.000 A 
ATOM     13  C   UNL     1      49.244   6.078  18.264  0.00  0.00    +0.000 A 
ATOM     14  O   UNL     1      49.950   7.048  18.529  0.00  0.00    +0.000 OA
ATOM     15  C   UNL     1      47.764   6.168  18.409  0.00  0.00    +0.000 A 
ATOM     17  C   UNL     1      47.052   5.072  18.129  0.00  0.00    +0.000 A 
ATOM     18  N   UNL     1      47.601   3.876  17.706  0.00  0.00    +0.000 N 
BRANCH  15  16
ATOM     16  O   UNL     1      47.198   7.347  18.841  0.00  0.00    +0.000 OA
ATOM     43  H   UNL     1      47.959   7.918  19.082  0.00  0.00    +0.000 HD
ENDBRANCH  15  16
BRANCH  18  19
ATOM     19  O   UNL     1      46.758   2.772  17.595  0.00  0.00    +0.000 OA
ATOM     44  H   UNL     1      46.929   2.444  16.691  0.00  0.00    +0.000 HD
ENDBRANCH  18  19
ENDBRANCH   9  11
ENDBRANCH   7   8
ENDBRANCH   6   7
ENDBRANCH   5   6
ENDBRANCH   4   5
ENDBRANCH   3   4
ENDBRANCH   2   3
BRANCH  20  21
ATOM     21  C   UNL     1      54.033   7.285  15.653  0.00  0.00    +0.000 C 
BRANCH  21  22
ATOM     22  C   UNL     1      52.795   7.789  14.950  0.00  0.00    +0.000 A 
ATOM     23  C   UNL     1      51.527   7.434  15.426  0.00  0.00    +0.000 A 
ATOM     24  C   UNL     1      50.373   7.773  14.711  0.00  0.00    +0.000 A 
ATOM     25  C   UNL     1      50.467   8.453  13.490  0.00  0.00    +0.000 A 
ATOM     40  C   UNL     1      51.732   8.875  13.050  0.00  0.00    +0.000 A 
ATOM     41  C   UNL     1      52.886   8.541  13.770  0.00  0.00    +0.000 A 
BRANCH  25  26
ATOM     26  C   UNL     1      49.269   8.522  12.574  0.00  0.00    +0.000 C 
BRANCH  26  27
ATOM     27  N   UNL     1      48.533   7.303  12.348  0.00  0.00    +0.000 N 
ATOM     28  C   UNL     1      47.300   7.198  12.963  0.00  0.00    +0.000 C 
ATOM     29  O   UNL     1      46.843   8.140  13.612  0.00  0.00    +0.000 OA
ATOM     46  H   UNL     1      48.926   6.549  11.788  0.00  0.00    +0.000 HD
BRANCH  28  30
ATOM     30  C   UNL     1      46.548   5.941  12.882  0.00  0.00    +0.000 A 
ATOM     31  C   UNL     1      47.040   4.816  13.537  0.00  0.00    +0.000 A 
ATOM     32  S   UNL     1      46.155   3.394  13.226  0.00  0.00    +0.000 S 
ATOM     33  C   UNL     1      45.185   4.205  12.090  0.00  0.00    +0.000 A 
ATOM     34  N   UNL     1      44.374   3.519  11.243  0.00  0.00    +0.000 NA
ATOM     35  C   UNL     1      43.769   4.262  10.376  0.00  0.00    +0.000 A 
ATOM     36  N   UNL     1      43.818   5.634  10.352  0.00  0.00    +0.000 N 
ATOM     37  C   UNL     1      44.523   6.370  11.275  0.00  0.00    +0.000 A 
ATOM     38  O   UNL     1      44.408   7.588  11.366  0.00  0.00    +0.000 OA
ATOM     39  C   UNL     1      45.387   5.576  12.119  0.00  0.00    +0.000 A 
ATOM     47  H   UNL     1      43.238   6.155   9.712  0.00  0.00    +0.000 HD
ENDBRANCH  28  30
ENDBRANCH  26  27
ENDBRANCH  25  26
ENDBRANCH  21  22
ENDBRANCH  20  21
TORSDOF 14
ENDMDL
