MODEL 1
REMARK VINA RESULT:    -7.234      0.000      0.000
REMARK INTER + INTRA:          -8.716
REMARK INTER:                  -8.926
REMARK INTRA:                   0.210
REMARK UNBOUND:                 0.210
REMARK  Name = 
REMARK  5 active torsions:
REMARK  status: ('A' for Active; 'I' for Inactive)
REMARK    1  A    between atoms: C_1  and  N_2
REMARK    2  A    between atoms: C_6  and  C_8
REMARK    3  A    between atoms: C_8  and  N_9
REMARK    4  A    between atoms: C_10  and  C_11
REMARK    5  A    between atoms: C_17  and  C_18
REMARK                            x       y       z     vdW  Elec       q    Type
REMARK                         _______ _______ _______ _____ _____    ______ ____
ROOT
ATOM      9  N   UNL     1      44.634   4.939  10.295  0.00  0.00    +0.000 N 
ATOM     10  C   UNL     1      43.841   3.916  10.778  0.00  0.00    +0.000 A 
ATOM     14  C   UNL     1      44.023   2.815   9.965  0.00  0.00    +0.000 A 
ATOM     15  C   UNL     1      45.033   3.128   9.028  0.00  0.00    +0.000 A 
ATOM     16  C   UNL     1      45.717   2.401   8.037  0.00  0.00    +0.000 A 
ATOM     17  C   UNL     1      46.721   3.057   7.323  0.00  0.00    +0.000 A 
ATOM     21  C   UNL     1      46.963   4.400   7.617  0.00  0.00    +0.000 A 
ATOM     22  N   UNL     1      46.330   5.149   8.563  0.00  0.00    +0.000 NA
ATOM     23  C   UNL     1      45.384   4.459   9.237  0.00  0.00    +0.000 A 
ENDROOT
BRANCH  17  18
ATOM     18  C   UNL     1      47.559   2.397   6.296  0.00  0.00    +0.000 C 
ATOM     19  N   UNL     1      47.700   2.992   5.070  0.00  0.00    +0.000 N 
ATOM     20  O   UNL     1      48.111   1.324   6.515  0.00  0.00    +0.000 OA
ATOM     26  H   UNL     1      47.277   3.864   4.794  0.00  0.00    +0.000 HD
ATOM     27  H   UNL     1      48.267   2.504   4.388  0.00  0.00    +0.000 HD
ENDBRANCH  17  18
BRANCH  10  11
ATOM     11  C   UNL     1      42.930   3.959  12.000  0.00  0.00    +0.000 C 
ATOM     12  C   UNL     1      42.914   5.215  12.854  0.00  0.00    +0.000 C 
ATOM     13  C   UNL     1      43.573   3.983  13.371  0.00  0.00    +0.000 C 
ENDBRANCH  10  11
BRANCH   9   8
ATOM      8  C   UNL     1      44.868   6.240  10.922  0.00  0.00    +0.000 C 
BRANCH   8   6
ATOM      1  C   UNL     1      48.386  11.426  12.982  0.00  0.00    +0.000 C 
ATOM      2  N   UNL     1      47.489  10.270  12.996  0.00  0.00    +0.000 NA
ATOM      3  C   UNL     1      46.860  10.072  11.678  0.00  0.00    +0.000 C 
ATOM      4  C   UNL     1      45.900   8.862  11.666  0.00  0.00    +0.000 C 
ATOM      5  N   UNL     1      46.528   7.628  12.159  0.00  0.00    +0.000 N 
ATOM      6  C   UNL     1      46.067   6.332  11.860  0.00  0.00    +0.000 C 
ATOM      7  O   UNL     1      46.604   5.338  12.349  0.00  0.00    +0.000 OA
ATOM     24  C   UNL     1      47.316   7.799  13.387  0.00  0.00    +0.000 C 
ATOM     25  C   UNL     1      48.224   9.045  13.372  0.00  0.00    +0.000 C 
ENDBRANCH   8   6
ENDBRANCH   9   8
TORSDOF 4
ENDMDL
MODEL 2
REMARK VINA RESULT:    -7.093      4.727      6.960
REMARK INTER + INTRA:          -8.542
REMARK INTER:                  -7.750
REMARK INTRA:                  -0.792
REMARK UNBOUND:                 0.210
REMARK  Name = 
REMARK  5 active torsions:
REMARK  status: ('A' for Active; 'I' for Inactive)
REMARK    1  A    between atoms: C_1  and  N_2
REMARK    2  A    between atoms: C_6  and  C_8
REMARK    3  A    between atoms: C_8  and  N_9
REMARK    4  A    between atoms: C_10  and  C_11
REMARK    5  A    between atoms: C_17  and  C_18
REMARK                            x       y       z     vdW  Elec       q    Type
REMARK                         _______ _______ _______ _____ _____    ______ ____
ROOT
ATOM      9  N   UNL     1      47.521   5.416  14.607  0.00  0.00    +0.000 N 
ATOM     10  C   UNL     1      48.265   6.502  14.190  0.00  0.00    +0.000 A 
ATOM     14  C   UNL     1      47.821   6.868  12.935  0.00  0.00    +0.000 A 
ATOM     15  C   UNL     1      46.706   6.061  12.616  0.00  0.00    +0.000 A 
ATOM     16  C   UNL     1      45.783   6.032  11.554  0.00  0.00    +0.000 A 
ATOM     17  C   UNL     1      44.751   5.095  11.613  0.00  0.00    +0.000 A 
ATOM     21  C   UNL     1      44.716   4.227  12.706  0.00  0.00    +0.000 A 
ATOM     22  N   UNL     1      45.584   4.212  13.757  0.00  0.00    +0.000 NA
ATOM     23  C   UNL     1      46.549   5.152  13.658  0.00  0.00    +0.000 A 
ENDROOT
BRANCH  17  18
ATOM     18  C   UNL     1      43.679   4.993  10.597  0.00  0.00    +0.000 C 
ATOM     19  N   UNL     1      43.995   4.556   9.338  0.00  0.00    +0.000 N 
ATOM     20  O   UNL     1      42.523   5.310  10.856  0.00  0.00    +0.000 OA
ATOM     26  H   UNL     1      44.915   4.286   9.030  0.00  0.00    +0.000 HD
ATOM     27  H   UNL     1      43.239   4.515   8.665  0.00  0.00    +0.000 HD
ENDBRANCH  17  18
BRANCH  10  11
ATOM     11  C   UNL     1      49.373   7.208  14.965  0.00  0.00    +0.000 C 
ATOM     12  C   UNL     1      48.988   8.244  16.007  0.00  0.00    +0.000 C 
ATOM     13  C   UNL     1      49.589   8.687  14.718  0.00  0.00    +0.000 C 
ENDBRANCH  10  11
BRANCH   9   8
ATOM      8  C   UNL     1      47.546   4.787  15.928  0.00  0.00    +0.000 C 
BRANCH   8   6
ATOM      1  C   UNL     1      53.399   3.468  18.668  0.00  0.00    +0.000 C 
ATOM      2  N   UNL     1      51.956   3.474  18.424  0.00  0.00    +0.000 NA
ATOM      3  C   UNL     1      51.542   4.706  17.730  0.00  0.00    +0.000 C 
ATOM      4  C   UNL     1      50.020   4.743  17.466  0.00  0.00    +0.000 C 
ATOM      5  N   UNL     1      49.529   3.541  16.779  0.00  0.00    +0.000 N 
ATOM      6  C   UNL     1      48.331   3.485  16.041  0.00  0.00    +0.000 C 
ATOM      7  O   UNL     1      47.945   2.432  15.534  0.00  0.00    +0.000 OA
ATOM     24  C   UNL     1      50.047   2.278  17.323  0.00  0.00    +0.000 C 
ATOM     25  C   UNL     1      51.560   2.304  17.614  0.00  0.00    +0.000 C 
ENDBRANCH   8   6
ENDBRANCH   9   8
TORSDOF 4
ENDMDL
MODEL 3
REMARK VINA RESULT:    -6.986      3.979      6.704
REMARK INTER + INTRA:          -8.410
REMARK INTER:                  -7.562
REMARK INTRA:                  -0.848
REMARK UNBOUND:                 0.210
REMARK  Name = 
REMARK  5 active torsions:
REMARK  status: ('A' for Active; 'I' for Inactive)
REMARK    1  A    between atoms: C_1  and  N_2
REMARK    2  A    between atoms: C_6  and  C_8
REMARK    3  A    between atoms: C_8  and  N_9
REMARK    4  A    between atoms: C_10  and  C_11
REMARK    5  A    between atoms: C_17  and  C_18
REMARK                            x       y       z     vdW  Elec       q    Type
REMARK                         _______ _______ _______ _____ _____    ______ ____
ROOT
ATOM      9  N   UNL     1      48.567   7.028  13.405  0.00  0.00    +0.000 N 
ATOM     10  C   UNL     1      48.333   8.012  12.463  0.00  0.00    +0.000 A 
ATOM     14  C   UNL     1      47.325   7.572  11.629  0.00  0.00    +0.000 A 
ATOM     15  C   UNL     1      46.851   6.340  12.131  0.00  0.00    +0.000 A 
ATOM     16  C   UNL     1      45.792   5.479  11.789  0.00  0.00    +0.000 A 
ATOM     17  C   UNL     1      45.596   4.342  12.575  0.00  0.00    +0.000 A 
ATOM     21  C   UNL     1      46.479   4.117  13.632  0.00  0.00    +0.000 A 
ATOM     22  N   UNL     1      47.520   4.915  14.003  0.00  0.00    +0.000 NA
ATOM     23  C   UNL     1      47.649   6.010  13.222  0.00  0.00    +0.000 A 
ENDROOT
BRANCH  17  18
ATOM     18  C   UNL     1      44.487   3.384  12.366  0.00  0.00    +0.000 C 
ATOM     19  N   UNL     1      44.455   2.645  11.213  0.00  0.00    +0.000 N 
ATOM     20  O   UNL     1      43.590   3.255  13.193  0.00  0.00    +0.000 OA
ATOM     26  H   UNL     1      45.138   2.690  10.473  0.00  0.00    +0.000 HD
ATOM     27  H   UNL     1      43.673   2.012  11.098  0.00  0.00    +0.000 HD
ENDBRANCH  17  18
BRANCH  10  11
ATOM     11  C   UNL     1      49.032   9.362  12.352  0.00  0.00    +0.000 C 
ATOM     12  C   UNL     1      48.336  10.592  12.910  0.00  0.00    +0.000 C 
ATOM     13  C   UNL     1      48.431  10.407  11.435  0.00  0.00    +0.000 C 
ENDBRANCH  10  11
BRANCH   9   8
ATOM      8  C   UNL     1      49.445   7.120  14.572  0.00  0.00    +0.000 C 
BRANCH   8   6
ATOM      1  C   UNL     1      48.744   4.486  20.578  0.00  0.00    +0.000 C 
ATOM      2  N   UNL     1      49.193   5.364  19.497  0.00  0.00    +0.000 NA
ATOM      3  C   UNL     1      49.139   4.673  18.197  0.00  0.00    +0.000 C 
ATOM      4  C   UNL     1      49.615   5.575  17.037  0.00  0.00    +0.000 C 
ATOM      5  N   UNL     1      48.918   6.868  16.994  0.00  0.00    +0.000 N 
ATOM      6  C   UNL     1      48.820   7.677  15.845  0.00  0.00    +0.000 C 
ATOM      7  O   UNL     1      48.269   8.777  15.888  0.00  0.00    +0.000 OA
ATOM     24  C   UNL     1      48.790   7.530  18.300  0.00  0.00    +0.000 C 
ATOM     25  C   UNL     1      48.358   6.581  19.435  0.00  0.00    +0.000 C 
ENDBRANCH   8   6
ENDBRANCH   9   8
TORSDOF 4
ENDMDL
MODEL 4
REMARK VINA RESULT:    -6.850      5.491      8.462
REMARK INTER + INTRA:          -8.242
REMARK INTER:                  -7.634
REMARK INTRA:                  -0.608
REMARK UNBOUND:                 0.210
REMARK  Name = 
REMARK  5 active torsions:
REMARK  status: ('A' for Active; 'I' for Inactive)
REMARK    1  A    between atoms: C_1  and  N_2
REMARK    2  A    between atoms: C_6  and  C_8
REMARK    3  A    between atoms: C_8  and  N_9
REMARK    4  A    between atoms: C_10  and  C_11
REMARK    5  A    between atoms: C_17  and  C_18
REMARK                            x       y       z     vdW  Elec       q    Type
REMARK                         _______ _______ _______ _____ _____    ______ ____
ROOT
ATOM      9  N   UNL     1      48.300   5.007  16.644  0.00  0.00    +0.000 N 
ATOM     10  C   UNL     1      48.813   6.123  17.277  0.00  0.00    +0.000 A 
ATOM     14  C   UNL     1      49.934   5.736  17.984  0.00  0.00    +0.000 A 
ATOM     15  C   UNL     1      50.183   4.377  17.694  0.00  0.00    +0.000 A 
ATOM     16  C   UNL     1      51.213   3.473  18.016  0.00  0.00    +0.000 A 
ATOM     17  C   UNL     1      51.139   2.185  17.485  0.00  0.00    +0.000 A 
ATOM     21  C   UNL     1      50.035   1.865  16.693  0.00  0.00    +0.000 A 
ATOM     22  N   UNL     1      49.012   2.699  16.354  0.00  0.00    +0.000 NA
ATOM     23  C   UNL     1      49.146   3.937  16.876  0.00  0.00    +0.000 A 
ENDROOT
BRANCH  17  18
ATOM     18  C   UNL     1      52.181   1.154  17.693  0.00  0.00    +0.000 C 
ATOM     19  N   UNL     1      51.821  -0.062  18.212  0.00  0.00    +0.000 N 
ATOM     20  O   UNL     1      53.358   1.373  17.428  0.00  0.00    +0.000 OA
ATOM     26  H   UNL     1      50.884  -0.329  18.471  0.00  0.00    +0.000 HD
ATOM     27  H   UNL     1      52.562  -0.736  18.356  0.00  0.00    +0.000 HD
ENDBRANCH  17  18
BRANCH  10  11
ATOM     11  C   UNL     1      48.271   7.547  17.209  0.00  0.00    +0.000 C 
ATOM     12  C   UNL     1      48.824   8.488  16.151  0.00  0.00    +0.000 C 
ATOM     13  C   UNL     1      49.201   8.685  17.579  0.00  0.00    +0.000 C 
ENDBRANCH  10  11
BRANCH   9   8
ATOM      8  C   UNL     1      47.206   4.972  15.674  0.00  0.00    +0.000 C 
BRANCH   8   6
ATOM      1  C   UNL     1      43.802   4.568  10.039  0.00  0.00    +0.000 C 
ATOM      2  N   UNL     1      44.467   5.129  11.215  0.00  0.00    +0.000 NA
ATOM      3  C   UNL     1      44.509   4.150  12.316  0.00  0.00    +0.000 C 
ATOM      4  C   UNL     1      45.200   4.719  13.576  0.00  0.00    +0.000 C 
ATOM      5  N   UNL     1      46.530   5.278  13.295  0.00  0.00    +0.000 N 
ATOM      6  C   UNL     1      47.535   5.452  14.266  0.00  0.00    +0.000 C 
ATOM      7  O   UNL     1      48.611   5.978  13.979  0.00  0.00    +0.000 OA
ATOM     24  C   UNL     1      46.588   6.132  12.101  0.00  0.00    +0.000 C 
ATOM     25  C   UNL     1      45.845   5.546  10.884  0.00  0.00    +0.000 C 
ENDBRANCH   8   6
ENDBRANCH   9   8
TORSDOF 4
ENDMDL
MODEL 5
REMARK VINA RESULT:    -6.807      4.129      6.455
REMARK INTER + INTRA:          -8.189
REMARK INTER:                  -7.612
REMARK INTRA:                  -0.578
REMARK UNBOUND:                 0.210
REMARK  Name = 
REMARK  5 active torsions:
REMARK  status: ('A' for Active; 'I' for Inactive)
REMARK    1  A    between atoms: C_1  and  N_2
REMARK    2  A    between atoms: C_6  and  C_8
REMARK    3  A    between atoms: C_8  and  N_9
REMARK    4  A    between atoms: C_10  and  C_11
REMARK    5  A    between atoms: C_17  and  C_18
REMARK                            x       y       z     vdW  Elec       q    Type
REMARK                         _______ _______ _______ _____ _____    ______ ____
ROOT
ATOM      9  N   UNL     1      46.331   5.589  13.226  0.00  0.00    +0.000 N 
ATOM     10  C   UNL     1      45.694   5.544  12.001  0.00  0.00    +0.000 A 
ATOM     14  C   UNL     1      46.380   6.368  11.132  0.00  0.00    +0.000 A 
ATOM     15  C   UNL     1      47.528   6.846  11.801  0.00  0.00    +0.000 A 
ATOM     16  C   UNL     1      48.642   7.616  11.418  0.00  0.00    +0.000 A 
ATOM     17  C   UNL     1      49.634   7.847  12.372  0.00  0.00    +0.000 A 
ATOM     21  C   UNL     1      49.444   7.326  13.653  0.00  0.00    +0.000 A 
ATOM     22  N   UNL     1      48.385   6.578  14.076  0.00  0.00    +0.000 NA
ATOM     23  C   UNL     1      47.469   6.368  13.107  0.00  0.00    +0.000 A 
ENDROOT
BRANCH  17  18
ATOM     18  C   UNL     1      50.884   8.587  12.090  0.00  0.00    +0.000 C 
ATOM     19  N   UNL     1      52.064   8.126  12.613  0.00  0.00    +0.000 N 
ATOM     20  O   UNL     1      50.881   9.613  11.417  0.00  0.00    +0.000 OA
ATOM     26  H   UNL     1      52.164   7.302  13.185  0.00  0.00    +0.000 HD
ATOM     27  H   UNL     1      52.896   8.667  12.412  0.00  0.00    +0.000 HD
ENDBRANCH  17  18
BRANCH  10  11
ATOM     11  C   UNL     1      44.461   4.722  11.638  0.00  0.00    +0.000 C 
ATOM     12  C   UNL     1      44.657   3.332  11.058  0.00  0.00    +0.000 C 
ATOM     13  C   UNL     1      44.197   4.439  10.173  0.00  0.00    +0.000 C 
ENDBRANCH  10  11
BRANCH   9   8
ATOM      8  C   UNL     1      46.040   4.767  14.400  0.00  0.00    +0.000 C 
BRANCH   8   6
ATOM      1  C   UNL     1      49.672   4.433  19.896  0.00  0.00    +0.000 C 
ATOM      2  N   UNL     1      48.696   4.091  18.860  0.00  0.00    +0.000 NA
ATOM      3  C   UNL     1      48.207   5.300  18.174  0.00  0.00    +0.000 C 
ATOM      4  C   UNL     1      47.169   4.969  17.078  0.00  0.00    +0.000 C 
ATOM      5  N   UNL     1      47.646   3.957  16.125  0.00  0.00    +0.000 N 
ATOM      6  C   UNL     1      47.128   3.788  14.826  0.00  0.00    +0.000 C 
ATOM      7  O   UNL     1      47.533   2.886  14.093  0.00  0.00    +0.000 OA
ATOM     24  C   UNL     1      48.301   2.799  16.747  0.00  0.00    +0.000 C 
ATOM     25  C   UNL     1      49.293   3.176  17.865  0.00  0.00    +0.000 C 
ENDBRANCH   8   6
ENDBRANCH   9   8
TORSDOF 4
ENDMDL
MODEL 6
REMARK VINA RESULT:    -6.569      4.220      8.872
REMARK INTER + INTRA:          -7.896
REMARK INTER:                  -7.130
REMARK INTRA:                  -0.765
REMARK UNBOUND:                 0.210
REMARK  Name = 
REMARK  5 active torsions:
REMARK  status: ('A' for Active; 'I' for Inactive)
REMARK    1  A    between atoms: C_1  and  N_2
REMARK    2  A    between atoms: C_6  and  C_8
REMARK    3  A    between atoms: C_8  and  N_9
REMARK    4  A    between atoms: C_10  and  C_11
REMARK    5  A    between atoms: C_17  and  C_18
REMARK                            x       y       z     vdW  Elec       q    Type
REMARK                         _______ _______ _______ _____ _____    ______ ____
ROOT
ATOM      9  N   UNL     1      48.760   7.056  14.757  0.00  0.00    +0.000 N 
ATOM     10  C   UNL     1      49.489   8.197  15.031  0.00  0.00    +0.000 A 
ATOM     14  C   UNL     1      49.772   8.209  16.382  0.00  0.00    +0.000 A 
ATOM     15  C   UNL     1      49.304   6.996  16.935  0.00  0.00    +0.000 A 
ATOM     16  C   UNL     1      49.393   6.394  18.204  0.00  0.00    +0.000 A 
ATOM     17  C   UNL     1      48.836   5.124  18.362  0.00  0.00    +0.000 A 
ATOM     21  C   UNL     1      48.201   4.545  17.262  0.00  0.00    +0.000 A 
ATOM     22  N   UNL     1      48.086   5.086  16.016  0.00  0.00    +0.000 NA
ATOM     23  C   UNL     1      48.660   6.304  15.914  0.00  0.00    +0.000 A 
ENDROOT
BRANCH  17  18
ATOM     18  C   UNL     1      48.909   4.350  19.622  0.00  0.00    +0.000 C 
ATOM     19  N   UNL     1      48.382   3.086  19.658  0.00  0.00    +0.000 N 
ATOM     20  O   UNL     1      49.413   4.824  20.634  0.00  0.00    +0.000 OA
ATOM     26  H   UNL     1      47.939   2.618  18.883  0.00  0.00    +0.000 HD
ATOM     27  H   UNL     1      48.435   2.593  20.541  0.00  0.00    +0.000 HD
ENDBRANCH  17  18
BRANCH  10  11
ATOM     11  C   UNL     1      49.935   9.262  14.035  0.00  0.00    +0.000 C 
ATOM     12  C   UNL     1      51.217   9.037  13.251  0.00  0.00    +0.000 C 
ATOM     13  C   UNL     1      51.192  10.049  14.344  0.00  0.00    +0.000 C 
ENDBRANCH  10  11
BRANCH   9   8
ATOM      8  C   UNL     1      48.366   6.559  13.438  0.00  0.00    +0.000 C 
BRANCH   8   6
ATOM      1  C   UNL     1      43.325   2.561  11.986  0.00  0.00    +0.000 C 
ATOM      2  N   UNL     1      44.144   3.559  12.674  0.00  0.00    +0.000 NA
ATOM      3  C   UNL     1      45.578   3.331  12.423  0.00  0.00    +0.000 C 
ATOM      4  C   UNL     1      46.469   4.367  13.144  0.00  0.00    +0.000 C 
ATOM      5  N   UNL     1      46.081   5.755  12.855  0.00  0.00    +0.000 N 
ATOM      6  C   UNL     1      46.938   6.863  13.000  0.00  0.00    +0.000 C 
ATOM      7  O   UNL     1      46.537   8.008  12.795  0.00  0.00    +0.000 OA
ATOM     24  C   UNL     1      44.635   6.006  12.923  0.00  0.00    +0.000 C 
ATOM     25  C   UNL     1      43.785   4.922  12.231  0.00  0.00    +0.000 C 
ENDBRANCH   8   6
ENDBRANCH   9   8
TORSDOF 4
ENDMDL
MODEL 7
REMARK VINA RESULT:    -6.421      4.196      5.939
REMARK INTER + INTRA:          -7.713
REMARK INTER:                  -7.226
REMARK INTRA:                  -0.487
REMARK UNBOUND:                 0.210
REMARK  Name = 
REMARK  5 active torsions:
REMARK  status: ('A' for Active; 'I' for Inactive)
REMARK    1  A    between atoms: C_1  and  N_2
REMARK    2  A    between atoms: C_6  and  C_8
REMARK    3  A    between atoms: C_8  and  N_9
REMARK    4  A    between atoms: C_10  and  C_11
REMARK    5  A    between atoms: C_17  and  C_18
REMARK                            x       y       z     vdW  Elec       q    Type
REMARK                         _______ _______ _______ _____ _____    ______ ____
ROOT
ATOM      9  N   UNL     1      47.907   5.897  14.931  0.00  0.00    +0.000 N 
ATOM     10  C   UNL     1      47.518   4.757  15.607  0.00  0.00    +0.000 A 
ATOM     14  C   UNL     1      46.574   4.106  14.840  0.00  0.00    +0.000 A 
ATOM     15  C   UNL     1      46.457   4.798  13.614  0.00  0.00    +0.000 A 
ATOM     16  C   UNL     1      45.758   4.567  12.414  0.00  0.00    +0.000 A 
ATOM     17  C   UNL     1      45.939   5.475  11.370  0.00  0.00    +0.000 A 
ATOM     21  C   UNL     1      46.777   6.569  11.590  0.00  0.00    +0.000 A 
ATOM     22  N   UNL     1      47.473   6.840  12.730  0.00  0.00    +0.000 NA
ATOM     23  C   UNL     1      47.279   5.919  13.698  0.00  0.00    +0.000 A 
ENDROOT
BRANCH  17  18
ATOM     18  C   UNL     1      45.314   5.322  10.036  0.00  0.00    +0.000 C 
ATOM     19  N   UNL     1      43.972   5.058   9.957  0.00  0.00    +0.000 N 
ATOM     20  O   UNL     1      45.976   5.407   9.007  0.00  0.00    +0.000 OA
ATOM     26  H   UNL     1      43.350   4.959  10.744  0.00  0.00    +0.000 HD
ATOM     27  H   UNL     1      43.582   4.944   9.029  0.00  0.00    +0.000 HD
ENDBRANCH  17  18
BRANCH  10  11
ATOM     11  C   UNL     1      48.037   4.268  16.955  0.00  0.00    +0.000 C 
ATOM     12  C   UNL     1      48.886   3.008  16.996  0.00  0.00    +0.000 C 
ATOM     13  C   UNL     1      47.486   2.968  17.505  0.00  0.00    +0.000 C 
ENDBRANCH  10  11
BRANCH   9   8
ATOM      8  C   UNL     1      48.988   6.812  15.298  0.00  0.00    +0.000 C 
BRANCH   8   6
ATOM      1  C   UNL     1      47.142   9.436  21.061  0.00  0.00    +0.000 C 
ATOM      2  N   UNL     1      47.925   9.156  19.857  0.00  0.00    +0.000 NA
ATOM      3  C   UNL     1      47.660   7.794  19.359  0.00  0.00    +0.000 C 
ATOM      4  C   UNL     1      48.480   7.467  18.091  0.00  0.00    +0.000 C 
ATOM      5  N   UNL     1      48.322   8.473  17.032  0.00  0.00    +0.000 N 
ATOM      6  C   UNL     1      48.574   8.232  15.668  0.00  0.00    +0.000 C 
ATOM      7  O   UNL     1      48.476   9.133  14.835  0.00  0.00    +0.000 OA
ATOM     24  C   UNL     1      48.406   9.863  17.500  0.00  0.00    +0.000 C 
ATOM     25  C   UNL     1      47.611  10.131  18.793  0.00  0.00    +0.000 C 
ENDBRANCH   8   6
ENDBRANCH   9   8
TORSDOF 4
ENDMDL
MODEL 8
REMARK VINA RESULT:    -6.307      3.627      6.270
REMARK INTER + INTRA:          -7.572
REMARK INTER:                  -6.895
REMARK INTRA:                  -0.677
REMARK UNBOUND:                 0.210
REMARK  Name = 
REMARK  5 active torsions:
REMARK  status: ('A' for Active; 'I' for Inactive)
REMARK    1  A    between atoms: C_1  and  N_2
REMARK    2  A    between atoms: C_6  and  C_8
REMARK    3  A    between atoms: C_8  and  N_9
REMARK    4  A    between atoms: C_10  and  C_11
REMARK    5  A    between atoms: C_17  and  C_18
REMARK                            x       y       z     vdW  Elec       q    Type
REMARK                         _______ _______ _______ _____ _____    ______ ____
ROOT
ATOM      9  N   UNL     1      47.951   7.160  13.562  0.00  0.00    +0.000 N 
ATOM     10  C   UNL     1      48.217   7.898  12.425  0.00  0.00    +0.000 A 
ATOM     14  C   UNL     1      47.518   7.334  11.376  0.00  0.00    +0.000 A 
ATOM     15  C   UNL     1      46.717   6.293  11.897  0.00  0.00    +0.000 A 
ATOM     16  C   UNL     1      45.733   5.444  11.358  0.00  0.00    +0.000 A 
ATOM     17  C   UNL     1      45.101   4.548  12.222  0.00  0.00    +0.000 A 
ATOM     21  C   UNL     1      45.507   4.530  13.558  0.00  0.00    +0.000 A 
ATOM     22  N   UNL     1      46.454   5.327  14.128  0.00  0.00    +0.000 NA
ATOM     23  C   UNL     1      47.016   6.188  13.252  0.00  0.00    +0.000 A 
ENDROOT
BRANCH  17  18
ATOM     18  C   UNL     1      44.009   3.640  11.804  0.00  0.00    +0.000 C 
ATOM     19  N   UNL     1      43.882   2.423  12.420  0.00  0.00    +0.000 N 
ATOM     20  O   UNL     1      43.232   3.948  10.907  0.00  0.00    +0.000 OA
ATOM     26  H   UNL     1      44.478   2.079  13.157  0.00  0.00    +0.000 HD
ATOM     27  H   UNL     1      43.134   1.823  12.097  0.00  0.00    +0.000 HD
ENDBRANCH  17  18
BRANCH  10  11
ATOM     11  C   UNL     1      49.104   9.134  12.319  0.00  0.00    +0.000 C 
ATOM     12  C   UNL     1      48.546  10.473  12.771  0.00  0.00    +0.000 C 
ATOM     13  C   UNL     1      48.724  10.204  11.316  0.00  0.00    +0.000 C 
ENDBRANCH  10  11
BRANCH   9   8
ATOM      8  C   UNL     1      48.359   7.475  14.931  0.00  0.00    +0.000 C 
BRANCH   8   6
ATOM      1  C   UNL     1      54.916   8.021  15.398  0.00  0.00    +0.000 C 
ATOM      2  N   UNL     1      53.504   7.947  15.776  0.00  0.00    +0.000 NA
ATOM      3  C   UNL     1      52.637   8.400  14.674  0.00  0.00    +0.000 C 
ATOM      4  C   UNL     1      51.139   8.340  15.047  0.00  0.00    +0.000 C 
ATOM      5  N   UNL     1      50.729   7.024  15.556  0.00  0.00    +0.000 N 
ATOM      6  C   UNL     1      49.401   6.554  15.554  0.00  0.00    +0.000 C 
ATOM      7  O   UNL     1      49.113   5.463  16.045  0.00  0.00    +0.000 OA
ATOM     24  C   UNL     1      51.651   6.440  16.540  0.00  0.00    +0.000 C 
ATOM     25  C   UNL     1      53.136   6.565  16.146  0.00  0.00    +0.000 C 
ENDBRANCH   8   6
ENDBRANCH   9   8
TORSDOF 4
ENDMDL
MODEL 9
REMARK VINA RESULT:    -6.119      3.709      6.010
REMARK INTER + INTRA:          -7.340
REMARK INTER:                  -6.800
REMARK INTRA:                  -0.540
REMARK UNBOUND:                 0.210
REMARK  Name = 
REMARK  5 active torsions:
REMARK  status: ('A' for Active; 'I' for Inactive)
REMARK    1  A    between atoms: C_1  and  N_2
REMARK    2  A    between atoms: C_6  and  C_8
REMARK    3  A    between atoms: C_8  and  N_9
REMARK    4  A    between atoms: C_10  and  C_11
REMARK    5  A    between atoms: C_17  and  C_18
REMARK                            x       y       z     vdW  Elec       q    Type
REMARK                         _______ _______ _______ _____ _____    ______ ____
ROOT
ATOM      9  N   UNL     1      46.666   5.832  12.479  0.00  0.00    +0.000 N 
ATOM     10  C   UNL     1      45.598   4.975  12.302  0.00  0.00    +0.000 A 
ATOM     14  C   UNL     1      45.552   4.119  13.385  0.00  0.00    +0.000 A 
ATOM     15  C   UNL     1      46.545   4.527  14.304  0.00  0.00    +0.000 A 
ATOM     16  C   UNL     1      46.906   4.130  15.604  0.00  0.00    +0.000 A 
ATOM     17  C   UNL     1      47.939   4.826  16.235  0.00  0.00    +0.000 A 
ATOM     21  C   UNL     1      48.567   5.851  15.525  0.00  0.00    +0.000 A 
ATOM     22  N   UNL     1      48.258   6.272  14.266  0.00  0.00    +0.000 NA
ATOM     23  C   UNL     1      47.239   5.580  13.713  0.00  0.00    +0.000 A 
ENDROOT
BRANCH  17  18
ATOM     18  C   UNL     1      48.381   4.554  17.621  0.00  0.00    +0.000 C 
ATOM     19  N   UNL     1      47.444   4.494  18.619  0.00  0.00    +0.000 N 
ATOM     20  O   UNL     1      49.567   4.403  17.895  0.00  0.00    +0.000 OA
ATOM     26  H   UNL     1      46.451   4.616  18.493  0.00  0.00    +0.000 HD
ATOM     27  H   UNL     1      47.785   4.322  19.557  0.00  0.00    +0.000 HD
ENDBRANCH  17  18
BRANCH  10  11
ATOM     11  C   UNL     1      44.613   4.963  11.138  0.00  0.00    +0.000 C 
ATOM     12  C   UNL     1      43.347   5.795  11.246  0.00  0.00    +0.000 C 
ATOM     13  C   UNL     1      43.262   4.312  11.350  0.00  0.00    +0.000 C 
ENDBRANCH  10  11
BRANCH   9   8
ATOM      8  C   UNL     1      47.009   6.992  11.656  0.00  0.00    +0.000 C 
BRANCH   8   6
ATOM      1  C   UNL     1      51.711  11.442  12.918  0.00  0.00    +0.000 C 
ATOM      2  N   UNL     1      50.517  10.816  12.350  0.00  0.00    +0.000 NA
ATOM      3  C   UNL     1      50.643   9.347  12.343  0.00  0.00    +0.000 C 
ATOM      4  C   UNL     1      49.398   8.658  11.741  0.00  0.00    +0.000 C 
ATOM      5  N   UNL     1      48.143   9.093  12.369  0.00  0.00    +0.000 N 
ATOM      6  C   UNL     1      46.947   8.350  12.344  0.00  0.00    +0.000 C 
ATOM      7  O   UNL     1      45.912   8.795  12.842  0.00  0.00    +0.000 OA
ATOM     24  C   UNL     1      48.033  10.546  12.559  0.00  0.00    +0.000 C 
ATOM     25  C   UNL     1      49.314  11.196  13.118  0.00  0.00    +0.000 C 
ENDBRANCH   8   6
ENDBRANCH   9   8
TORSDOF 4
ENDMDL
