MODEL 1
REMARK VINA RESULT:    -8.281      0.000      0.000
REMARK INTER + INTRA:         -13.709
REMARK INTER:                 -12.153
REMARK INTRA:                  -1.556
REMARK UNBOUND:                -1.556
REMARK  Name = 
REMARK  9 active torsions:
REMARK  status: ('A' for Active; 'I' for Inactive)
REMARK    1  A    between atoms: C_1  and  C_2
REMARK    2  A    between atoms: C_2  and  N_3
REMARK    3  A    between atoms: N_3  and  C_4
REMARK    4  A    between atoms: N_3  and  C_11
REMARK    5  A    between atoms: C_4  and  C_5
REMARK    6  A    between atoms: C_11  and  C_12
REMARK    7  A    between atoms: C_15  and  C_16
REMARK    8  A    between atoms: C_16  and  N_17
REMARK    9  A    between atoms: C_18  and  C_20
REMARK                            x       y       z     vdW  Elec       q    Type
REMARK                         _______ _______ _______ _____ _____    ______ ____
ROOT
ATOM     12  C   UNL     1      44.860   6.134  11.058  0.00  0.00    +0.000 A 
ATOM     13  C   UNL     1      46.213   5.789  11.182  0.00  0.00    +0.000 A 
ATOM     14  C   UNL     1      47.066   6.543  11.992  0.00  0.00    +0.000 A 
ATOM     15  C   UNL     1      46.578   7.649  12.698  0.00  0.00    +0.000 A 
ATOM     30  C   UNL     1      45.246   8.040  12.511  0.00  0.00    +0.000 A 
ATOM     31  C   UNL     1      44.392   7.288  11.702  0.00  0.00    +0.000 A 
ENDROOT
BRANCH  15  16
ATOM     16  C   UNL     1      47.474   8.434  13.621  0.00  0.00    +0.000 C 
BRANCH  16  17
ATOM     17  N   UNL     1      47.803   7.654  14.782  0.00  0.00    +0.000 N 
ATOM     18  C   UNL     1      49.024   7.046  14.924  0.00  0.00    +0.000 C 
ATOM     19  O   UNL     1      49.925   7.181  14.103  0.00  0.00    +0.000 OA
ATOM     32  H   UNL     1      47.022   7.339  15.343  0.00  0.00    +0.000 HD
BRANCH  18  20
ATOM     20  C   UNL     1      49.212   6.283  16.164  0.00  0.00    +0.000 A 
ATOM     21  C   UNL     1      50.184   6.670  17.075  0.00  0.00    +0.000 A 
ATOM     22  S   UNL     1      50.192   5.734  18.502  0.00  0.00    +0.000 S 
ATOM     23  C   UNL     1      48.935   4.742  17.924  0.00  0.00    +0.000 A 
ATOM     24  N   UNL     1      48.449   3.716  18.674  0.00  0.00    +0.000 NA
ATOM     25  C   UNL     1      47.517   3.030  18.101  0.00  0.00    +0.000 A 
ATOM     26  N   UNL     1      47.030   3.272  16.842  0.00  0.00    +0.000 N 
ATOM     27  C   UNL     1      47.482   4.302  16.053  0.00  0.00    +0.000 A 
ATOM     28  O   UNL     1      47.015   4.496  14.936  0.00  0.00    +0.000 OA
ATOM     29  C   UNL     1      48.518   5.116  16.660  0.00  0.00    +0.000 A 
ATOM     33  H   UNL     1      46.302   2.696  16.447  0.00  0.00    +0.000 HD
ENDBRANCH  18  20
ENDBRANCH  16  17
ENDBRANCH  15  16
BRANCH  12  11
ATOM     11  C   UNL     1      43.901   5.225  10.313  0.00  0.00    +0.000 C 
BRANCH  11   3
ATOM      3  N   UNL     1      44.414   3.838  10.172  0.00  0.00    +0.000 NA
BRANCH   3   2
ATOM      1  C   UNL     1      43.780   3.277  12.569  0.00  0.00    +0.000 C 
ATOM      2  C   UNL     1      43.674   2.934  11.086  0.00  0.00    +0.000 C 
ENDBRANCH   3   2
BRANCH   3   4
ATOM      4  C   UNL     1      44.293   3.387   8.771  0.00  0.00    +0.000 C 
BRANCH   4   5
ATOM      5  C   UNL     1      45.557   2.806   8.162  0.00  0.00    +0.000 A 
ATOM      6  C   UNL     1      45.874   1.447   8.311  0.00  0.00    +0.000 A 
ATOM      7  C   UNL     1      46.977   0.899   7.653  0.00  0.00    +0.000 A 
ATOM      8  C   UNL     1      47.776   1.700   6.839  0.00  0.00    +0.000 A 
ATOM      9  C   UNL     1      47.486   3.056   6.700  0.00  0.00    +0.000 A 
ATOM     10  C   UNL     1      46.384   3.607   7.359  0.00  0.00    +0.000 A 
ENDBRANCH   4   5
ENDBRANCH   3   4
ENDBRANCH  11   3
ENDBRANCH  12  11
TORSDOF 8
ENDMDL
MODEL 2
REMARK VINA RESULT:    -7.649      1.746      2.057
REMARK INTER + INTRA:         -12.782
REMARK INTER:                 -11.689
REMARK INTRA:                  -1.093
REMARK UNBOUND:                -1.556
REMARK  Name = 
REMARK  9 active torsions:
REMARK  status: ('A' for Active; 'I' for Inactive)
REMARK    1  A    between atoms: C_1  and  C_2
REMARK    2  A    between atoms: C_2  and  N_3
REMARK    3  A    between atoms: N_3  and  C_4
REMARK    4  A    between atoms: N_3  and  C_11
REMARK    5  A    between atoms: C_4  and  C_5
REMARK    6  A    between atoms: C_11  and  C_12
REMARK    7  A    between atoms: C_15  and  C_16
REMARK    8  A    between atoms: C_16  and  N_17
REMARK    9  A    between atoms: C_18  and  C_20
REMARK                            x       y       z     vdW  Elec       q    Type
REMARK                         _______ _______ _______ _____ _____    ______ ____
ROOT
ATOM     12  C   UNL     1      45.766   5.552  11.689  0.00  0.00    +0.000 A 
ATOM     13  C   UNL     1      46.080   5.001  12.940  0.00  0.00    +0.000 A 
ATOM     14  C   UNL     1      47.120   5.531  13.707  0.00  0.00    +0.000 A 
ATOM     15  C   UNL     1      47.858   6.625  13.241  0.00  0.00    +0.000 A 
ATOM     30  C   UNL     1      47.597   7.124  11.958  0.00  0.00    +0.000 A 
ATOM     31  C   UNL     1      46.557   6.596  11.190  0.00  0.00    +0.000 A 
ENDROOT
BRANCH  15  16
ATOM     16  C   UNL     1      48.943   7.242  14.085  0.00  0.00    +0.000 C 
BRANCH  16  17
ATOM     17  N   UNL     1      48.666   7.041  15.480  0.00  0.00    +0.000 N 
ATOM     18  C   UNL     1      49.199   7.853  16.449  0.00  0.00    +0.000 C 
ATOM     19  O   UNL     1      49.889   8.831  16.180  0.00  0.00    +0.000 OA
ATOM     32  H   UNL     1      48.307   6.131  15.738  0.00  0.00    +0.000 HD
BRANCH  18  20
ATOM     20  C   UNL     1      48.826   7.523  17.830  0.00  0.00    +0.000 A 
ATOM     21  C   UNL     1      48.258   8.492  18.644  0.00  0.00    +0.000 A 
ATOM     22  S   UNL     1      47.793   7.905  20.178  0.00  0.00    +0.000 S 
ATOM     23  C   UNL     1      48.391   6.351  19.826  0.00  0.00    +0.000 A 
ATOM     24  N   UNL     1      48.305   5.343  20.737  0.00  0.00    +0.000 NA
ATOM     25  C   UNL     1      48.823   4.226  20.347  0.00  0.00    +0.000 A 
ATOM     26  N   UNL     1      49.425   4.025  19.131  0.00  0.00    +0.000 N 
ATOM     27  C   UNL     1      49.525   5.009  18.177  0.00  0.00    +0.000 A 
ATOM     28  O   UNL     1      50.060   4.790  17.096  0.00  0.00    +0.000 OA
ATOM     29  C   UNL     1      48.940   6.280  18.559  0.00  0.00    +0.000 A 
ATOM     33  H   UNL     1      49.816   3.127  18.887  0.00  0.00    +0.000 HD
ENDBRANCH  18  20
ENDBRANCH  16  17
ENDBRANCH  15  16
BRANCH  12  11
ATOM     11  C   UNL     1      44.537   5.086  10.933  0.00  0.00    +0.000 C 
BRANCH  11   3
ATOM      3  N   UNL     1      44.715   3.750  10.307  0.00  0.00    +0.000 NA
BRANCH   3   2
ATOM      1  C   UNL     1      43.474   2.826  12.324  0.00  0.00    +0.000 C 
ATOM      2  C   UNL     1      43.679   2.817  10.812  0.00  0.00    +0.000 C 
ENDBRANCH   3   2
BRANCH   3   4
ATOM      4  C   UNL     1      44.656   3.860   8.837  0.00  0.00    +0.000 C 
BRANCH   4   5
ATOM      5  C   UNL     1      45.708   3.070   8.080  0.00  0.00    +0.000 A 
ATOM      6  C   UNL     1      45.968   1.727   8.394  0.00  0.00    +0.000 A 
ATOM      7  C   UNL     1      46.856   0.975   7.620  0.00  0.00    +0.000 A 
ATOM      8  C   UNL     1      47.493   1.556   6.524  0.00  0.00    +0.000 A 
ATOM      9  C   UNL     1      47.261   2.895   6.215  0.00  0.00    +0.000 A 
ATOM     10  C   UNL     1      46.375   3.648   6.989  0.00  0.00    +0.000 A 
ENDBRANCH   4   5
ENDBRANCH   3   4
ENDBRANCH  11   3
ENDBRANCH  12  11
TORSDOF 8
ENDMDL
MODEL 3
REMARK VINA RESULT:    -7.643      1.848      2.248
REMARK INTER + INTRA:         -12.773
REMARK INTER:                 -11.622
REMARK INTRA:                  -1.151
REMARK UNBOUND:                -1.556
REMARK  Name = 
REMARK  9 active torsions:
REMARK  status: ('A' for Active; 'I' for Inactive)
REMARK    1  A    between atoms: C_1  and  C_2
REMARK    2  A    between atoms: C_2  and  N_3
REMARK    3  A    between atoms: N_3  and  C_4
REMARK    4  A    between atoms: N_3  and  C_11
REMARK    5  A    between atoms: C_4  and  C_5
REMARK    6  A    between atoms: C_11  and  C_12
REMARK    7  A    between atoms: C_15  and  C_16
REMARK    8  A    between atoms: C_16  and  N_17
REMARK    9  A    between atoms: C_18  and  C_20
REMARK                            x       y       z     vdW  Elec       q    Type
REMARK                         _______ _______ _______ _____ _____    ______ ____
ROOT
ATOM     12  C   UNL     1      45.119   6.216  11.377  0.00  0.00    +0.000 A 
ATOM     13  C   UNL     1      46.383   5.679  11.660  0.00  0.00    +0.000 A 
ATOM     14  C   UNL     1      47.286   6.377  12.464  0.00  0.00    +0.000 A 
ATOM     15  C   UNL     1      46.939   7.621  13.005  0.00  0.00    +0.000 A 
ATOM     30  C   UNL     1      45.708   8.192  12.658  0.00  0.00    +0.000 A 
ATOM     31  C   UNL     1      44.804   7.496  11.855  0.00  0.00    +0.000 A 
ENDROOT
BRANCH  15  16
ATOM     16  C   UNL     1      47.882   8.356  13.922  0.00  0.00    +0.000 C 
BRANCH  16  17
ATOM     17  N   UNL     1      47.884   7.753  15.226  0.00  0.00    +0.000 N 
ATOM     18  C   UNL     1      48.897   6.929  15.643  0.00  0.00    +0.000 C 
ATOM     19  O   UNL     1      49.888   6.707  14.955  0.00  0.00    +0.000 OA
ATOM     32  H   UNL     1      46.993   7.728  15.707  0.00  0.00    +0.000 HD
BRANCH  18  20
ATOM     20  C   UNL     1      48.758   6.388  17.001  0.00  0.00    +0.000 A 
ATOM     21  C   UNL     1      49.015   5.046  17.241  0.00  0.00    +0.000 A 
ATOM     22  S   UNL     1      48.905   4.616  18.889  0.00  0.00    +0.000 S 
ATOM     23  C   UNL     1      48.452   6.197  19.328  0.00  0.00    +0.000 A 
ATOM     24  N   UNL     1      48.202   6.520  20.627  0.00  0.00    +0.000 NA
ATOM     25  C   UNL     1      47.843   7.747  20.812  0.00  0.00    +0.000 A 
ATOM     26  N   UNL     1      47.703   8.680  19.816  0.00  0.00    +0.000 N 
ATOM     27  C   UNL     1      47.955   8.402  18.494  0.00  0.00    +0.000 A 
ATOM     28  O   UNL     1      47.832   9.265  17.631  0.00  0.00    +0.000 OA
ATOM     29  C   UNL     1      48.382   7.040  18.235  0.00  0.00    +0.000 A 
ATOM     33  H   UNL     1      47.414   9.623  20.025  0.00  0.00    +0.000 HD
ENDBRANCH  18  20
ENDBRANCH  16  17
ENDBRANCH  15  16
BRANCH  12  11
ATOM     11  C   UNL     1      44.080   5.389  10.643  0.00  0.00    +0.000 C 
BRANCH  11   3
ATOM      3  N   UNL     1      44.577   4.041  10.265  0.00  0.00    +0.000 NA
BRANCH   3   2
ATOM      1  C   UNL     1      43.454   3.336  12.434  0.00  0.00    +0.000 C 
ATOM      2  C   UNL     1      43.806   3.001  10.988  0.00  0.00    +0.000 C 
ENDBRANCH   3   2
BRANCH   3   4
ATOM      4  C   UNL     1      44.483   3.850   8.805  0.00  0.00    +0.000 C 
BRANCH   4   5
ATOM      5  C   UNL     1      45.629   3.084   8.171  0.00  0.00    +0.000 A 
ATOM      6  C   UNL     1      45.824   1.720   8.441  0.00  0.00    +0.000 A 
ATOM      7  C   UNL     1      46.812   0.997   7.767  0.00  0.00    +0.000 A 
ATOM      8  C   UNL     1      47.614   1.626   6.817  0.00  0.00    +0.000 A 
ATOM      9  C   UNL     1      47.446   2.985   6.555  0.00  0.00    +0.000 A 
ATOM     10  C   UNL     1      46.460   3.710   7.230  0.00  0.00    +0.000 A 
ENDBRANCH   4   5
ENDBRANCH   3   4
ENDBRANCH  11   3
ENDBRANCH  12  11
TORSDOF 8
ENDMDL
MODEL 4
REMARK VINA RESULT:    -7.219      2.613      3.814
REMARK INTER + INTRA:         -12.151
REMARK INTER:                 -11.191
REMARK INTRA:                  -0.960
REMARK UNBOUND:                -1.556
REMARK  Name = 
REMARK  9 active torsions:
REMARK  status: ('A' for Active; 'I' for Inactive)
REMARK    1  A    between atoms: C_1  and  C_2
REMARK    2  A    between atoms: C_2  and  N_3
REMARK    3  A    between atoms: N_3  and  C_4
REMARK    4  A    between atoms: N_3  and  C_11
REMARK    5  A    between atoms: C_4  and  C_5
REMARK    6  A    between atoms: C_11  and  C_12
REMARK    7  A    between atoms: C_15  and  C_16
REMARK    8  A    between atoms: C_16  and  N_17
REMARK    9  A    between atoms: C_18  and  C_20
REMARK                            x       y       z     vdW  Elec       q    Type
REMARK                         _______ _______ _______ _____ _____    ______ ____
ROOT
ATOM     12  C   UNL     1      45.993   5.292  12.108  0.00  0.00    +0.000 A 
ATOM     13  C   UNL     1      46.496   6.344  12.887  0.00  0.00    +0.000 A 
ATOM     14  C   UNL     1      47.065   6.092  14.137  0.00  0.00    +0.000 A 
ATOM     15  C   UNL     1      47.148   4.783  14.627  0.00  0.00    +0.000 A 
ATOM     30  C   UNL     1      46.575   3.743  13.884  0.00  0.00    +0.000 A 
ATOM     31  C   UNL     1      46.006   3.993  12.635  0.00  0.00    +0.000 A 
ENDROOT
BRANCH  15  16
ATOM     16  C   UNL     1      47.813   4.493  15.947  0.00  0.00    +0.000 C 
BRANCH  16  17
ATOM     17  N   UNL     1      47.567   5.560  16.877  0.00  0.00    +0.000 N 
ATOM     18  C   UNL     1      48.531   6.000  17.748  0.00  0.00    +0.000 C 
ATOM     19  O   UNL     1      49.673   5.552  17.744  0.00  0.00    +0.000 OA
ATOM     32  H   UNL     1      46.596   5.778  17.060  0.00  0.00    +0.000 HD
BRANCH  18  20
ATOM     20  C   UNL     1      48.131   7.096  18.637  0.00  0.00    +0.000 A 
ATOM     21  C   UNL     1      47.879   6.844  19.978  0.00  0.00    +0.000 A 
ATOM     22  S   UNL     1      47.529   8.249  20.882  0.00  0.00    +0.000 S 
ATOM     23  C   UNL     1      47.643   9.234  19.498  0.00  0.00    +0.000 A 
ATOM     24  N   UNL     1      47.450  10.579  19.576  0.00  0.00    +0.000 NA
ATOM     25  C   UNL     1      47.540  11.198  18.446  0.00  0.00    +0.000 A 
ATOM     26  N   UNL     1      47.799  10.594  17.242  0.00  0.00    +0.000 N 
ATOM     27  C   UNL     1      48.012   9.242  17.117  0.00  0.00    +0.000 A 
ATOM     28  O   UNL     1      48.253   8.738  16.025  0.00  0.00    +0.000 OA
ATOM     29  C   UNL     1      47.940   8.503  18.363  0.00  0.00    +0.000 A 
ATOM     33  H   UNL     1      47.853  11.133  16.391  0.00  0.00    +0.000 HD
ENDBRANCH  18  20
ENDBRANCH  16  17
ENDBRANCH  15  16
BRANCH  12  11
ATOM     11  C   UNL     1      45.527   5.545  10.687  0.00  0.00    +0.000 C 
BRANCH  11   3
ATOM      3  N   UNL     1      44.784   4.395  10.110  0.00  0.00    +0.000 NA
BRANCH   3   2
ATOM      1  C   UNL     1      42.933   5.739  11.221  0.00  0.00    +0.000 C 
ATOM      2  C   UNL     1      43.370   4.436  10.557  0.00  0.00    +0.000 C 
ENDBRANCH   3   2
BRANCH   3   4
ATOM      4  C   UNL     1      44.873   4.413   8.637  0.00  0.00    +0.000 C 
BRANCH   4   5
ATOM      5  C   UNL     1      45.690   3.294   8.019  0.00  0.00    +0.000 A 
ATOM      6  C   UNL     1      46.587   3.547   6.970  0.00  0.00    +0.000 A 
ATOM      7  C   UNL     1      47.416   2.533   6.483  0.00  0.00    +0.000 A 
ATOM      8  C   UNL     1      47.358   1.255   7.038  0.00  0.00    +0.000 A 
ATOM      9  C   UNL     1      46.456   0.984   8.065  0.00  0.00    +0.000 A 
ATOM     10  C   UNL     1      45.625   1.997   8.551  0.00  0.00    +0.000 A 
ENDBRANCH   4   5
ENDBRANCH   3   4
ENDBRANCH  11   3
ENDBRANCH  12  11
TORSDOF 8
ENDMDL
MODEL 5
REMARK VINA RESULT:    -7.106      2.256      2.887
REMARK INTER + INTRA:         -11.986
REMARK INTER:                 -11.059
REMARK INTRA:                  -0.927
REMARK UNBOUND:                -1.556
REMARK  Name = 
REMARK  9 active torsions:
REMARK  status: ('A' for Active; 'I' for Inactive)
REMARK    1  A    between atoms: C_1  and  C_2
REMARK    2  A    between atoms: C_2  and  N_3
REMARK    3  A    between atoms: N_3  and  C_4
REMARK    4  A    between atoms: N_3  and  C_11
REMARK    5  A    between atoms: C_4  and  C_5
REMARK    6  A    between atoms: C_11  and  C_12
REMARK    7  A    between atoms: C_15  and  C_16
REMARK    8  A    between atoms: C_16  and  N_17
REMARK    9  A    between atoms: C_18  and  C_20
REMARK                            x       y       z     vdW  Elec       q    Type
REMARK                         _______ _______ _______ _____ _____    ______ ____
ROOT
ATOM     12  C   UNL     1      46.583   6.077  12.132  0.00  0.00    +0.000 A 
ATOM     13  C   UNL     1      46.820   7.450  12.286  0.00  0.00    +0.000 A 
ATOM     14  C   UNL     1      47.490   7.933  13.412  0.00  0.00    +0.000 A 
ATOM     15  C   UNL     1      47.943   7.050  14.400  0.00  0.00    +0.000 A 
ATOM     30  C   UNL     1      47.636   5.688  14.285  0.00  0.00    +0.000 A 
ATOM     31  C   UNL     1      46.966   5.204  13.160  0.00  0.00    +0.000 A 
ENDROOT
BRANCH  15  16
ATOM     16  C   UNL     1      48.719   7.552  15.589  0.00  0.00    +0.000 C 
BRANCH  16  17
ATOM     17  N   UNL     1      49.785   6.644  15.911  0.00  0.00    +0.000 N 
ATOM     18  C   UNL     1      49.839   5.988  17.114  0.00  0.00    +0.000 C 
ATOM     19  O   UNL     1      48.955   6.088  17.958  0.00  0.00    +0.000 OA
ATOM     32  H   UNL     1      50.623   6.724  15.350  0.00  0.00    +0.000 HD
BRANCH  18  20
ATOM     20  C   UNL     1      50.989   5.095  17.298  0.00  0.00    +0.000 A 
ATOM     21  C   UNL     1      52.266   5.624  17.412  0.00  0.00    +0.000 A 
ATOM     22  S   UNL     1      53.465   4.450  17.726  0.00  0.00    +0.000 S 
ATOM     23  C   UNL     1      52.325   3.188  17.659  0.00  0.00    +0.000 A 
ATOM     24  N   UNL     1      52.700   1.894  17.848  0.00  0.00    +0.000 NA
ATOM     25  C   UNL     1      51.737   1.038  17.743  0.00  0.00    +0.000 A 
ATOM     26  N   UNL     1      50.434   1.359  17.460  0.00  0.00    +0.000 N 
ATOM     27  C   UNL     1      50.008   2.652  17.272  0.00  0.00    +0.000 A 
ATOM     28  O   UNL     1      48.832   2.902  17.031  0.00  0.00    +0.000 OA
ATOM     29  C   UNL     1      51.050   3.654  17.398  0.00  0.00    +0.000 A 
ATOM     33  H   UNL     1      49.727   0.643  17.386  0.00  0.00    +0.000 HD
ENDBRANCH  18  20
ENDBRANCH  16  17
ENDBRANCH  15  16
BRANCH  12  11
ATOM     11  C   UNL     1      46.003   5.538  10.838  0.00  0.00    +0.000 C 
BRANCH  11   3
ATOM      3  N   UNL     1      44.747   4.773  11.042  0.00  0.00    +0.000 NA
BRANCH   3   2
ATOM      1  C   UNL     1      43.110   4.846  12.986  0.00  0.00    +0.000 C 
ATOM      2  C   UNL     1      43.790   5.582  11.835  0.00  0.00    +0.000 C 
ENDBRANCH   3   2
BRANCH   3   4
ATOM      4  C   UNL     1      44.163   4.388   9.742  0.00  0.00    +0.000 C 
BRANCH   4   5
ATOM      5  C   UNL     1      45.052   3.536   8.854  0.00  0.00    +0.000 A 
ATOM      6  C   UNL     1      45.816   4.114   7.829  0.00  0.00    +0.000 A 
ATOM      7  C   UNL     1      46.716   3.340   7.091  0.00  0.00    +0.000 A 
ATOM      8  C   UNL     1      46.862   1.982   7.369  0.00  0.00    +0.000 A 
ATOM      9  C   UNL     1      46.093   1.391   8.370  0.00  0.00    +0.000 A 
ATOM     10  C   UNL     1      45.192   2.163   9.107  0.00  0.00    +0.000 A 
ENDBRANCH   4   5
ENDBRANCH   3   4
ENDBRANCH  11   3
ENDBRANCH  12  11
TORSDOF 8
ENDMDL
MODEL 6
REMARK VINA RESULT:    -6.958      2.942      5.361
REMARK INTER + INTRA:         -11.768
REMARK INTER:                  -9.972
REMARK INTRA:                  -1.796
REMARK UNBOUND:                -1.556
REMARK  Name = 
REMARK  9 active torsions:
REMARK  status: ('A' for Active; 'I' for Inactive)
REMARK    1  A    between atoms: C_1  and  C_2
REMARK    2  A    between atoms: C_2  and  N_3
REMARK    3  A    between atoms: N_3  and  C_4
REMARK    4  A    between atoms: N_3  and  C_11
REMARK    5  A    between atoms: C_4  and  C_5
REMARK    6  A    between atoms: C_11  and  C_12
REMARK    7  A    between atoms: C_15  and  C_16
REMARK    8  A    between atoms: C_16  and  N_17
REMARK    9  A    between atoms: C_18  and  C_20
REMARK                            x       y       z     vdW  Elec       q    Type
REMARK                         _______ _______ _______ _____ _____    ______ ____
ROOT
ATOM     12  C   UNL     1      47.344   5.938  13.567  0.00  0.00    +0.000 A 
ATOM     13  C   UNL     1      46.893   4.611  13.513  0.00  0.00    +0.000 A 
ATOM     14  C   UNL     1      46.998   3.781  14.630  0.00  0.00    +0.000 A 
ATOM     15  C   UNL     1      47.548   4.264  15.824  0.00  0.00    +0.000 A 
ATOM     30  C   UNL     1      48.071   5.563  15.853  0.00  0.00    +0.000 A 
ATOM     31  C   UNL     1      47.966   6.395  14.737  0.00  0.00    +0.000 A 
ENDROOT
BRANCH  15  16
ATOM     16  C   UNL     1      47.613   3.395  17.053  0.00  0.00    +0.000 C 
BRANCH  16  17
ATOM     17  N   UNL     1      48.977   3.212  17.465  0.00  0.00    +0.000 N 
ATOM     18  C   UNL     1      49.802   2.302  16.854  0.00  0.00    +0.000 C 
ATOM     19  O   UNL     1      49.446   1.638  15.886  0.00  0.00    +0.000 OA
ATOM     32  H   UNL     1      49.217   3.561  18.384  0.00  0.00    +0.000 HD
BRANCH  18  20
ATOM     20  C   UNL     1      51.168   2.227  17.386  0.00  0.00    +0.000 A 
ATOM     21  C   UNL     1      51.755   0.991  17.614  0.00  0.00    +0.000 A 
ATOM     22  S   UNL     1      53.379   1.093  18.132  0.00  0.00    +0.000 S 
ATOM     23  C   UNL     1      53.331   2.795  18.127  0.00  0.00    +0.000 A 
ATOM     24  N   UNL     1      54.422   3.528  18.478  0.00  0.00    +0.000 NA
ATOM     25  C   UNL     1      54.236   4.806  18.455  0.00  0.00    +0.000 A 
ATOM     26  N   UNL     1      53.056   5.419  18.120  0.00  0.00    +0.000 N 
ATOM     27  C   UNL     1      51.932   4.720  17.749  0.00  0.00    +0.000 A 
ATOM     28  O   UNL     1      50.897   5.301  17.444  0.00  0.00    +0.000 OA
ATOM     29  C   UNL     1      52.095   3.278  17.740  0.00  0.00    +0.000 A 
ATOM     33  H   UNL     1      52.972   6.424  18.126  0.00  0.00    +0.000 HD
ENDBRANCH  18  20
ENDBRANCH  16  17
ENDBRANCH  15  16
BRANCH  12  11
ATOM     11  C   UNL     1      47.081   6.885  12.412  0.00  0.00    +0.000 C 
BRANCH  11   3
ATOM      3  N   UNL     1      45.765   7.567  12.512  0.00  0.00    +0.000 NA
BRANCH   3   2
ATOM      1  C   UNL     1      47.365   9.512  12.163  0.00  0.00    +0.000 C 
ATOM      2  C   UNL     1      45.962   9.037  12.528  0.00  0.00    +0.000 C 
ENDBRANCH   3   2
BRANCH   3   4
ATOM      4  C   UNL     1      44.891   7.163  11.393  0.00  0.00    +0.000 C 
BRANCH   4   5
ATOM      5  C   UNL     1      44.321   5.760  11.485  0.00  0.00    +0.000 A 
ATOM      6  C   UNL     1      44.600   4.800  10.500  0.00  0.00    +0.000 A 
ATOM      7  C   UNL     1      44.165   3.480  10.650  0.00  0.00    +0.000 A 
ATOM      8  C   UNL     1      43.446   3.105  11.784  0.00  0.00    +0.000 A 
ATOM      9  C   UNL     1      43.143   4.054  12.759  0.00  0.00    +0.000 A 
ATOM     10  C   UNL     1      43.576   5.373  12.610  0.00  0.00    +0.000 A 
ENDBRANCH   4   5
ENDBRANCH   3   4
ENDBRANCH  11   3
ENDBRANCH  12  11
TORSDOF 8
ENDMDL
MODEL 7
REMARK VINA RESULT:    -6.956      2.632      3.437
REMARK INTER + INTRA:         -11.766
REMARK INTER:                 -10.511
REMARK INTRA:                  -1.254
REMARK UNBOUND:                -1.556
REMARK  Name = 
REMARK  9 active torsions:
REMARK  status: ('A' for Active; 'I' for Inactive)
REMARK    1  A    between atoms: C_1  and  C_2
REMARK    2  A    between atoms: C_2  and  N_3
REMARK    3  A    between atoms: N_3  and  C_4
REMARK    4  A    between atoms: N_3  and  C_11
REMARK    5  A    between atoms: C_4  and  C_5
REMARK    6  A    between atoms: C_11  and  C_12
REMARK    7  A    between atoms: C_15  and  C_16
REMARK    8  A    between atoms: C_16  and  N_17
REMARK    9  A    between atoms: C_18  and  C_20
REMARK                            x       y       z     vdW  Elec       q    Type
REMARK                         _______ _______ _______ _____ _____    ______ ____
ROOT
ATOM     12  C   UNL     1      45.981   4.959  12.193  0.00  0.00    +0.000 A 
ATOM     13  C   UNL     1      46.385   6.065  12.954  0.00  0.00    +0.000 A 
ATOM     14  C   UNL     1      46.971   5.885  14.209  0.00  0.00    +0.000 A 
ATOM     15  C   UNL     1      47.170   4.597  14.721  0.00  0.00    +0.000 A 
ATOM     30  C   UNL     1      46.693   3.498  13.996  0.00  0.00    +0.000 A 
ATOM     31  C   UNL     1      46.108   3.675  12.741  0.00  0.00    +0.000 A 
ENDROOT
BRANCH  15  16
ATOM     16  C   UNL     1      47.854   4.390  16.047  0.00  0.00    +0.000 C 
BRANCH  16  17
ATOM     17  N   UNL     1      48.011   5.644  16.731  0.00  0.00    +0.000 N 
ATOM     18  C   UNL     1      49.247   6.159  17.025  0.00  0.00    +0.000 C 
ATOM     19  O   UNL     1      50.287   5.615  16.669  0.00  0.00    +0.000 OA
ATOM     32  H   UNL     1      47.199   5.984  17.230  0.00  0.00    +0.000 HD
BRANCH  18  20
ATOM     20  C   UNL     1      49.247   7.448  17.727  0.00  0.00    +0.000 A 
ATOM     21  C   UNL     1      49.930   8.530  17.190  0.00  0.00    +0.000 A 
ATOM     22  S   UNL     1      49.735   9.970  18.084  0.00  0.00    +0.000 S 
ATOM     23  C   UNL     1      48.780   9.182  19.253  0.00  0.00    +0.000 A 
ATOM     24  N   UNL     1      48.274   9.859  20.318  0.00  0.00    +0.000 NA
ATOM     25  C   UNL     1      47.592   9.130  21.139  0.00  0.00    +0.000 A 
ATOM     26  N   UNL     1      47.375   7.784  20.994  0.00  0.00    +0.000 N 
ATOM     27  C   UNL     1      47.857   7.061  19.929  0.00  0.00    +0.000 A 
ATOM     28  O   UNL     1      47.633   5.860  19.826  0.00  0.00    +0.000 OA
ATOM     29  C   UNL     1      48.615   7.839  18.968  0.00  0.00    +0.000 A 
ATOM     33  H   UNL     1      46.836   7.269  21.674  0.00  0.00    +0.000 HD
ENDBRANCH  18  20
ENDBRANCH  16  17
ENDBRANCH  15  16
BRANCH  12  11
ATOM     11  C   UNL     1      45.498   5.144  10.767  0.00  0.00    +0.000 C 
BRANCH  11   3
ATOM      3  N   UNL     1      44.399   4.213  10.403  0.00  0.00    +0.000 NA
BRANCH   3   2
ATOM      1  C   UNL     1      43.037   6.223  11.158  0.00  0.00    +0.000 C 
ATOM      2  C   UNL     1      43.115   4.713  10.953  0.00  0.00    +0.000 C 
ENDBRANCH   3   2
BRANCH   3   4
ATOM      4  C   UNL     1      44.321   4.059   8.938  0.00  0.00    +0.000 C 
BRANCH   4   5
ATOM      5  C   UNL     1      45.391   3.180   8.316  0.00  0.00    +0.000 A 
ATOM      6  C   UNL     1      45.527   1.833   8.688  0.00  0.00    +0.000 A 
ATOM      7  C   UNL     1      46.439   1.003   8.031  0.00  0.00    +0.000 A 
ATOM      8  C   UNL     1      47.224   1.508   6.996  0.00  0.00    +0.000 A 
ATOM      9  C   UNL     1      47.115   2.848   6.632  0.00  0.00    +0.000 A 
ATOM     10  C   UNL     1      46.206   3.680   7.289  0.00  0.00    +0.000 A 
ENDBRANCH   4   5
ENDBRANCH   3   4
ENDBRANCH  11   3
ENDBRANCH  12  11
TORSDOF 8
ENDMDL
MODEL 8
REMARK VINA RESULT:    -6.908      2.555      3.082
REMARK INTER + INTRA:         -11.695
REMARK INTER:                 -11.023
REMARK INTRA:                  -0.672
REMARK UNBOUND:                -1.556
REMARK  Name = 
REMARK  9 active torsions:
REMARK  status: ('A' for Active; 'I' for Inactive)
REMARK    1  A    between atoms: C_1  and  C_2
REMARK    2  A    between atoms: C_2  and  N_3
REMARK    3  A    between atoms: N_3  and  C_4
REMARK    4  A    between atoms: N_3  and  C_11
REMARK    5  A    between atoms: C_4  and  C_5
REMARK    6  A    between atoms: C_11  and  C_12
REMARK    7  A    between atoms: C_15  and  C_16
REMARK    8  A    between atoms: C_16  and  N_17
REMARK    9  A    between atoms: C_18  and  C_20
REMARK                            x       y       z     vdW  Elec       q    Type
REMARK                         _______ _______ _______ _____ _____    ______ ____
ROOT
ATOM     12  C   UNL     1      45.905   4.542  12.479  0.00  0.00    +0.000 A 
ATOM     13  C   UNL     1      46.045   5.704  11.707  0.00  0.00    +0.000 A 
ATOM     14  C   UNL     1      46.751   6.803  12.200  0.00  0.00    +0.000 A 
ATOM     15  C   UNL     1      47.337   6.756  13.472  0.00  0.00    +0.000 A 
ATOM     30  C   UNL     1      47.129   5.626  14.273  0.00  0.00    +0.000 A 
ATOM     31  C   UNL     1      46.423   4.527  13.782  0.00  0.00    +0.000 A 
ENDROOT
BRANCH  15  16
ATOM     16  C   UNL     1      48.151   7.912  13.991  0.00  0.00    +0.000 C 
BRANCH  16  17
ATOM     17  N   UNL     1      47.874   8.134  15.383  0.00  0.00    +0.000 N 
ATOM     18  C   UNL     1      48.579   9.045  16.127  0.00  0.00    +0.000 C 
ATOM     19  O   UNL     1      49.442   9.766  15.636  0.00  0.00    +0.000 OA
ATOM     32  H   UNL     1      47.349   7.408  15.855  0.00  0.00    +0.000 HD
BRANCH  18  20
ATOM     20  C   UNL     1      48.183   9.159  17.535  0.00  0.00    +0.000 A 
ATOM     21  C   UNL     1      47.852  10.398  18.064  0.00  0.00    +0.000 A 
ATOM     22  S   UNL     1      47.316  10.327  19.683  0.00  0.00    +0.000 S 
ATOM     23  C   UNL     1      47.566   8.645  19.750  0.00  0.00    +0.000 A 
ATOM     24  N   UNL     1      47.297   7.940  20.882  0.00  0.00    +0.000 NA
ATOM     25  C   UNL     1      47.559   6.677  20.800  0.00  0.00    +0.000 A 
ATOM     26  N   UNL     1      48.073   6.056  19.691  0.00  0.00    +0.000 N 
ATOM     27  C   UNL     1      48.350   6.724  18.523  0.00  0.00    +0.000 A 
ATOM     28  O   UNL     1      48.799   6.134  17.547  0.00  0.00    +0.000 OA
ATOM     29  C   UNL     1      48.055   8.144  18.557  0.00  0.00    +0.000 A 
ATOM     33  H   UNL     1      48.261   5.064  19.691  0.00  0.00    +0.000 HD
ENDBRANCH  18  20
ENDBRANCH  16  17
ENDBRANCH  15  16
BRANCH  12  11
ATOM     11  C   UNL     1      45.282   3.294  11.882  0.00  0.00    +0.000 C 
BRANCH  11   3
ATOM      3  N   UNL     1      43.866   3.492  11.479  0.00  0.00    +0.000 NA
BRANCH   3   2
ATOM      1  C   UNL     1      42.346   5.502  11.814  0.00  0.00    +0.000 C 
ATOM      2  C   UNL     1      43.192   4.398  12.440  0.00  0.00    +0.000 C 
ENDBRANCH   3   2
BRANCH   3   4
ATOM      4  C   UNL     1      43.794   4.030  10.106  0.00  0.00    +0.000 C 
BRANCH   4   5
ATOM      5  C   UNL     1      44.761   3.414   9.112  0.00  0.00    +0.000 A 
ATOM      6  C   UNL     1      45.543   4.218   8.269  0.00  0.00    +0.000 A 
ATOM      7  C   UNL     1      46.509   3.647   7.437  0.00  0.00    +0.000 A 
ATOM      8  C   UNL     1      46.706   2.267   7.439  0.00  0.00    +0.000 A 
ATOM      9  C   UNL     1      45.921   1.454   8.254  0.00  0.00    +0.000 A 
ATOM     10  C   UNL     1      44.953   2.024   9.085  0.00  0.00    +0.000 A 
ENDBRANCH   4   5
ENDBRANCH   3   4
ENDBRANCH  11   3
ENDBRANCH  12  11
TORSDOF 8
ENDMDL
MODEL 9
REMARK VINA RESULT:    -6.785      3.468      8.295
REMARK INTER + INTRA:         -11.514
REMARK INTER:                  -9.068
REMARK INTRA:                  -2.446
REMARK UNBOUND:                -1.556
REMARK  Name = 
REMARK  9 active torsions:
REMARK  status: ('A' for Active; 'I' for Inactive)
REMARK    1  A    between atoms: C_1  and  C_2
REMARK    2  A    between atoms: C_2  and  N_3
REMARK    3  A    between atoms: N_3  and  C_4
REMARK    4  A    between atoms: N_3  and  C_11
REMARK    5  A    between atoms: C_4  and  C_5
REMARK    6  A    between atoms: C_11  and  C_12
REMARK    7  A    between atoms: C_15  and  C_16
REMARK    8  A    between atoms: C_16  and  N_17
REMARK    9  A    between atoms: C_18  and  C_20
REMARK                            x       y       z     vdW  Elec       q    Type
REMARK                         _______ _______ _______ _____ _____    ______ ____
ROOT
ATOM     12  C   UNL     1      49.914   7.292  18.494  0.00  0.00    +0.000 A 
ATOM     13  C   UNL     1      48.866   8.212  18.343  0.00  0.00    +0.000 A 
ATOM     14  C   UNL     1      48.431   8.588  17.070  0.00  0.00    +0.000 A 
ATOM     15  C   UNL     1      49.030   8.045  15.927  0.00  0.00    +0.000 A 
ATOM     30  C   UNL     1      50.127   7.189  16.078  0.00  0.00    +0.000 A 
ATOM     31  C   UNL     1      50.564   6.811  17.348  0.00  0.00    +0.000 A 
ENDROOT
BRANCH  15  16
ATOM     16  C   UNL     1      48.529   8.399  14.550  0.00  0.00    +0.000 C 
BRANCH  16  17
ATOM     17  N   UNL     1      47.524   7.464  14.128  0.00  0.00    +0.000 N 
ATOM     18  C   UNL     1      47.795   6.466  13.226  0.00  0.00    +0.000 C 
ATOM     19  O   UNL     1      48.920   6.276  12.776  0.00  0.00    +0.000 OA
ATOM     32  H   UNL     1      46.563   7.736  14.294  0.00  0.00    +0.000 HD
BRANCH  18  20
ATOM     20  C   UNL     1      46.667   5.590  12.891  0.00  0.00    +0.000 A 
ATOM     21  C   UNL     1      46.751   4.227  13.137  0.00  0.00    +0.000 A 
ATOM     22  S   UNL     1      45.312   3.380  12.784  0.00  0.00    +0.000 S 
ATOM     23  C   UNL     1      44.548   4.798  12.232  0.00  0.00    +0.000 A 
ATOM     24  N   UNL     1      43.267   4.772  11.776  0.00  0.00    +0.000 NA
ATOM     25  C   UNL     1      42.824   5.914  11.364  0.00  0.00    +0.000 A 
ATOM     26  N   UNL     1      43.548   7.078  11.359  0.00  0.00    +0.000 N 
ATOM     27  C   UNL     1      44.840   7.154  11.819  0.00  0.00    +0.000 A 
ATOM     28  O   UNL     1      45.454   8.215  11.811  0.00  0.00    +0.000 OA
ATOM     29  C   UNL     1      45.379   5.900  12.312  0.00  0.00    +0.000 A 
ATOM     33  H   UNL     1      43.146   7.939  11.019  0.00  0.00    +0.000 HD
ENDBRANCH  18  20
ENDBRANCH  16  17
ENDBRANCH  15  16
BRANCH  12  11
ATOM     11  C   UNL     1      50.276   6.760  19.867  0.00  0.00    +0.000 C 
BRANCH  11   3
ATOM      3  N   UNL     1      50.423   5.282  19.893  0.00  0.00    +0.000 NA
BRANCH   3   2
ATOM      1  C   UNL     1      52.665   4.391  20.696  0.00  0.00    +0.000 C 
ATOM      2  C   UNL     1      51.264   4.882  21.048  0.00  0.00    +0.000 C 
ENDBRANCH   3   2
BRANCH   3   4
ATOM      4  C   UNL     1      49.098   4.635  19.955  0.00  0.00    +0.000 C 
BRANCH   4   5
ATOM      5  C   UNL     1      48.612   4.018  18.657  0.00  0.00    +0.000 A 
ATOM      6  C   UNL     1      47.487   4.528  17.990  0.00  0.00    +0.000 A 
ATOM      7  C   UNL     1      47.114   4.027  16.741  0.00  0.00    +0.000 A 
ATOM      8  C   UNL     1      47.860   3.012  16.143  0.00  0.00    +0.000 A 
ATOM      9  C   UNL     1      48.966   2.481  16.804  0.00  0.00    +0.000 A 
ATOM     10  C   UNL     1      49.339   2.980  18.054  0.00  0.00    +0.000 A 
ENDBRANCH   4   5
ENDBRANCH   3   4
ENDBRANCH  11   3
ENDBRANCH  12  11
TORSDOF 8
ENDMDL
