MODEL 1
REMARK VINA RESULT:    -3.484      0.000      0.000
REMARK INTER + INTRA:          -7.690
REMARK INTER:                  -5.419
REMARK INTRA:                  -2.271
REMARK UNBOUND:                -2.271
REMARK  Name = 
REMARK  25 active torsions:
REMARK  status: ('A' for Active; 'I' for Inactive)
REMARK    1  A    between atoms: C_1  and  C_2
REMARK    2  A    between atoms: C_2  and  C_3
REMARK    3  A    between atoms: C_7  and  C_8
REMARK    4  A    between atoms: C_9  and  O_10
REMARK    5  A    between atoms: O_10  and  C_11
REMARK    6  A    between atoms: C_13  and  C_14
REMARK    7  A    between atoms: C_13  and  O_15
REMARK    8  A    between atoms: O_15  and  C_16
REMARK    9  A    between atoms: C_17  and  O_18
REMARK   10  A    between atoms: C_19  and  C_20
REMARK   11  A    between atoms: C_22  and  C_23
REMARK   12  A    between atoms: C_24  and  O_25
REMARK   13  A    between atoms: O_25  and  C_26
REMARK   14  A    between atoms: C_28  and  C_29
REMARK   15  A    between atoms: C_31  and  N_32
REMARK   16  A    between atoms: N_32  and  C_33
REMARK   17  A    between atoms: N_32  and  C_34
REMARK   18  A    between atoms: C_35  and  O_36
REMARK   19  A    between atoms: C_37  and  C_38
REMARK   20  A    between atoms: C_37  and  O_39
REMARK   21  A    between atoms: C_41  and  C_42
REMARK   22  A    between atoms: C_45  and  C_46
REMARK   23  A    between atoms: C_47  and  O_48
REMARK   24  A    between atoms: C_49  and  C_50
REMARK   25  A    between atoms: C_49  and  O_51
REMARK                            x       y       z     vdW  Elec       q    Type
REMARK                         _______ _______ _______ _____ _____    ______ ____
ROOT
ATOM      3  C   UNL     1      42.080  -7.235  14.504  0.00  0.00    +0.000 C 
ATOM      4  O   UNL     1      40.675  -6.966  14.832  0.00  0.00    +0.000 OA
ATOM      5  C   UNL     1      39.842  -6.397  13.908  0.00  0.00    +0.000 C 
ATOM      6  O   UNL     1      40.182  -6.008  12.803  0.00  0.00    +0.000 OA
ATOM      7  C   UNL     1      38.437  -6.267  14.495  0.00  0.00    +0.000 C 
ATOM      8  C   UNL     1      37.377  -6.718  13.487  0.00  0.00    +0.000 C 
ATOM      9  C   UNL     1      38.300  -4.812  15.074  0.00  0.00    +0.000 C 
ATOM     22  C   UNL     1      37.906  -4.853  16.611  0.00  0.00    +0.000 C 
ATOM     23  C   UNL     1      36.454  -5.261  16.948  0.00  0.00    +0.000 C 
ATOM     24  C   UNL     1      38.391  -3.605  17.458  0.00  0.00    +0.000 C 
ATOM     37  C   UNL     1      39.184  -4.027  18.816  0.00  0.00    +0.000 C 
ATOM     38  C   UNL     1      38.855  -5.437  19.321  0.00  0.00    +0.000 C 
ATOM     40  C   UNL     1      40.695  -3.810  18.561  0.00  0.00    +0.000 C 
ATOM     41  C   UNL     1      41.793  -4.188  19.585  0.00  0.00    +0.000 C 
ATOM     42  C   UNL     1      41.447  -4.901  20.887  0.00  0.00    +0.000 C 
ATOM     43  C   UNL     1      42.921  -4.950  18.877  0.00  0.00    +0.000 C 
ATOM     44  O   UNL     1      44.067  -4.499  18.900  0.00  0.00    +0.000 OA
ATOM     45  C   UNL     1      42.605  -6.322  18.236  0.00  0.00    +0.000 C 
ATOM     46  C   UNL     1      43.156  -7.383  19.187  0.00  0.00    +0.000 C 
ATOM     47  C   UNL     1      43.091  -6.377  16.757  0.00  0.00    +0.000 C 
ATOM     49  C   UNL     1      42.777  -7.653  15.868  0.00  0.00    +0.000 C 
ATOM     50  C   UNL     1      41.939  -8.734  16.560  0.00  0.00    +0.000 C 
ENDROOT
BRANCH  49  51
ATOM     51  O   UNL     1      44.053  -8.274  15.605  0.00  0.00    +0.000 OA
ATOM     56  H   UNL     1      43.891  -9.235  15.659  0.00  0.00    +0.000 HD
ENDBRANCH  49  51
BRANCH  47  48
ATOM     48  O   UNL     1      44.519  -6.175  16.678  0.00  0.00    +0.000 OA
ATOM     55  H   UNL     1      44.862  -6.788  16.001  0.00  0.00    +0.000 HD
ENDBRANCH  47  48
BRANCH   3   2
ATOM      1  C   UNL     1      43.066  -7.970  12.196  0.00  0.00    +0.000 C 
ATOM      2  C   UNL     1      42.168  -8.308  13.381  0.00  0.00    +0.000 C 
ENDBRANCH   3   2
BRANCH  37  39
ATOM     39  O   UNL     1      38.837  -3.130  19.883  0.00  0.00    +0.000 OA
ATOM     54  H   UNL     1      39.179  -3.535  20.708  0.00  0.00    +0.000 HD
ENDBRANCH  37  39
BRANCH   9  10
ATOM     10  O   UNL     1      37.392  -4.039  14.302  0.00  0.00    +0.000 OA
BRANCH  10  11
ATOM     11  C   UNL     1      37.789  -3.406  13.070  0.00  0.00    +0.000 C 
ATOM     12  C   UNL     1      36.762  -2.612  12.277  0.00  0.00    +0.000 C 
ATOM     13  C   UNL     1      37.282  -2.298  10.857  0.00  0.00    +0.000 C 
ATOM     14  C   UNL     1      37.487  -3.591  10.054  0.00  0.00    +0.000 C 
ATOM     17  C   UNL     1      38.623  -1.530  10.970  0.00  0.00    +0.000 C 
ATOM     19  C   UNL     1      39.603  -2.195  11.982  0.00  0.00    +0.000 C 
ATOM     20  C   UNL     1      40.428  -3.350  11.388  0.00  0.00    +0.000 C 
ATOM     21  O   UNL     1      38.965  -2.585  13.227  0.00  0.00    +0.000 OA
BRANCH  13  15
ATOM     15  O   UNL     1      36.210  -1.528  10.252  0.00  0.00    +0.000 OA
ATOM     16  C   UNL     1      35.986  -1.691   8.865  0.00  0.00    +0.000 C 
ENDBRANCH  13  15
BRANCH  17  18
ATOM     18  O   UNL     1      38.393  -0.176  11.396  0.00  0.00    +0.000 OA
ATOM     52  H   UNL     1      38.347   0.381  10.599  0.00  0.00    +0.000 HD
ENDBRANCH  17  18
ENDBRANCH  10  11
ENDBRANCH   9  10
BRANCH  24  25
ATOM     25  O   UNL     1      37.350  -2.702  17.876  0.00  0.00    +0.000 OA
BRANCH  25  26
ATOM     26  C   UNL     1      36.828  -1.804  16.898  0.00  0.00    +0.000 C 
ATOM     27  O   UNL     1      37.764  -1.427  15.901  0.00  0.00    +0.000 OA
ATOM     28  C   UNL     1      38.721  -0.423  16.215  0.00  0.00    +0.000 C 
ATOM     29  C   UNL     1      40.115  -1.040  16.306  0.00  0.00    +0.000 C 
ATOM     30  C   UNL     1      38.380   0.608  17.302  0.00  0.00    +0.000 C 
ATOM     31  C   UNL     1      37.255   0.278  18.312  0.00  0.00    +0.000 C 
ATOM     35  C   UNL     1      36.192  -0.559  17.555  0.00  0.00    +0.000 C 
BRANCH  31  32
ATOM     32  N   UNL     1      37.629  -0.382  19.589  0.00  0.00    +0.000 NA
ATOM     33  C   UNL     1      36.478  -0.410  20.521  0.00  0.00    +0.000 C 
ATOM     34  C   UNL     1      38.766   0.202  20.303  0.00  0.00    +0.000 C 
ENDBRANCH  31  32
BRANCH  35  36
ATOM     36  O   UNL     1      35.526   0.267  16.580  0.00  0.00    +0.000 OA
ATOM     53  H   UNL     1      35.569   1.184  16.901  0.00  0.00    +0.000 HD
ENDBRANCH  35  36
ENDBRANCH  25  26
ENDBRANCH  24  25
TORSDOF 12
ENDMDL
MODEL 2
REMARK VINA RESULT:    -3.456     14.528     17.021
REMARK INTER + INTRA:          -7.646
REMARK INTER:                  -4.599
REMARK INTRA:                  -3.047
REMARK UNBOUND:                -2.271
REMARK  Name = 
REMARK  25 active torsions:
REMARK  status: ('A' for Active; 'I' for Inactive)
REMARK    1  A    between atoms: C_1  and  C_2
REMARK    2  A    between atoms: C_2  and  C_3
REMARK    3  A    between atoms: C_7  and  C_8
REMARK    4  A    between atoms: C_9  and  O_10
REMARK    5  A    between atoms: O_10  and  C_11
REMARK    6  A    between atoms: C_13  and  C_14
REMARK    7  A    between atoms: C_13  and  O_15
REMARK    8  A    between atoms: O_15  and  C_16
REMARK    9  A    between atoms: C_17  and  O_18
REMARK   10  A    between atoms: C_19  and  C_20
REMARK   11  A    between atoms: C_22  and  C_23
REMARK   12  A    between atoms: C_24  and  O_25
REMARK   13  A    between atoms: O_25  and  C_26
REMARK   14  A    between atoms: C_28  and  C_29
REMARK   15  A    between atoms: C_31  and  N_32
REMARK   16  A    between atoms: N_32  and  C_33
REMARK   17  A    between atoms: N_32  and  C_34
REMARK   18  A    between atoms: C_35  and  O_36
REMARK   19  A    between atoms: C_37  and  C_38
REMARK   20  A    between atoms: C_37  and  O_39
REMARK   21  A    between atoms: C_41  and  C_42
REMARK   22  A    between atoms: C_45  and  C_46
REMARK   23  A    between atoms: C_47  and  O_48
REMARK   24  A    between atoms: C_49  and  C_50
REMARK   25  A    between atoms: C_49  and  O_51
REMARK                            x       y       z     vdW  Elec       q    Type
REMARK                         _______ _______ _______ _____ _____    ______ ____
ROOT
ATOM      3  C   UNL     1      47.097   5.639  12.387  0.00  0.00    +0.000 C 
ATOM      4  O   UNL     1      47.376   6.963  12.957  0.00  0.00    +0.000 OA
ATOM      5  C   UNL     1      48.057   7.902  12.232  0.00  0.00    +0.000 C 
ATOM      6  O   UNL     1      48.540   7.721  11.127  0.00  0.00    +0.000 OA
ATOM      7  C   UNL     1      48.172   9.191  13.044  0.00  0.00    +0.000 C 
ATOM      8  C   UNL     1      47.853  10.415  12.180  0.00  0.00    +0.000 C 
ATOM      9  C   UNL     1      49.567   9.171  13.767  0.00  0.00    +0.000 C 
ATOM     22  C   UNL     1      49.390   9.324  15.337  0.00  0.00    +0.000 C 
ATOM     23  C   UNL     1      48.995  10.722  15.862  0.00  0.00    +0.000 C 
ATOM     24  C   UNL     1      50.534   8.657  16.206  0.00  0.00    +0.000 C 
ATOM     37  C   UNL     1      49.959   7.683  17.378  0.00  0.00    +0.000 C 
ATOM     38  C   UNL     1      48.517   7.993  17.798  0.00  0.00    +0.000 C 
ATOM     40  C   UNL     1      50.154   6.221  16.907  0.00  0.00    +0.000 C 
ATOM     41  C   UNL     1      49.645   4.996  17.705  0.00  0.00    +0.000 C 
ATOM     42  C   UNL     1      48.820   5.168  18.975  0.00  0.00    +0.000 C 
ATOM     43  C   UNL     1      48.921   4.028  16.761  0.00  0.00    +0.000 C 
ATOM     44  O   UNL     1      49.333   2.872  16.642  0.00  0.00    +0.000 OA
ATOM     45  C   UNL     1      47.628   4.500  16.056  0.00  0.00    +0.000 C 
ATOM     46  C   UNL     1      46.464   3.857  16.807  0.00  0.00    +0.000 C 
ATOM     47  C   UNL     1      47.702   4.252  14.519  0.00  0.00    +0.000 C 
ATOM     49  C   UNL     1      46.528   4.758  13.579  0.00  0.00    +0.000 C 
ATOM     50  C   UNL     1      45.411   5.527  14.294  0.00  0.00    +0.000 C 
ENDROOT
BRANCH  49  51
ATOM     51  O   UNL     1      45.896   3.568  13.062  0.00  0.00    +0.000 OA
ATOM     56  H   UNL     1      45.257   3.294  13.745  0.00  0.00    +0.000 HD
ENDBRANCH  49  51
BRANCH  47  48
ATOM     48  O   UNL     1      47.867   2.847  14.234  0.00  0.00    +0.000 OA
ATOM     55  H   UNL     1      47.058   2.546  13.780  0.00  0.00    +0.000 HD
ENDBRANCH  47  48
BRANCH   3   2
ATOM      1  C   UNL     1      45.029   6.814  11.299  0.00  0.00    +0.000 C 
ATOM      2  C   UNL     1      46.136   5.774  11.171  0.00  0.00    +0.000 C 
ENDBRANCH   3   2
BRANCH  37  39
ATOM     39  O   UNL     1      50.759   7.819  18.563  0.00  0.00    +0.000 OA
ATOM     54  H   UNL     1      51.034   8.759  18.605  0.00  0.00    +0.000 HD
ENDBRANCH  37  39
BRANCH   9  10
ATOM     10  O   UNL     1      50.439  10.151  13.222  0.00  0.00    +0.000 OA
BRANCH  10  11
ATOM     11  C   UNL     1      51.484   9.807  12.294  0.00  0.00    +0.000 C 
ATOM     12  C   UNL     1      52.208   8.477  12.447  0.00  0.00    +0.000 C 
ATOM     13  C   UNL     1      53.487   8.440  11.581  0.00  0.00    +0.000 C 
ATOM     14  C   UNL     1      54.496   9.496  12.054  0.00  0.00    +0.000 C 
ATOM     17  C   UNL     1      53.102   8.704  10.103  0.00  0.00    +0.000 C 
ATOM     19  C   UNL     1      52.144   9.924   9.951  0.00  0.00    +0.000 C 
ATOM     20  C   UNL     1      52.863  11.283   9.903  0.00  0.00    +0.000 C 
ATOM     21  O   UNL     1      51.063   9.930  10.920  0.00  0.00    +0.000 OA
BRANCH  13  15
ATOM     15  O   UNL     1      54.034   7.117  11.819  0.00  0.00    +0.000 OA
ATOM     16  C   UNL     1      55.075   6.999  12.771  0.00  0.00    +0.000 C 
ENDBRANCH  13  15
BRANCH  17  18
ATOM     18  O   UNL     1      52.450   7.553   9.539  0.00  0.00    +0.000 OA
ATOM     52  H   UNL     1      52.231   7.762   8.614  0.00  0.00    +0.000 HD
ENDBRANCH  17  18
ENDBRANCH  10  11
ENDBRANCH   9  10
BRANCH  24  25
ATOM     25  O   UNL     1      51.424   9.578  16.864  0.00  0.00    +0.000 OA
BRANCH  25  26
ATOM     26  C   UNL     1      52.548  10.047  16.123  0.00  0.00    +0.000 C 
ATOM     27  O   UNL     1      53.276   9.023  15.465  0.00  0.00    +0.000 OA
ATOM     28  C   UNL     1      54.188   8.243  16.228  0.00  0.00    +0.000 C 
ATOM     29  C   UNL     1      53.661   6.817  16.374  0.00  0.00    +0.000 C 
ATOM     30  C   UNL     1      54.804   8.856  17.495  0.00  0.00    +0.000 C 
ATOM     31  C   UNL     1      54.105  10.074  18.146  0.00  0.00    +0.000 C 
ATOM     35  C   UNL     1      53.483  10.911  16.999  0.00  0.00    +0.000 C 
BRANCH  31  32
ATOM     32  N   UNL     1      53.104   9.820  19.213  0.00  0.00    +0.000 NA
ATOM     33  C   UNL     1      52.633  11.096  19.802  0.00  0.00    +0.000 C 
ATOM     34  C   UNL     1      53.540   8.957  20.312  0.00  0.00    +0.000 C 
ENDBRANCH  31  32
BRANCH  35  36
ATOM     36  O   UNL     1      54.531  11.514  16.214  0.00  0.00    +0.000 OA
ATOM     53  H   UNL     1      55.092  10.793  15.880  0.00  0.00    +0.000 HD
ENDBRANCH  35  36
ENDBRANCH  25  26
ENDBRANCH  24  25
TORSDOF 12
ENDMDL
MODEL 3
REMARK VINA RESULT:    -3.374     14.760     17.187
REMARK INTER + INTRA:          -7.518
REMARK INTER:                  -4.595
REMARK INTRA:                  -2.923
REMARK UNBOUND:                -2.271
REMARK  Name = 
REMARK  25 active torsions:
REMARK  status: ('A' for Active; 'I' for Inactive)
REMARK    1  A    between atoms: C_1  and  C_2
REMARK    2  A    between atoms: C_2  and  C_3
REMARK    3  A    between atoms: C_7  and  C_8
REMARK    4  A    between atoms: C_9  and  O_10
REMARK    5  A    between atoms: O_10  and  C_11
REMARK    6  A    between atoms: C_13  and  C_14
REMARK    7  A    between atoms: C_13  and  O_15
REMARK    8  A    between atoms: O_15  and  C_16
REMARK    9  A    between atoms: C_17  and  O_18
REMARK   10  A    between atoms: C_19  and  C_20
REMARK   11  A    between atoms: C_22  and  C_23
REMARK   12  A    between atoms: C_24  and  O_25
REMARK   13  A    between atoms: O_25  and  C_26
REMARK   14  A    between atoms: C_28  and  C_29
REMARK   15  A    between atoms: C_31  and  N_32
REMARK   16  A    between atoms: N_32  and  C_33
REMARK   17  A    between atoms: N_32  and  C_34
REMARK   18  A    between atoms: C_35  and  O_36
REMARK   19  A    between atoms: C_37  and  C_38
REMARK   20  A    between atoms: C_37  and  O_39
REMARK   21  A    between atoms: C_41  and  C_42
REMARK   22  A    between atoms: C_45  and  C_46
REMARK   23  A    between atoms: C_47  and  O_48
REMARK   24  A    between atoms: C_49  and  C_50
REMARK   25  A    between atoms: C_49  and  O_51
REMARK                            x       y       z     vdW  Elec       q    Type
REMARK                         _______ _______ _______ _____ _____    ______ ____
ROOT
ATOM      3  C   UNL     1      47.013   5.625  12.352  0.00  0.00    +0.000 C 
ATOM      4  O   UNL     1      47.320   6.956  12.888  0.00  0.00    +0.000 OA
ATOM      5  C   UNL     1      47.985   7.876  12.125  0.00  0.00    +0.000 C 
ATOM      6  O   UNL     1      48.432   7.671  11.009  0.00  0.00    +0.000 OA
ATOM      7  C   UNL     1      48.135   9.179  12.909  0.00  0.00    +0.000 C 
ATOM      8  C   UNL     1      47.799  10.389  12.033  0.00  0.00    +0.000 C 
ATOM      9  C   UNL     1      49.553   9.161  13.588  0.00  0.00    +0.000 C 
ATOM     22  C   UNL     1      49.426   9.343  15.160  0.00  0.00    +0.000 C 
ATOM     23  C   UNL     1      49.059  10.754  15.671  0.00  0.00    +0.000 C 
ATOM     24  C   UNL     1      50.592   8.683  16.005  0.00  0.00    +0.000 C 
ATOM     37  C   UNL     1      50.047   7.735  17.211  0.00  0.00    +0.000 C 
ATOM     38  C   UNL     1      48.622   8.065  17.671  0.00  0.00    +0.000 C 
ATOM     40  C   UNL     1      50.216   6.264  16.761  0.00  0.00    +0.000 C 
ATOM     41  C   UNL     1      49.723   5.057  17.598  0.00  0.00    +0.000 C 
ATOM     42  C   UNL     1      48.940   5.259  18.890  0.00  0.00    +0.000 C 
ATOM     43  C   UNL     1      48.962   4.078  16.695  0.00  0.00    +0.000 C 
ATOM     44  O   UNL     1      49.361   2.917  16.585  0.00  0.00    +0.000 OA
ATOM     45  C   UNL     1      47.651   4.548  16.023  0.00  0.00    +0.000 C 
ATOM     46  C   UNL     1      46.506   3.929  16.822  0.00  0.00    +0.000 C 
ATOM     47  C   UNL     1      47.674   4.272  14.489  0.00  0.00    +0.000 C 
ATOM     49  C   UNL     1      46.475   4.770  13.577  0.00  0.00    +0.000 C 
ATOM     50  C   UNL     1      45.387   5.561  14.313  0.00  0.00    +0.000 C 
ENDROOT
BRANCH  49  51
ATOM     51  O   UNL     1      45.819   3.576  13.102  0.00  0.00    +0.000 OA
ATOM     56  H   UNL     1      45.250   3.867  12.365  0.00  0.00    +0.000 HD
ENDBRANCH  49  51
BRANCH  47  48
ATOM     48  O   UNL     1      47.820   2.860  14.225  0.00  0.00    +0.000 OA
ATOM     55  H   UNL     1      47.923   2.413  15.085  0.00  0.00    +0.000 HD
ENDBRANCH  47  48
BRANCH   3   2
ATOM      1  C   UNL     1      44.898   6.770  11.324  0.00  0.00    +0.000 C 
ATOM      2  C   UNL     1      46.015   5.745  11.165  0.00  0.00    +0.000 C 
ENDBRANCH   3   2
BRANCH  37  39
ATOM     39  O   UNL     1      50.885   7.886  18.368  0.00  0.00    +0.000 OA
ATOM     54  H   UNL     1      50.289   7.865  19.147  0.00  0.00    +0.000 HD
ENDBRANCH  37  39
BRANCH   9  10
ATOM     10  O   UNL     1      50.414  10.124  12.998  0.00  0.00    +0.000 OA
BRANCH  10  11
ATOM     11  C   UNL     1      51.473   9.746  12.098  0.00  0.00    +0.000 C 
ATOM     12  C   UNL     1      52.693  10.646  11.966  0.00  0.00    +0.000 C 
ATOM     13  C   UNL     1      53.541  10.250  10.736  0.00  0.00    +0.000 C 
ATOM     14  C   UNL     1      52.751  10.462   9.437  0.00  0.00    +0.000 C 
ATOM     17  C   UNL     1      53.951   8.761  10.866  0.00  0.00    +0.000 C 
ATOM     19  C   UNL     1      52.750   7.849  11.256  0.00  0.00    +0.000 C 
ATOM     20  C   UNL     1      51.887   7.405  10.062  0.00  0.00    +0.000 C 
ATOM     21  O   UNL     1      51.934   8.399  12.325  0.00  0.00    +0.000 OA
BRANCH  13  15
ATOM     15  O   UNL     1      54.661  11.174  10.769  0.00  0.00    +0.000 OA
ATOM     16  C   UNL     1      55.327  11.441   9.550  0.00  0.00    +0.000 C 
ENDBRANCH  13  15
BRANCH  17  18
ATOM     18  O   UNL     1      54.973   8.605  11.866  0.00  0.00    +0.000 OA
ATOM     52  H   UNL     1      55.602   7.937  11.542  0.00  0.00    +0.000 HD
ENDBRANCH  17  18
ENDBRANCH  10  11
ENDBRANCH   9  10
BRANCH  24  25
ATOM     25  O   UNL     1      51.509   9.609  16.617  0.00  0.00    +0.000 OA
BRANCH  25  26
ATOM     26  C   UNL     1      52.605  10.067  15.828  0.00  0.00    +0.000 C 
ATOM     27  O   UNL     1      53.293   9.036  15.138  0.00  0.00    +0.000 OA
ATOM     28  C   UNL     1      54.231   8.249  15.861  0.00  0.00    +0.000 C 
ATOM     29  C   UNL     1      53.698   6.827  16.031  0.00  0.00    +0.000 C 
ATOM     30  C   UNL     1      54.907   8.856  17.099  0.00  0.00    +0.000 C 
ATOM     31  C   UNL     1      54.249  10.080  17.780  0.00  0.00    +0.000 C 
ATOM     35  C   UNL     1      53.585  10.922  16.661  0.00  0.00    +0.000 C 
BRANCH  31  32
ATOM     32  N   UNL     1      53.293   9.836  18.890  0.00  0.00    +0.000 NA
ATOM     33  C   UNL     1      52.867  11.115  19.505  0.00  0.00    +0.000 C 
ATOM     34  C   UNL     1      53.766   8.961  19.964  0.00  0.00    +0.000 C 
ENDBRANCH  31  32
BRANCH  35  36
ATOM     36  O   UNL     1      54.602  11.516  15.830  0.00  0.00    +0.000 OA
ATOM     53  H   UNL     1      54.819  12.383  16.215  0.00  0.00    +0.000 HD
ENDBRANCH  35  36
ENDBRANCH  25  26
ENDBRANCH  24  25
TORSDOF 12
ENDMDL
MODEL 4
REMARK VINA RESULT:    -2.878     14.842     17.521
REMARK INTER + INTRA:          -6.747
REMARK INTER:                  -4.234
REMARK INTRA:                  -2.514
REMARK UNBOUND:                -2.271
REMARK  Name = 
REMARK  25 active torsions:
REMARK  status: ('A' for Active; 'I' for Inactive)
REMARK    1  A    between atoms: C_1  and  C_2
REMARK    2  A    between atoms: C_2  and  C_3
REMARK    3  A    between atoms: C_7  and  C_8
REMARK    4  A    between atoms: C_9  and  O_10
REMARK    5  A    between atoms: O_10  and  C_11
REMARK    6  A    between atoms: C_13  and  C_14
REMARK    7  A    between atoms: C_13  and  O_15
REMARK    8  A    between atoms: O_15  and  C_16
REMARK    9  A    between atoms: C_17  and  O_18
REMARK   10  A    between atoms: C_19  and  C_20
REMARK   11  A    between atoms: C_22  and  C_23
REMARK   12  A    between atoms: C_24  and  O_25
REMARK   13  A    between atoms: O_25  and  C_26
REMARK   14  A    between atoms: C_28  and  C_29
REMARK   15  A    between atoms: C_31  and  N_32
REMARK   16  A    between atoms: N_32  and  C_33
REMARK   17  A    between atoms: N_32  and  C_34
REMARK   18  A    between atoms: C_35  and  O_36
REMARK   19  A    between atoms: C_37  and  C_38
REMARK   20  A    between atoms: C_37  and  O_39
REMARK   21  A    between atoms: C_41  and  C_42
REMARK   22  A    between atoms: C_45  and  C_46
REMARK   23  A    between atoms: C_47  and  O_48
REMARK   24  A    between atoms: C_49  and  C_50
REMARK   25  A    between atoms: C_49  and  O_51
REMARK                            x       y       z     vdW  Elec       q    Type
REMARK                         _______ _______ _______ _____ _____    ______ ____
ROOT
ATOM      3  C   UNL     1      49.353   6.434  19.467  0.00  0.00    +0.000 C 
ATOM      4  O   UNL     1      49.748   7.667  18.775  0.00  0.00    +0.000 OA
ATOM      5  C   UNL     1      48.857   8.333  17.979  0.00  0.00    +0.000 C 
ATOM      6  O   UNL     1      47.728   7.952  17.718  0.00  0.00    +0.000 OA
ATOM      7  C   UNL     1      49.513   9.594  17.419  0.00  0.00    +0.000 C 
ATOM      8  C   UNL     1      48.570  10.796  17.522  0.00  0.00    +0.000 C 
ATOM      9  C   UNL     1      50.069   9.243  15.991  0.00  0.00    +0.000 C 
ATOM     22  C   UNL     1      51.625   9.545  15.903  0.00  0.00    +0.000 C 
ATOM     23  C   UNL     1      52.045  11.030  15.842  0.00  0.00    +0.000 C 
ATOM     24  C   UNL     1      52.421   8.652  14.865  0.00  0.00    +0.000 C 
ATOM     37  C   UNL     1      53.744   7.954  15.508  0.00  0.00    +0.000 C 
ATOM     38  C   UNL     1      54.293   8.674  16.745  0.00  0.00    +0.000 C 
ATOM     40  C   UNL     1      53.407   6.467  15.769  0.00  0.00    +0.000 C 
ATOM     41  C   UNL     1      54.380   5.484  16.466  0.00  0.00    +0.000 C 
ATOM     42  C   UNL     1      55.713   5.961  17.032  0.00  0.00    +0.000 C 
ATOM     43  C   UNL     1      53.630   4.688  17.541  0.00  0.00    +0.000 C 
ATOM     44  O   UNL     1      53.585   3.459  17.467  0.00  0.00    +0.000 OA
ATOM     45  C   UNL     1      53.034   5.446  18.750  0.00  0.00    +0.000 C 
ATOM     46  C   UNL     1      53.976   5.199  19.926  0.00  0.00    +0.000 C 
ATOM     47  C   UNL     1      51.533   5.084  18.958  0.00  0.00    +0.000 C 
ATOM     49  C   UNL     1      50.687   5.826  20.076  0.00  0.00    +0.000 C 
ATOM     50  C   UNL     1      51.443   6.917  20.842  0.00  0.00    +0.000 C 
ENDROOT
BRANCH  49  51
ATOM     51  O   UNL     1      50.371   4.821  21.063  0.00  0.00    +0.000 OA
ATOM     56  H   UNL     1      50.783   3.999  20.739  0.00  0.00    +0.000 HD
ENDBRANCH  49  51
BRANCH  47  48
ATOM     48  O   UNL     1      51.376   3.670  19.207  0.00  0.00    +0.000 OA
ATOM     55  H   UNL     1      51.374   3.222  18.341  0.00  0.00    +0.000 HD
ENDBRANCH  47  48
BRANCH   3   2
ATOM      1  C   UNL     1      47.152   5.696  20.670  0.00  0.00    +0.000 C 
ATOM      2  C   UNL     1      48.248   6.743  20.518  0.00  0.00    +0.000 C 
ENDBRANCH   3   2
BRANCH  37  39
ATOM     39  O   UNL     1      54.810   7.947  14.543  0.00  0.00    +0.000 OA
ATOM     54  H   UNL     1      54.542   8.564  13.830  0.00  0.00    +0.000 HD
ENDBRANCH  37  39
BRANCH   9  10
ATOM     10  O   UNL     1      49.329   9.908  14.977  0.00  0.00    +0.000 OA
BRANCH  10  11
ATOM     11  C   UNL     1      48.553   9.185  14.004  0.00  0.00    +0.000 C 
ATOM     12  C   UNL     1      47.871   7.887  14.412  0.00  0.00    +0.000 C 
ATOM     13  C   UNL     1      47.375   7.110  13.172  0.00  0.00    +0.000 C 
ATOM     14  C   UNL     1      48.557   6.676  12.293  0.00  0.00    +0.000 C 
ATOM     17  C   UNL     1      46.418   8.017  12.358  0.00  0.00    +0.000 C 
ATOM     19  C   UNL     1      46.997   9.448  12.147  0.00  0.00    +0.000 C 
ATOM     20  C   UNL     1      47.961   9.564  10.954  0.00  0.00    +0.000 C 
ATOM     21  O   UNL     1      47.573  10.019  13.352  0.00  0.00    +0.000 OA
BRANCH  13  15
ATOM     15  O   UNL     1      46.738   5.930  13.729  0.00  0.00    +0.000 OA
ATOM     16  C   UNL     1      47.183   4.667  13.274  0.00  0.00    +0.000 C 
ENDBRANCH  13  15
BRANCH  17  18
ATOM     18  O   UNL     1      45.152   8.143  13.029  0.00  0.00    +0.000 OA
ATOM     52  H   UNL     1      44.949   7.283  13.438  0.00  0.00    +0.000 HD
ENDBRANCH  17  18
ENDBRANCH  10  11
ENDBRANCH   9  10
BRANCH  24  25
ATOM     25  O   UNL     1      52.874   9.338  13.683  0.00  0.00    +0.000 OA
BRANCH  25  26
ATOM     26  C   UNL     1      51.884   9.748  12.742  0.00  0.00    +0.000 C 
ATOM     27  O   UNL     1      51.366   8.692  11.949  0.00  0.00    +0.000 OA
ATOM     28  C   UNL     1      52.134   8.237  10.842  0.00  0.00    +0.000 C 
ATOM     29  C   UNL     1      52.672   6.835  11.121  0.00  0.00    +0.000 C 
ATOM     30  C   UNL     1      53.123   9.208  10.180  0.00  0.00    +0.000 C 
ATOM     31  C   UNL     1      53.587  10.452  10.975  0.00  0.00    +0.000 C 
ATOM     35  C   UNL     1      52.392  10.905  11.853  0.00  0.00    +0.000 C 
BRANCH  31  32
ATOM     32  N   UNL     1      54.824  10.343  11.790  0.00  0.00    +0.000 NA
ATOM     33  C   UNL     1      55.702  11.516  11.568  0.00  0.00    +0.000 C 
ATOM     34  C   UNL     1      55.629   9.138  11.578  0.00  0.00    +0.000 C 
ENDBRANCH  31  32
BRANCH  35  36
ATOM     36  O   UNL     1      51.341  11.424  11.014  0.00  0.00    +0.000 OA
ATOM     53  H   UNL     1      50.939  10.667  10.553  0.00  0.00    +0.000 HD
ENDBRANCH  35  36
ENDBRANCH  25  26
ENDBRANCH  24  25
TORSDOF 12
ENDMDL
MODEL 5
REMARK VINA RESULT:    -2.521     13.718     17.065
REMARK INTER + INTRA:          -6.192
REMARK INTER:                  -5.455
REMARK INTRA:                  -0.738
REMARK UNBOUND:                -2.271
REMARK  Name = 
REMARK  25 active torsions:
REMARK  status: ('A' for Active; 'I' for Inactive)
REMARK    1  A    between atoms: C_1  and  C_2
REMARK    2  A    between atoms: C_2  and  C_3
REMARK    3  A    between atoms: C_7  and  C_8
REMARK    4  A    between atoms: C_9  and  O_10
REMARK    5  A    between atoms: O_10  and  C_11
REMARK    6  A    between atoms: C_13  and  C_14
REMARK    7  A    between atoms: C_13  and  O_15
REMARK    8  A    between atoms: O_15  and  C_16
REMARK    9  A    between atoms: C_17  and  O_18
REMARK   10  A    between atoms: C_19  and  C_20
REMARK   11  A    between atoms: C_22  and  C_23
REMARK   12  A    between atoms: C_24  and  O_25
REMARK   13  A    between atoms: O_25  and  C_26
REMARK   14  A    between atoms: C_28  and  C_29
REMARK   15  A    between atoms: C_31  and  N_32
REMARK   16  A    between atoms: N_32  and  C_33
REMARK   17  A    between atoms: N_32  and  C_34
REMARK   18  A    between atoms: C_35  and  O_36
REMARK   19  A    between atoms: C_37  and  C_38
REMARK   20  A    between atoms: C_37  and  O_39
REMARK   21  A    between atoms: C_41  and  C_42
REMARK   22  A    between atoms: C_45  and  C_46
REMARK   23  A    between atoms: C_47  and  O_48
REMARK   24  A    between atoms: C_49  and  C_50
REMARK   25  A    between atoms: C_49  and  O_51
REMARK                            x       y       z     vdW  Elec       q    Type
REMARK                         _______ _______ _______ _____ _____    ______ ____
ROOT
ATOM      3  C   UNL     1      53.448   9.522  16.043  0.00  0.00    +0.000 C 
ATOM      4  O   UNL     1      51.993   9.538  15.849  0.00  0.00    +0.000 OA
ATOM      5  C   UNL     1      51.166   8.917  16.744  0.00  0.00    +0.000 C 
ATOM      6  O   UNL     1      51.535   8.260  17.703  0.00  0.00    +0.000 OA
ATOM      7  C   UNL     1      49.711   9.124  16.325  0.00  0.00    +0.000 C 
ATOM      8  C   UNL     1      48.842   9.505  17.526  0.00  0.00    +0.000 C 
ATOM      9  C   UNL     1      49.274   7.859  15.499  0.00  0.00    +0.000 C 
ATOM     22  C   UNL     1      48.751   8.280  14.061  0.00  0.00    +0.000 C 
ATOM     23  C   UNL     1      47.366   8.960  13.994  0.00  0.00    +0.000 C 
ATOM     24  C   UNL     1      48.935   7.180  12.936  0.00  0.00    +0.000 C 
ATOM     37  C   UNL     1      49.659   7.755  11.595  0.00  0.00    +0.000 C 
ATOM     38  C   UNL     1      49.530   9.272  11.416  0.00  0.00    +0.000 C 
ATOM     40  C   UNL     1      51.127   7.267  11.612  0.00  0.00    +0.000 C 
ATOM     41  C   UNL     1      52.174   7.685  10.549  0.00  0.00    +0.000 C 
ATOM     42  C   UNL     1      51.835   8.698   9.462  0.00  0.00    +0.000 C 
ATOM     43  C   UNL     1      53.476   8.106  11.243  0.00  0.00    +0.000 C 
ATOM     44  O   UNL     1      54.521   7.505  10.990  0.00  0.00    +0.000 OA
ATOM     45  C   UNL     1      53.460   9.344  12.169  0.00  0.00    +0.000 C 
ATOM     46  C   UNL     1      54.093  10.487  11.378  0.00  0.00    +0.000 C 
ATOM     47  C   UNL     1      54.084   9.015  13.559  0.00  0.00    +0.000 C 
ATOM     49  C   UNL     1      54.077  10.108  14.709  0.00  0.00    +0.000 C 
ATOM     50  C   UNL     1      53.374  11.422  14.348  0.00  0.00    +0.000 C 
ENDROOT
BRANCH  49  51
ATOM     51  O   UNL     1      55.458  10.464  14.924  0.00  0.00    +0.000 OA
ATOM     56  H   UNL     1      55.441  11.207  15.556  0.00  0.00    +0.000 HD
ENDBRANCH  49  51
BRANCH  47  48
ATOM     48  O   UNL     1      55.457   8.591  13.417  0.00  0.00    +0.000 OA
ATOM     55  H   UNL     1      55.482   7.922  12.708  0.00  0.00    +0.000 HD
ENDBRANCH  47  48
BRANCH   3   2
ATOM      1  C   UNL     1      54.775   9.611  18.295  0.00  0.00    +0.000 C 
ATOM      2  C   UNL     1      53.823  10.309  17.332  0.00  0.00    +0.000 C 
ENDBRANCH   3   2
BRANCH  37  39
ATOM     39  O   UNL     1      49.066   7.163  10.428  0.00  0.00    +0.000 OA
ATOM     54  H   UNL     1      48.775   7.905   9.857  0.00  0.00    +0.000 HD
ENDBRANCH  37  39
BRANCH   9  10
ATOM     10  O   UNL     1      48.324   7.084  16.217  0.00  0.00    +0.000 OA
BRANCH  10  11
ATOM     11  C   UNL     1      48.724   6.108  17.197  0.00  0.00    +0.000 C 
ATOM     12  C   UNL     1      47.954   6.011  18.506  0.00  0.00    +0.000 C 
ATOM     13  C   UNL     1      48.722   5.154  19.537  0.00  0.00    +0.000 C 
ATOM     14  C   UNL     1      50.056   5.818  19.911  0.00  0.00    +0.000 C 
ATOM     17  C   UNL     1      48.983   3.752  18.932  0.00  0.00    +0.000 C 
ATOM     19  C   UNL     1      49.540   3.829  17.478  0.00  0.00    +0.000 C 
ATOM     20  C   UNL     1      51.062   4.037  17.400  0.00  0.00    +0.000 C 
ATOM     21  O   UNL     1      48.830   4.782  16.642  0.00  0.00    +0.000 OA
BRANCH  13  15
ATOM     15  O   UNL     1      47.854   5.141  20.700  0.00  0.00    +0.000 OA
ATOM     16  C   UNL     1      47.245   6.361  21.079  0.00  0.00    +0.000 C 
ENDBRANCH  13  15
BRANCH  17  18
ATOM     18  O   UNL     1      47.769   2.981  18.904  0.00  0.00    +0.000 OA
ATOM     52  H   UNL     1      47.907   2.237  18.292  0.00  0.00    +0.000 HD
ENDBRANCH  17  18
ENDBRANCH  10  11
ENDBRANCH   9  10
BRANCH  24  25
ATOM     25  O   UNL     1      47.722   6.549  12.486  0.00  0.00    +0.000 OA
BRANCH  25  26
ATOM     26  C   UNL     1      46.613   6.544  13.384  0.00  0.00    +0.000 C 
ATOM     27  O   UNL     1      46.637   5.485  14.328  0.00  0.00    +0.000 OA
ATOM     28  C   UNL     1      46.216   4.194  13.906  0.00  0.00    +0.000 C 
ATOM     29  C   UNL     1      47.413   3.246  13.853  0.00  0.00    +0.000 C 
ATOM     30  C   UNL     1      45.230   4.084  12.734  0.00  0.00    +0.000 C 
ATOM     31  C   UNL     1      45.078   5.289  11.776  0.00  0.00    +0.000 C 
ATOM     35  C   UNL     1      45.269   6.573  12.623  0.00  0.00    +0.000 C 
BRANCH  31  32
ATOM     32  N   UNL     1      45.931   5.332  10.560  0.00  0.00    +0.000 NA
ATOM     33  C   UNL     1      45.859   6.665   9.917  0.00  0.00    +0.000 C 
ATOM     34  C   UNL     1      45.640   4.327   9.536  0.00  0.00    +0.000 C 
ENDBRANCH  31  32
BRANCH  35  36
ATOM     36  O   UNL     1      44.157   6.729  13.527  0.00  0.00    +0.000 OA
ATOM     53  H   UNL     1      43.810   7.630  13.405  0.00  0.00    +0.000 HD
ENDBRANCH  35  36
ENDBRANCH  25  26
ENDBRANCH  24  25
TORSDOF 12
ENDMDL
MODEL 6
REMARK VINA RESULT:    -2.455      2.282      7.851
REMARK INTER + INTRA:          -6.090
REMARK INTER:                  -5.389
REMARK INTRA:                  -0.701
REMARK UNBOUND:                -2.271
REMARK  Name = 
REMARK  25 active torsions:
REMARK  status: ('A' for Active; 'I' for Inactive)
REMARK    1  A    between atoms: C_1  and  C_2
REMARK    2  A    between atoms: C_2  and  C_3
REMARK    3  A    between atoms: C_7  and  C_8
REMARK    4  A    between atoms: C_9  and  O_10
REMARK    5  A    between atoms: O_10  and  C_11
REMARK    6  A    between atoms: C_13  and  C_14
REMARK    7  A    between atoms: C_13  and  O_15
REMARK    8  A    between atoms: O_15  and  C_16
REMARK    9  A    between atoms: C_17  and  O_18
REMARK   10  A    between atoms: C_19  and  C_20
REMARK   11  A    between atoms: C_22  and  C_23
REMARK   12  A    between atoms: C_24  and  O_25
REMARK   13  A    between atoms: O_25  and  C_26
REMARK   14  A    between atoms: C_28  and  C_29
REMARK   15  A    between atoms: C_31  and  N_32
REMARK   16  A    between atoms: N_32  and  C_33
REMARK   17  A    between atoms: N_32  and  C_34
REMARK   18  A    between atoms: C_35  and  O_36
REMARK   19  A    between atoms: C_37  and  C_38
REMARK   20  A    between atoms: C_37  and  O_39
REMARK   21  A    between atoms: C_41  and  C_42
REMARK   22  A    between atoms: C_45  and  C_46
REMARK   23  A    between atoms: C_47  and  O_48
REMARK   24  A    between atoms: C_49  and  C_50
REMARK   25  A    between atoms: C_49  and  O_51
REMARK                            x       y       z     vdW  Elec       q    Type
REMARK                         _______ _______ _______ _____ _____    ______ ____
ROOT
ATOM      3  C   UNL     1      37.500  -1.990   9.399  0.00  0.00    +0.000 C 
ATOM      4  O   UNL     1      37.242  -1.993  10.844  0.00  0.00    +0.000 OA
ATOM      5  C   UNL     1      37.769  -1.018  11.646  0.00  0.00    +0.000 C 
ATOM      6  O   UNL     1      38.526  -0.137  11.275  0.00  0.00    +0.000 OA
ATOM      7  C   UNL     1      37.312  -1.238  13.088  0.00  0.00    +0.000 C 
ATOM      8  C   UNL     1      36.861   0.078  13.728  0.00  0.00    +0.000 C 
ATOM      9  C   UNL     1      38.445  -2.039  13.825  0.00  0.00    +0.000 C 
ATOM     22  C   UNL     1      37.872  -3.384  14.445  0.00  0.00    +0.000 C 
ATOM     23  C   UNL     1      36.977  -3.248  15.697  0.00  0.00    +0.000 C 
ATOM     24  C   UNL     1      38.927  -4.557  14.584  0.00  0.00    +0.000 C 
ATOM     37  C   UNL     1      38.404  -5.962  13.947  0.00  0.00    +0.000 C 
ATOM     38  C   UNL     1      36.879  -6.074  13.845  0.00  0.00    +0.000 C 
ATOM     40  C   UNL     1      39.120  -6.152  12.588  0.00  0.00    +0.000 C 
ATOM     41  C   UNL     1      38.819  -7.327  11.625  0.00  0.00    +0.000 C 
ATOM     42  C   UNL     1      37.709  -8.329  11.924  0.00  0.00    +0.000 C 
ATOM     43  C   UNL     1      38.648  -6.796  10.197  0.00  0.00    +0.000 C 
ATOM     44  O   UNL     1      39.394  -7.202   9.304  0.00  0.00    +0.000 OA
ATOM     45  C   UNL     1      37.474  -5.836   9.894  0.00  0.00    +0.000 C 
ATOM     46  C   UNL     1      36.406  -6.666   9.184  0.00  0.00    +0.000 C 
ATOM     47  C   UNL     1      37.970  -4.551   9.166  0.00  0.00    +0.000 C 
ATOM     49  C   UNL     1      36.952  -3.376   8.852  0.00  0.00    +0.000 C 
ATOM     50  C   UNL     1      35.526  -3.600   9.367  0.00  0.00    +0.000 C 
ENDROOT
BRANCH  49  51
ATOM     51  O   UNL     1      36.832  -3.331   7.415  0.00  0.00    +0.000 OA
ATOM     56  H   UNL     1      36.235  -4.066   7.180  0.00  0.00    +0.000 HD
ENDBRANCH  49  51
BRANCH  47  48
ATOM     48  O   UNL     1      38.599  -4.883   7.910  0.00  0.00    +0.000 OA
ATOM     55  H   UNL     1      38.948  -5.791   7.991  0.00  0.00    +0.000 HD
ENDBRANCH  47  48
BRANCH   3   2
ATOM      1  C   UNL     1      35.532  -0.268   9.347  0.00  0.00    +0.000 C 
ATOM      2  C   UNL     1      36.851  -0.737   8.744  0.00  0.00    +0.000 C 
ENDBRANCH   3   2
BRANCH  37  39
ATOM     39  O   UNL     1      38.833  -7.060  14.768  0.00  0.00    +0.000 OA
ATOM     54  H   UNL     1      38.035  -7.603  14.944  0.00  0.00    +0.000 HD
ENDBRANCH  37  39
BRANCH   9  10
ATOM     10  O   UNL     1      39.096  -1.230  14.794  0.00  0.00    +0.000 OA
BRANCH  10  11
ATOM     11  C   UNL     1      38.591  -1.095  16.136  0.00  0.00    +0.000 C 
ATOM     12  C   UNL     1      39.536  -1.300  17.311  0.00  0.00    +0.000 C 
ATOM     13  C   UNL     1      38.751  -1.438  18.634  0.00  0.00    +0.000 C 
ATOM     14  C   UNL     1      37.866  -2.693  18.615  0.00  0.00    +0.000 C 
ATOM     17  C   UNL     1      37.872  -0.177  18.832  0.00  0.00    +0.000 C 
ATOM     19  C   UNL     1      37.082   0.201  17.544  0.00  0.00    +0.000 C 
ATOM     20  C   UNL     1      35.762  -0.570  17.369  0.00  0.00    +0.000 C 
ATOM     21  O   UNL     1      37.890   0.149  16.338  0.00  0.00    +0.000 OA
BRANCH  13  15
ATOM     15  O   UNL     1      39.785  -1.599  19.641  0.00  0.00    +0.000 OA
ATOM     16  C   UNL     1      39.510  -2.457  20.732  0.00  0.00    +0.000 C 
ENDBRANCH  13  15
BRANCH  17  18
ATOM     18  O   UNL     1      38.684   0.950  19.204  0.00  0.00    +0.000 OA
ATOM     52  H   UNL     1      39.372   0.629  19.814  0.00  0.00    +0.000 HD
ENDBRANCH  17  18
ENDBRANCH  10  11
ENDBRANCH   9  10
BRANCH  24  25
ATOM     25  O   UNL     1      39.332  -4.865  15.931  0.00  0.00    +0.000 OA
BRANCH  25  26
ATOM     26  C   UNL     1      40.516  -4.237  16.420  0.00  0.00    +0.000 C 
ATOM     27  O   UNL     1      41.666  -4.471  15.623  0.00  0.00    +0.000 OA
ATOM     28  C   UNL     1      42.346  -5.712  15.764  0.00  0.00    +0.000 C 
ATOM     29  C   UNL     1      42.156  -6.557  14.506  0.00  0.00    +0.000 C 
ATOM     30  C   UNL     1      42.233  -6.470  17.095  0.00  0.00    +0.000 C 
ATOM     31  C   UNL     1      41.066  -6.123  18.051  0.00  0.00    +0.000 C 
ATOM     35  C   UNL     1      40.784  -4.606  17.896  0.00  0.00    +0.000 C 
BRANCH  31  32
ATOM     32  N   UNL     1      39.808  -6.904  17.934  0.00  0.00    +0.000 NA
ATOM     33  C   UNL     1      38.928  -6.656  19.101  0.00  0.00    +0.000 C 
ATOM     34  C   UNL     1      39.963  -8.353  17.793  0.00  0.00    +0.000 C 
ENDBRANCH  31  32
BRANCH  35  36
ATOM     36  O   UNL     1      41.886  -3.849  18.435  0.00  0.00    +0.000 OA
ATOM     53  H   UNL     1      42.669  -4.056  17.896  0.00  0.00    +0.000 HD
ENDBRANCH  35  36
ENDBRANCH  25  26
ENDBRANCH  24  25
TORSDOF 12
ENDMDL
MODEL 7
REMARK VINA RESULT:    -2.336     14.463     18.025
REMARK INTER + INTRA:          -5.905
REMARK INTER:                  -3.782
REMARK INTRA:                  -2.122
REMARK UNBOUND:                -2.271
REMARK  Name = 
REMARK  25 active torsions:
REMARK  status: ('A' for Active; 'I' for Inactive)
REMARK    1  A    between atoms: C_1  and  C_2
REMARK    2  A    between atoms: C_2  and  C_3
REMARK    3  A    between atoms: C_7  and  C_8
REMARK    4  A    between atoms: C_9  and  O_10
REMARK    5  A    between atoms: O_10  and  C_11
REMARK    6  A    between atoms: C_13  and  C_14
REMARK    7  A    between atoms: C_13  and  O_15
REMARK    8  A    between atoms: O_15  and  C_16
REMARK    9  A    between atoms: C_17  and  O_18
REMARK   10  A    between atoms: C_19  and  C_20
REMARK   11  A    between atoms: C_22  and  C_23
REMARK   12  A    between atoms: C_24  and  O_25
REMARK   13  A    between atoms: O_25  and  C_26
REMARK   14  A    between atoms: C_28  and  C_29
REMARK   15  A    between atoms: C_31  and  N_32
REMARK   16  A    between atoms: N_32  and  C_33
REMARK   17  A    between atoms: N_32  and  C_34
REMARK   18  A    between atoms: C_35  and  O_36
REMARK   19  A    between atoms: C_37  and  C_38
REMARK   20  A    between atoms: C_37  and  O_39
REMARK   21  A    between atoms: C_41  and  C_42
REMARK   22  A    between atoms: C_45  and  C_46
REMARK   23  A    between atoms: C_47  and  O_48
REMARK   24  A    between atoms: C_49  and  C_50
REMARK   25  A    between atoms: C_49  and  O_51
REMARK                            x       y       z     vdW  Elec       q    Type
REMARK                         _______ _______ _______ _____ _____    ______ ____
ROOT
ATOM      3  C   UNL     1      54.331   9.682  13.594  0.00  0.00    +0.000 C 
ATOM      4  O   UNL     1      53.722   9.681  14.929  0.00  0.00    +0.000 OA
ATOM      5  C   UNL     1      54.387   9.141  15.996  0.00  0.00    +0.000 C 
ATOM      6  O   UNL     1      55.463   8.570  15.937  0.00  0.00    +0.000 OA
ATOM      7  C   UNL     1      53.547   9.310  17.262  0.00  0.00    +0.000 C 
ATOM      8  C   UNL     1      54.408   9.795  18.431  0.00  0.00    +0.000 C 
ATOM      9  C   UNL     1      52.739   7.978  17.473  0.00  0.00    +0.000 C 
ATOM     22  C   UNL     1      51.181   8.270  17.546  0.00  0.00    +0.000 C 
ATOM     23  C   UNL     1      50.658   8.942  18.835  0.00  0.00    +0.000 C 
ATOM     24  C   UNL     1      50.255   7.076  17.072  0.00  0.00    +0.000 C 
ATOM     37  C   UNL     1      49.138   7.531  15.978  0.00  0.00    +0.000 C 
ATOM     38  C   UNL     1      48.803   9.027  16.010  0.00  0.00    +0.000 C 
ATOM     40  C   UNL     1      49.622   7.047  14.590  0.00  0.00    +0.000 C 
ATOM     41  C   UNL     1      48.879   7.370  13.270  0.00  0.00    +0.000 C 
ATOM     42  C   UNL     1      47.658   8.284  13.254  0.00  0.00    +0.000 C 
ATOM     43  C   UNL     1      49.882   7.849  12.214  0.00  0.00    +0.000 C 
ATOM     44  O   UNL     1      49.995   7.228  11.156  0.00  0.00    +0.000 OA
ATOM     45  C   UNL     1      50.657   9.164  12.466  0.00  0.00    +0.000 C 
ATOM     46  C   UNL     1      49.991  10.233  11.602  0.00  0.00    +0.000 C 
ATOM     47  C   UNL     1      52.191   8.959  12.279  0.00  0.00    +0.000 C 
ATOM     49  C   UNL     1      53.192  10.149  12.591  0.00  0.00    +0.000 C 
ATOM     50  C   UNL     1      52.534  11.426  13.125  0.00  0.00    +0.000 C 
ENDROOT
BRANCH  49  51
ATOM     51  O   UNL     1      53.769  10.522  11.322  0.00  0.00    +0.000 OA
ATOM     56  H   UNL     1      53.061  10.388  10.665  0.00  0.00    +0.000 HD
ENDBRANCH  49  51
BRANCH  47  48
ATOM     48  O   UNL     1      52.490   8.524  10.935  0.00  0.00    +0.000 OA
ATOM     55  H   UNL     1      52.111   7.632  10.828  0.00  0.00    +0.000 HD
ENDBRANCH  47  48
BRANCH   3   2
ATOM      1  C   UNL     1      55.771  11.515  14.779  0.00  0.00    +0.000 C 
ATOM      2  C   UNL     1      55.602  10.579  13.588  0.00  0.00    +0.000 C 
ENDBRANCH   3   2
BRANCH  37  39
ATOM     39  O   UNL     1      47.904   6.839  16.222  0.00  0.00    +0.000 OA
ATOM     54  H   UNL     1      47.225   7.276  15.665  0.00  0.00    +0.000 HD
ENDBRANCH  37  39
BRANCH   9  10
ATOM     10  O   UNL     1      53.212   7.269  18.610  0.00  0.00    +0.000 OA
BRANCH  10  11
ATOM     11  C   UNL     1      53.739   5.933  18.507  0.00  0.00    +0.000 C 
ATOM     12  C   UNL     1      53.398   4.914  19.585  0.00  0.00    +0.000 C 
ATOM     13  C   UNL     1      54.304   3.668  19.475  0.00  0.00    +0.000 C 
ATOM     14  C   UNL     1      55.773   4.038  19.731  0.00  0.00    +0.000 C 
ATOM     17  C   UNL     1      54.154   3.059  18.058  0.00  0.00    +0.000 C 
ATOM     19  C   UNL     1      54.247   4.138  16.938  0.00  0.00    +0.000 C 
ATOM     20  C   UNL     1      55.686   4.491  16.525  0.00  0.00    +0.000 C 
ATOM     21  O   UNL     1      53.469   5.332  17.224  0.00  0.00    +0.000 OA
BRANCH  13  15
ATOM     15  O   UNL     1      53.840   2.799  20.541  0.00  0.00    +0.000 OA
ATOM     16  C   UNL     1      54.746   1.838  21.048  0.00  0.00    +0.000 C 
ENDBRANCH  13  15
BRANCH  17  18
ATOM     18  O   UNL     1      52.887   2.391  17.929  0.00  0.00    +0.000 OA
ATOM     52  H   UNL     1      53.065   1.438  17.840  0.00  0.00    +0.000 HD
ENDBRANCH  17  18
ENDBRANCH  10  11
ENDBRANCH   9  10
BRANCH  24  25
ATOM     25  O   UNL     1      49.527   6.408  18.120  0.00  0.00    +0.000 OA
BRANCH  25  26
ATOM     26  C   UNL     1      50.184   5.338  18.797  0.00  0.00    +0.000 C 
ATOM     27  O   UNL     1      50.052   4.080  18.156  0.00  0.00    +0.000 OA
ATOM     28  C   UNL     1      48.841   3.356  18.329  0.00  0.00    +0.000 C 
ATOM     29  C   UNL     1      48.059   3.326  17.017  0.00  0.00    +0.000 C 
ATOM     30  C   UNL     1      48.005   3.604  19.593  0.00  0.00    +0.000 C 
ATOM     31  C   UNL     1      48.240   4.908  20.394  0.00  0.00    +0.000 C 
ATOM     35  C   UNL     1      49.747   5.251  20.276  0.00  0.00    +0.000 C 
BRANCH  31  32
ATOM     32  N   UNL     1      47.405   6.092  20.068  0.00  0.00    +0.000 NA
ATOM     33  C   UNL     1      47.569   7.147  21.096  0.00  0.00    +0.000 C 
ATOM     34  C   UNL     1      45.971   5.843  19.911  0.00  0.00    +0.000 C 
ENDBRANCH  31  32
BRANCH  35  36
ATOM     36  O   UNL     1      50.526   4.277  20.998  0.00  0.00    +0.000 OA
ATOM     53  H   UNL     1      50.692   4.640  21.885  0.00  0.00    +0.000 HD
ENDBRANCH  35  36
ENDBRANCH  25  26
ENDBRANCH  24  25
TORSDOF 12
ENDMDL
MODEL 8
REMARK VINA RESULT:    -1.203      2.404      7.542
REMARK INTER + INTRA:          -4.142
REMARK INTER:                  -4.008
REMARK INTRA:                  -0.134
REMARK UNBOUND:                -2.271
REMARK  Name = 
REMARK  25 active torsions:
REMARK  status: ('A' for Active; 'I' for Inactive)
REMARK    1  A    between atoms: C_1  and  C_2
REMARK    2  A    between atoms: C_2  and  C_3
REMARK    3  A    between atoms: C_7  and  C_8
REMARK    4  A    between atoms: C_9  and  O_10
REMARK    5  A    between atoms: O_10  and  C_11
REMARK    6  A    between atoms: C_13  and  C_14
REMARK    7  A    between atoms: C_13  and  O_15
REMARK    8  A    between atoms: O_15  and  C_16
REMARK    9  A    between atoms: C_17  and  O_18
REMARK   10  A    between atoms: C_19  and  C_20
REMARK   11  A    between atoms: C_22  and  C_23
REMARK   12  A    between atoms: C_24  and  O_25
REMARK   13  A    between atoms: O_25  and  C_26
REMARK   14  A    between atoms: C_28  and  C_29
REMARK   15  A    between atoms: C_31  and  N_32
REMARK   16  A    between atoms: N_32  and  C_33
REMARK   17  A    between atoms: N_32  and  C_34
REMARK   18  A    between atoms: C_35  and  O_36
REMARK   19  A    between atoms: C_37  and  C_38
REMARK   20  A    between atoms: C_37  and  O_39
REMARK   21  A    between atoms: C_41  and  C_42
REMARK   22  A    between atoms: C_45  and  C_46
REMARK   23  A    between atoms: C_47  and  O_48
REMARK   24  A    between atoms: C_49  and  C_50
REMARK   25  A    between atoms: C_49  and  O_51
REMARK                            x       y       z     vdW  Elec       q    Type
REMARK                         _______ _______ _______ _____ _____    ______ ____
ROOT
ATOM      3  C   UNL     1      36.837  -1.300  12.450  0.00  0.00    +0.000 C 
ATOM      4  O   UNL     1      36.606  -1.712  13.839  0.00  0.00    +0.000 OA
ATOM      5  C   UNL     1      36.777  -0.824  14.866  0.00  0.00    +0.000 C 
ATOM      6  O   UNL     1      37.189   0.318  14.744  0.00  0.00    +0.000 OA
ATOM      7  C   UNL     1      36.433  -1.500  16.192  0.00  0.00    +0.000 C 
ATOM      8  C   UNL     1      35.567  -0.588  17.065  0.00  0.00    +0.000 C 
ATOM      9  C   UNL     1      37.776  -2.024  16.818  0.00  0.00    +0.000 C 
ATOM     22  C   UNL     1      37.698  -3.585  17.095  0.00  0.00    +0.000 C 
ATOM     23  C   UNL     1      36.819  -4.039  18.282  0.00  0.00    +0.000 C 
ATOM     24  C   UNL     1      39.089  -4.341  17.053  0.00  0.00    +0.000 C 
ATOM     37  C   UNL     1      39.068  -5.659  16.095  0.00  0.00    +0.000 C 
ATOM     38  C   UNL     1      37.671  -6.245  15.867  0.00  0.00    +0.000 C 
ATOM     40  C   UNL     1      39.796  -5.290  14.780  0.00  0.00    +0.000 C 
ATOM     41  C   UNL     1      39.904  -6.251  13.570  0.00  0.00    +0.000 C 
ATOM     42  C   UNL     1      39.201  -7.604  13.571  0.00  0.00    +0.000 C 
ATOM     43  C   UNL     1      39.552  -5.501  12.280  0.00  0.00    +0.000 C 
ATOM     44  O   UNL     1      40.385  -5.425  11.375  0.00  0.00    +0.000 OA
ATOM     45  C   UNL     1      38.120  -4.944  12.109  0.00  0.00    +0.000 C 
ATOM     46  C   UNL     1      37.391  -5.899  11.166  0.00  0.00    +0.000 C 
ATOM     47  C   UNL     1      38.146  -3.438  11.708  0.00  0.00    +0.000 C 
ATOM     49  C   UNL     1      36.787  -2.629  11.583  0.00  0.00    +0.000 C 
ATOM     50  C   UNL     1      35.525  -3.423  11.938  0.00  0.00    +0.000 C 
ENDROOT
BRANCH  49  51
ATOM     51  O   UNL     1      36.648  -2.305  10.183  0.00  0.00    +0.000 OA
ATOM     56  H   UNL     1      35.752  -2.599   9.935  0.00  0.00    +0.000 HD
ENDBRANCH  49  51
BRANCH  47  48
ATOM     48  O   UNL     1      38.841  -3.252  10.456  0.00  0.00    +0.000 OA
ATOM     55  H   UNL     1      38.194  -3.402   9.741  0.00  0.00    +0.000 HD
ENDBRANCH  47  48
BRANCH   3   2
ATOM      1  C   UNL     1      36.359   1.055  11.417  0.00  0.00    +0.000 C 
ATOM      2  C   UNL     1      35.797  -0.220  12.034  0.00  0.00    +0.000 C 
ENDBRANCH   3   2
BRANCH  37  39
ATOM     39  O   UNL     1      39.850  -6.707  16.691  0.00  0.00    +0.000 OA
ATOM     54  H   UNL     1      40.628  -6.274  17.102  0.00  0.00    +0.000 HD
ENDBRANCH  37  39
BRANCH   9  10
ATOM     10  O   UNL     1      38.121  -1.283  17.980  0.00  0.00    +0.000 OA
BRANCH  10  11
ATOM     11  C   UNL     1      37.927   0.141  18.059  0.00  0.00    +0.000 C 
ATOM     12  C   UNL     1      37.893   0.812  19.425  0.00  0.00    +0.000 C 
ATOM     13  C   UNL     1      37.355   2.256  19.318  0.00  0.00    +0.000 C 
ATOM     14  C   UNL     1      35.896   2.261  18.839  0.00  0.00    +0.000 C 
ATOM     17  C   UNL     1      38.238   3.050  18.322  0.00  0.00    +0.000 C 
ATOM     19  C   UNL     1      38.498   2.262  17.003  0.00  0.00    +0.000 C 
ATOM     20  C   UNL     1      37.374   2.397  15.961  0.00  0.00    +0.000 C 
ATOM     21  O   UNL     1      38.850   0.871  17.226  0.00  0.00    +0.000 OA
BRANCH  13  15
ATOM     15  O   UNL     1      37.410   2.754  20.680  0.00  0.00    +0.000 OA
ATOM     16  C   UNL     1      36.723   3.957  20.968  0.00  0.00    +0.000 C 
ENDBRANCH  13  15
BRANCH  17  18
ATOM     18  O   UNL     1      39.512   3.360  18.915  0.00  0.00    +0.000 OA
ATOM     52  H   UNL     1      39.985   3.951  18.303  0.00  0.00    +0.000 HD
ENDBRANCH  17  18
ENDBRANCH  10  11
ENDBRANCH   9  10
BRANCH  24  25
ATOM     25  O   UNL     1      39.584  -4.791  18.328  0.00  0.00    +0.000 OA
BRANCH  25  26
ATOM     26  C   UNL     1      40.494  -3.935  19.017  0.00  0.00    +0.000 C 
ATOM     27  O   UNL     1      41.629  -3.561  18.253  0.00  0.00    +0.000 OA
ATOM     28  C   UNL     1      42.699  -4.489  18.130  0.00  0.00    +0.000 C 
ATOM     29  C   UNL     1      42.772  -5.015  16.698  0.00  0.00    +0.000 C 
ATOM     30  C   UNL     1      42.896  -5.539  19.234  0.00  0.00    +0.000 C 
ATOM     31  C   UNL     1      41.711  -5.856  20.178  0.00  0.00    +0.000 C 
ATOM     35  C   UNL     1      40.919  -4.538  20.375  0.00  0.00    +0.000 C 
BRANCH  31  32
ATOM     32  N   UNL     1      40.797  -6.967  19.809  0.00  0.00    +0.000 NA
ATOM     33  C   UNL     1      39.873  -7.277  20.925  0.00  0.00    +0.000 C 
ATOM     34  C   UNL     1      41.438  -8.218  19.401  0.00  0.00    +0.000 C 
ENDBRANCH  31  32
BRANCH  35  36
ATOM     36  O   UNL     1      41.709  -3.605  21.139  0.00  0.00    +0.000 OA
ATOM     53  H   UNL     1      41.178  -2.796  21.244  0.00  0.00    +0.000 HD
ENDBRANCH  35  36
ENDBRANCH  25  26
ENDBRANCH  24  25
TORSDOF 12
ENDMDL
