MODEL 1
REMARK VINA RESULT:    -6.758      0.000      0.000
REMARK INTER + INTRA:          -8.419
REMARK INTER:                  -7.943
REMARK INTRA:                  -0.476
REMARK UNBOUND:                -0.476
REMARK  Name = 
REMARK  4 active torsions:
REMARK  status: ('A' for Active; 'I' for Inactive)
REMARK    1  A    between atoms: C_1  and  N_2
REMARK    2  A    between atoms: C_3  and  C_5
REMARK    3  A    between atoms: C_5  and  N_6
REMARK    4  A    between atoms: C_11  and  C_12
REMARK                            x       y       z     vdW  Elec       q    Type
REMARK                         _______ _______ _______ _____ _____    ______ ____
ROOT
ATOM      6  N   UNL     1      44.051   4.364  10.583  0.00  0.00    +0.000 N 
ATOM      7  C   UNL     1      43.540   3.233  11.171  0.00  0.00    +0.000 A 
ATOM      8  C   UNL     1      44.056   2.141  10.506  0.00  0.00    +0.000 A 
ATOM      9  C   UNL     1      44.918   2.625   9.487  0.00  0.00    +0.000 A 
ATOM     10  C   UNL     1      45.705   2.033   8.482  0.00  0.00    +0.000 A 
ATOM     11  C   UNL     1      46.437   2.880   7.643  0.00  0.00    +0.000 A 
ATOM     15  C   UNL     1      46.367   4.255   7.867  0.00  0.00    +0.000 A 
ATOM     16  N   UNL     1      45.632   4.879   8.829  0.00  0.00    +0.000 NA
ATOM     17  C   UNL     1      44.921   4.014   9.581  0.00  0.00    +0.000 A 
ENDROOT
BRANCH  11  12
ATOM     12  C   UNL     1      47.279   2.396   6.521  0.00  0.00    +0.000 C 
ATOM     13  N   UNL     1      47.292   3.106   5.353  0.00  0.00    +0.000 N 
ATOM     14  O   UNL     1      47.961   1.383   6.632  0.00  0.00    +0.000 OA
ATOM     19  H   UNL     1      46.794   3.964   5.182  0.00  0.00    +0.000 HD
ATOM     20  H   UNL     1      47.894   2.759   4.616  0.00  0.00    +0.000 HD
ENDBRANCH  11  12
BRANCH   6   5
ATOM      5  C   UNL     1      43.683   5.725  10.923  0.00  0.00    +0.000 C 
BRANCH   5   3
ATOM      1  C   UNL     1      46.679   7.650  12.234  0.00  0.00    +0.000 C 
ATOM      2  N   UNL     1      45.689   7.034  11.390  0.00  0.00    +0.000 N 
ATOM      3  C   UNL     1      44.629   6.336  11.931  0.00  0.00    +0.000 C 
ATOM      4  O   UNL     1      44.437   6.244  13.141  0.00  0.00    +0.000 OA
ATOM     18  H   UNL     1      45.813   7.045  10.380  0.00  0.00    +0.000 HD
ENDBRANCH   5   3
ENDBRANCH   6   5
TORSDOF 3
ENDMDL
MODEL 2
REMARK VINA RESULT:    -6.339      2.212      5.613
REMARK INTER + INTRA:          -7.927
REMARK INTER:                  -7.662
REMARK INTRA:                  -0.265
REMARK UNBOUND:                -0.476
REMARK  Name = 
REMARK  4 active torsions:
REMARK  status: ('A' for Active; 'I' for Inactive)
REMARK    1  A    between atoms: C_1  and  N_2
REMARK    2  A    between atoms: C_3  and  C_5
REMARK    3  A    between atoms: C_5  and  N_6
REMARK    4  A    between atoms: C_11  and  C_12
REMARK                            x       y       z     vdW  Elec       q    Type
REMARK                         _______ _______ _______ _____ _____    ______ ____
ROOT
ATOM      6  N   UNL     1      44.467   4.067  10.306  0.00  0.00    +0.000 N 
ATOM      7  C   UNL     1      43.846   3.102  11.059  0.00  0.00    +0.000 A 
ATOM      8  C   UNL     1      44.289   3.229  12.358  0.00  0.00    +0.000 A 
ATOM      9  C   UNL     1      45.203   4.316  12.397  0.00  0.00    +0.000 A 
ATOM     10  C   UNL     1      45.992   4.919  13.393  0.00  0.00    +0.000 A 
ATOM     11  C   UNL     1      46.792   6.006  13.022  0.00  0.00    +0.000 A 
ATOM     15  C   UNL     1      46.740   6.444  11.699  0.00  0.00    +0.000 A 
ATOM     16  N   UNL     1      45.987   5.905  10.700  0.00  0.00    +0.000 NA
ATOM     17  C   UNL     1      45.268   4.840  11.109  0.00  0.00    +0.000 A 
ENDROOT
BRANCH  11  12
ATOM     12  C   UNL     1      47.699   6.714  13.959  0.00  0.00    +0.000 C 
ATOM     13  N   UNL     1      47.433   8.018  14.274  0.00  0.00    +0.000 N 
ATOM     14  O   UNL     1      48.668   6.149  14.452  0.00  0.00    +0.000 OA
ATOM     19  H   UNL     1      46.645   8.552  13.946  0.00  0.00    +0.000 HD
ATOM     20  H   UNL     1      48.061   8.464  14.932  0.00  0.00    +0.000 HD
ENDBRANCH  11  12
BRANCH   6   5
ATOM      5  C   UNL     1      44.349   4.215   8.867  0.00  0.00    +0.000 C 
BRANCH   5   3
ATOM      1  C   UNL     1      46.844   1.661   7.584  0.00  0.00    +0.000 C 
ATOM      2  N   UNL     1      45.724   2.308   8.216  0.00  0.00    +0.000 N 
ATOM      3  C   UNL     1      45.557   3.674   8.137  0.00  0.00    +0.000 C 
ATOM      4  O   UNL     1      46.306   4.404   7.493  0.00  0.00    +0.000 OA
ATOM     18  H   UNL     1      45.089   1.762   8.794  0.00  0.00    +0.000 HD
ENDBRANCH   5   3
ENDBRANCH   6   5
TORSDOF 3
ENDMDL
MODEL 3
REMARK VINA RESULT:    -6.016      2.356      6.009
REMARK INTER + INTRA:          -7.547
REMARK INTER:                  -7.209
REMARK INTRA:                  -0.338
REMARK UNBOUND:                -0.476
REMARK  Name = 
REMARK  4 active torsions:
REMARK  status: ('A' for Active; 'I' for Inactive)
REMARK    1  A    between atoms: C_1  and  N_2
REMARK    2  A    between atoms: C_3  and  C_5
REMARK    3  A    between atoms: C_5  and  N_6
REMARK    4  A    between atoms: C_11  and  C_12
REMARK                            x       y       z     vdW  Elec       q    Type
REMARK                         _______ _______ _______ _____ _____    ______ ____
ROOT
ATOM      6  N   UNL     1      44.761   3.813  11.660  0.00  0.00    +0.000 N 
ATOM      7  C   UNL     1      45.605   3.208  12.559  0.00  0.00    +0.000 A 
ATOM      8  C   UNL     1      46.265   4.200  13.253  0.00  0.00    +0.000 A 
ATOM      9  C   UNL     1      45.798   5.450  12.766  0.00  0.00    +0.000 A 
ATOM     10  C   UNL     1      46.089   6.798  13.042  0.00  0.00    +0.000 A 
ATOM     11  C   UNL     1      45.393   7.776  12.322  0.00  0.00    +0.000 A 
ATOM     15  C   UNL     1      44.435   7.360  11.397  0.00  0.00    +0.000 A 
ATOM     16  N   UNL     1      44.107   6.071  11.100  0.00  0.00    +0.000 NA
ATOM     17  C   UNL     1      44.837   5.177  11.797  0.00  0.00    +0.000 A 
ENDROOT
BRANCH  11  12
ATOM     12  C   UNL     1      45.622   9.233  12.484  0.00  0.00    +0.000 C 
ATOM     13  N   UNL     1      44.541  10.068  12.533  0.00  0.00    +0.000 N 
ATOM     14  O   UNL     1      46.755   9.689  12.580  0.00  0.00    +0.000 OA
ATOM     19  H   UNL     1      43.576   9.783  12.497  0.00  0.00    +0.000 HD
ATOM     20  H   UNL     1      44.733  11.054  12.665  0.00  0.00    +0.000 HD
ENDBRANCH  11  12
BRANCH   6   5
ATOM      5  C   UNL     1      43.956   3.123  10.670  0.00  0.00    +0.000 C 
BRANCH   5   3
ATOM      1  C   UNL     1      46.198   1.580   8.026  0.00  0.00    +0.000 C 
ATOM      2  N   UNL     1      45.441   1.837   9.223  0.00  0.00    +0.000 N 
ATOM      3  C   UNL     1      44.677   2.977   9.350  0.00  0.00    +0.000 C 
ATOM      4  O   UNL     1      44.554   3.804   8.448  0.00  0.00    +0.000 OA
ATOM     18  H   UNL     1      45.531   1.208  10.019  0.00  0.00    +0.000 HD
ENDBRANCH   5   3
ENDBRANCH   6   5
TORSDOF 3
ENDMDL
MODEL 4
REMARK VINA RESULT:    -5.936      3.133      6.033
REMARK INTER + INTRA:          -7.453
REMARK INTER:                  -7.022
REMARK INTRA:                  -0.430
REMARK UNBOUND:                -0.476
REMARK  Name = 
REMARK  4 active torsions:
REMARK  status: ('A' for Active; 'I' for Inactive)
REMARK    1  A    between atoms: C_1  and  N_2
REMARK    2  A    between atoms: C_3  and  C_5
REMARK    3  A    between atoms: C_5  and  N_6
REMARK    4  A    between atoms: C_11  and  C_12
REMARK                            x       y       z     vdW  Elec       q    Type
REMARK                         _______ _______ _______ _____ _____    ______ ____
ROOT
ATOM      6  N   UNL     1      44.565   5.220  10.966  0.00  0.00    +0.000 N 
ATOM      7  C   UNL     1      44.513   6.592  11.006  0.00  0.00    +0.000 A 
ATOM      8  C   UNL     1      45.217   7.010  12.115  0.00  0.00    +0.000 A 
ATOM      9  C   UNL     1      45.723   5.853  12.765  0.00  0.00    +0.000 A 
ATOM     10  C   UNL     1      46.479   5.613  13.927  0.00  0.00    +0.000 A 
ATOM     11  C   UNL     1      46.784   4.284  14.244  0.00  0.00    +0.000 A 
ATOM     15  C   UNL     1      46.346   3.281  13.379  0.00  0.00    +0.000 A 
ATOM     16  N   UNL     1      45.623   3.458  12.238  0.00  0.00    +0.000 NA
ATOM     17  C   UNL     1      45.329   4.754  12.007  0.00  0.00    +0.000 A 
ENDROOT
BRANCH  11  12
ATOM     12  C   UNL     1      47.542   3.883  15.454  0.00  0.00    +0.000 C 
ATOM     13  N   UNL     1      47.518   4.702  16.549  0.00  0.00    +0.000 N 
ATOM     14  O   UNL     1      48.176   2.835  15.486  0.00  0.00    +0.000 OA
ATOM     19  H   UNL     1      47.000   5.562  16.627  0.00  0.00    +0.000 HD
ATOM     20  H   UNL     1      48.030   4.387  17.364  0.00  0.00    +0.000 HD
ENDBRANCH  11  12
BRANCH   6   5
ATOM      5  C   UNL     1      43.870   4.381  10.008  0.00  0.00    +0.000 C 
BRANCH   5   3
ATOM      1  C   UNL     1      45.990   1.725   8.322  0.00  0.00    +0.000 C 
ATOM      2  N   UNL     1      45.092   2.432   9.197  0.00  0.00    +0.000 N 
ATOM      3  C   UNL     1      44.812   3.767   8.999  0.00  0.00    +0.000 C 
ATOM      4  O   UNL     1      45.261   4.411   8.053  0.00  0.00    +0.000 OA
ATOM     18  H   UNL     1      44.717   1.962  10.019  0.00  0.00    +0.000 HD
ENDBRANCH   5   3
ENDBRANCH   6   5
TORSDOF 3
ENDMDL
MODEL 5
REMARK VINA RESULT:    -5.817      1.812      2.420
REMARK INTER + INTRA:          -7.312
REMARK INTER:                  -7.020
REMARK INTRA:                  -0.292
REMARK UNBOUND:                -0.476
REMARK  Name = 
REMARK  4 active torsions:
REMARK  status: ('A' for Active; 'I' for Inactive)
REMARK    1  A    between atoms: C_1  and  N_2
REMARK    2  A    between atoms: C_3  and  C_5
REMARK    3  A    between atoms: C_5  and  N_6
REMARK    4  A    between atoms: C_11  and  C_12
REMARK                            x       y       z     vdW  Elec       q    Type
REMARK                         _______ _______ _______ _____ _____    ______ ____
ROOT
ATOM      6  N   UNL     1      44.761   4.145  10.698  0.00  0.00    +0.000 N 
ATOM      7  C   UNL     1      44.911   5.501  10.536  0.00  0.00    +0.000 A 
ATOM      8  C   UNL     1      45.594   5.713   9.358  0.00  0.00    +0.000 A 
ATOM      9  C   UNL     1      45.858   4.443   8.779  0.00  0.00    +0.000 A 
ATOM     10  C   UNL     1      46.520   3.994   7.621  0.00  0.00    +0.000 A 
ATOM     11  C   UNL     1      46.571   2.614   7.394  0.00  0.00    +0.000 A 
ATOM     15  C   UNL     1      45.942   1.769   8.308  0.00  0.00    +0.000 A 
ATOM     16  N   UNL     1      45.280   2.150   9.436  0.00  0.00    +0.000 NA
ATOM     17  C   UNL     1      45.297   3.486   9.620  0.00  0.00    +0.000 A 
ENDROOT
BRANCH  11  12
ATOM     12  C   UNL     1      47.264   1.999   6.235  0.00  0.00    +0.000 C 
ATOM     13  N   UNL     1      47.919   2.812   5.351  0.00  0.00    +0.000 N 
ATOM     14  O   UNL     1      47.262   0.785   6.066  0.00  0.00    +0.000 OA
ATOM     19  H   UNL     1      48.004   3.813   5.426  0.00  0.00    +0.000 HD
ATOM     20  H   UNL     1      48.398   2.357   4.584  0.00  0.00    +0.000 HD
ENDBRANCH  11  12
BRANCH   6   5
ATOM      5  C   UNL     1      44.181   3.498  11.859  0.00  0.00    +0.000 C 
BRANCH   5   3
ATOM      1  C   UNL     1      46.793   4.182  14.525  0.00  0.00    +0.000 C 
ATOM      2  N   UNL     1      46.110   3.763  13.329  0.00  0.00    +0.000 N 
ATOM      3  C   UNL     1      44.766   4.016  13.153  0.00  0.00    +0.000 C 
ATOM      4  O   UNL     1      44.093   4.647  13.964  0.00  0.00    +0.000 OA
ATOM     18  H   UNL     1      46.606   3.205  12.637  0.00  0.00    +0.000 HD
ENDBRANCH   5   3
ENDBRANCH   6   5
TORSDOF 3
ENDMDL
MODEL 6
REMARK VINA RESULT:    -5.747      3.963      5.599
REMARK INTER + INTRA:          -7.231
REMARK INTER:                  -6.946
REMARK INTRA:                  -0.285
REMARK UNBOUND:                -0.476
REMARK  Name = 
REMARK  4 active torsions:
REMARK  status: ('A' for Active; 'I' for Inactive)
REMARK    1  A    between atoms: C_1  and  N_2
REMARK    2  A    between atoms: C_3  and  C_5
REMARK    3  A    between atoms: C_5  and  N_6
REMARK    4  A    between atoms: C_11  and  C_12
REMARK                            x       y       z     vdW  Elec       q    Type
REMARK                         _______ _______ _______ _____ _____    ______ ____
ROOT
ATOM      6  N   UNL     1      47.562   5.185  14.601  0.00  0.00    +0.000 N 
ATOM      7  C   UNL     1      47.864   6.508  14.392  0.00  0.00    +0.000 A 
ATOM      8  C   UNL     1      47.209   6.915  13.249  0.00  0.00    +0.000 A 
ATOM      9  C   UNL     1      46.476   5.805  12.754  0.00  0.00    +0.000 A 
ATOM     10  C   UNL     1      45.646   5.574  11.641  0.00  0.00    +0.000 A 
ATOM     11  C   UNL     1      45.091   4.298  11.495  0.00  0.00    +0.000 A 
ATOM     15  C   UNL     1      45.367   3.340  12.471  0.00  0.00    +0.000 A 
ATOM     16  N   UNL     1      46.152   3.513  13.571  0.00  0.00    +0.000 NA
ATOM     17  C   UNL     1      46.688   4.749  13.636  0.00  0.00    +0.000 A 
ENDROOT
BRANCH  11  12
ATOM     12  C   UNL     1      44.229   3.905  10.353  0.00  0.00    +0.000 C 
ATOM     13  N   UNL     1      44.202   4.701   9.242  0.00  0.00    +0.000 N 
ATOM     14  O   UNL     1      43.552   2.884  10.393  0.00  0.00    +0.000 OA
ATOM     19  H   UNL     1      44.747   5.537   9.106  0.00  0.00    +0.000 HD
ATOM     20  H   UNL     1      43.619   4.392   8.474  0.00  0.00    +0.000 HD
ENDBRANCH  11  12
BRANCH   6   5
ATOM      5  C   UNL     1      48.125   4.350  15.646  0.00  0.00    +0.000 C 
BRANCH   5   3
ATOM      1  C   UNL     1      46.844   5.708  18.949  0.00  0.00    +0.000 C 
ATOM      2  N   UNL     1      47.532   5.530  17.697  0.00  0.00    +0.000 N 
ATOM      3  C   UNL     1      47.317   4.411  16.922  0.00  0.00    +0.000 C 
ATOM      4  O   UNL     1      46.504   3.538  17.217  0.00  0.00    +0.000 OA
ATOM     18  H   UNL     1      48.245   6.201  17.416  0.00  0.00    +0.000 HD
ENDBRANCH   5   3
ENDBRANCH   6   5
TORSDOF 3
ENDMDL
MODEL 7
REMARK VINA RESULT:    -5.650      4.659      6.373
REMARK INTER + INTRA:          -7.117
REMARK INTER:                  -6.780
REMARK INTRA:                  -0.337
REMARK UNBOUND:                -0.476
REMARK  Name = 
REMARK  4 active torsions:
REMARK  status: ('A' for Active; 'I' for Inactive)
REMARK    1  A    between atoms: C_1  and  N_2
REMARK    2  A    between atoms: C_3  and  C_5
REMARK    3  A    between atoms: C_5  and  N_6
REMARK    4  A    between atoms: C_11  and  C_12
REMARK                            x       y       z     vdW  Elec       q    Type
REMARK                         _______ _______ _______ _____ _____    ______ ____
ROOT
ATOM      6  N   UNL     1      47.541   4.931  15.500  0.00  0.00    +0.000 N 
ATOM      7  C   UNL     1      48.391   6.009  15.505  0.00  0.00    +0.000 A 
ATOM      8  C   UNL     1      48.232   6.678  14.309  0.00  0.00    +0.000 A 
ATOM      9  C   UNL     1      47.245   5.988  13.558  0.00  0.00    +0.000 A 
ATOM     10  C   UNL     1      46.667   6.150  12.285  0.00  0.00    +0.000 A 
ATOM     11  C   UNL     1      45.692   5.227  11.889  0.00  0.00    +0.000 A 
ATOM     15  C   UNL     1      45.330   4.222  12.786  0.00  0.00    +0.000 A 
ATOM     16  N   UNL     1      45.848   4.027  14.031  0.00  0.00    +0.000 NA
ATOM     17  C   UNL     1      46.807   4.922  14.339  0.00  0.00    +0.000 A 
ENDROOT
BRANCH  11  12
ATOM     12  C   UNL     1      45.025   5.256  10.564  0.00  0.00    +0.000 C 
ATOM     13  N   UNL     1      43.672   5.444  10.511  0.00  0.00    +0.000 N 
ATOM     14  O   UNL     1      45.667   5.121   9.529  0.00  0.00    +0.000 OA
ATOM     19  H   UNL     1      43.069   5.597  11.303  0.00  0.00    +0.000 HD
ATOM     20  H   UNL     1      43.253   5.478   9.590  0.00  0.00    +0.000 HD
ENDBRANCH  11  12
BRANCH   6   5
ATOM      5  C   UNL     1      47.468   3.916  16.533  0.00  0.00    +0.000 C 
BRANCH   5   3
ATOM      1  C   UNL     1      50.762   2.294  17.491  0.00  0.00    +0.000 C 
ATOM      2  N   UNL     1      49.589   3.128  17.445  0.00  0.00    +0.000 N 
ATOM      3  C   UNL     1      48.631   2.953  16.470  0.00  0.00    +0.000 C 
ATOM      4  O   UNL     1      48.689   2.059  15.628  0.00  0.00    +0.000 OA
ATOM     18  H   UNL     1      49.502   3.908  18.093  0.00  0.00    +0.000 HD
ENDBRANCH   5   3
ENDBRANCH   6   5
TORSDOF 3
ENDMDL
MODEL 8
REMARK VINA RESULT:    -5.548      3.082      6.067
REMARK INTER + INTRA:          -6.996
REMARK INTER:                  -6.921
REMARK INTRA:                  -0.075
REMARK UNBOUND:                -0.476
REMARK  Name = 
REMARK  4 active torsions:
REMARK  status: ('A' for Active; 'I' for Inactive)
REMARK    1  A    between atoms: C_1  and  N_2
REMARK    2  A    between atoms: C_3  and  C_5
REMARK    3  A    between atoms: C_5  and  N_6
REMARK    4  A    between atoms: C_11  and  C_12
REMARK                            x       y       z     vdW  Elec       q    Type
REMARK                         _______ _______ _______ _____ _____    ______ ____
ROOT
ATOM      6  N   UNL     1      44.026   5.564  12.144  0.00  0.00    +0.000 N 
ATOM      7  C   UNL     1      43.808   6.672  11.363  0.00  0.00    +0.000 A 
ATOM      8  C   UNL     1      44.891   7.513  11.511  0.00  0.00    +0.000 A 
ATOM      9  C   UNL     1      45.802   6.889  12.403  0.00  0.00    +0.000 A 
ATOM     10  C   UNL     1      47.047   7.234  12.960  0.00  0.00    +0.000 A 
ATOM     11  C   UNL     1      47.649   6.319  13.831  0.00  0.00    +0.000 A 
ATOM     15  C   UNL     1      46.996   5.111  14.076  0.00  0.00    +0.000 A 
ATOM     16  N   UNL     1      45.798   4.722  13.556  0.00  0.00    +0.000 NA
ATOM     17  C   UNL     1      45.251   5.660  12.755  0.00  0.00    +0.000 A 
ENDROOT
BRANCH  11  12
ATOM     12  C   UNL     1      48.941   6.567  14.516  0.00  0.00    +0.000 C 
ATOM     13  N   UNL     1      49.893   7.314  13.879  0.00  0.00    +0.000 N 
ATOM     14  O   UNL     1      49.161   6.120  15.636  0.00  0.00    +0.000 OA
ATOM     19  H   UNL     1      49.790   7.748  12.976  0.00  0.00    +0.000 HD
ATOM     20  H   UNL     1      50.755   7.480  14.383  0.00  0.00    +0.000 HD
ENDBRANCH  11  12
BRANCH   6   5
ATOM      5  C   UNL     1      43.082   4.482  12.346  0.00  0.00    +0.000 C 
BRANCH   5   3
ATOM      1  C   UNL     1      44.463   2.556   9.383  0.00  0.00    +0.000 C 
ATOM      2  N   UNL     1      44.132   3.583  10.336  0.00  0.00    +0.000 N 
ATOM      3  C   UNL     1      43.368   3.301  11.448  0.00  0.00    +0.000 C 
ATOM      4  O   UNL     1      42.974   2.168  11.719  0.00  0.00    +0.000 OA
ATOM     18  H   UNL     1      44.398   4.548  10.148  0.00  0.00    +0.000 HD
ENDBRANCH   5   3
ENDBRANCH   6   5
TORSDOF 3
ENDMDL
MODEL 9
REMARK VINA RESULT:    -5.389      4.207      5.953
REMARK INTER + INTRA:          -6.810
REMARK INTER:                  -6.350
REMARK INTRA:                  -0.460
REMARK UNBOUND:                -0.476
REMARK  Name = 
REMARK  4 active torsions:
REMARK  status: ('A' for Active; 'I' for Inactive)
REMARK    1  A    between atoms: C_1  and  N_2
REMARK    2  A    between atoms: C_3  and  C_5
REMARK    3  A    between atoms: C_5  and  N_6
REMARK    4  A    between atoms: C_11  and  C_12
REMARK                            x       y       z     vdW  Elec       q    Type
REMARK                         _______ _______ _______ _____ _____    ______ ____
ROOT
ATOM      6  N   UNL     1      47.421   7.194  13.635  0.00  0.00    +0.000 N 
ATOM      7  C   UNL     1      46.831   8.401  13.351  0.00  0.00    +0.000 A 
ATOM      8  C   UNL     1      45.602   8.148  12.781  0.00  0.00    +0.000 A 
ATOM      9  C   UNL     1      45.435   6.738  12.728  0.00  0.00    +0.000 A 
ATOM     10  C   UNL     1      44.434   5.871  12.252  0.00  0.00    +0.000 A 
ATOM     11  C   UNL     1      44.649   4.494  12.383  0.00  0.00    +0.000 A 
ATOM     15  C   UNL     1      45.824   4.063  13.000  0.00  0.00    +0.000 A 
ATOM     16  N   UNL     1      46.817   4.858  13.487  0.00  0.00    +0.000 NA
ATOM     17  C   UNL     1      46.570   6.171  13.298  0.00  0.00    +0.000 A 
ENDROOT
BRANCH  11  12
ATOM     12  C   UNL     1      43.698   3.465  11.894  0.00  0.00    +0.000 C 
ATOM     13  N   UNL     1      43.727   2.220  12.459  0.00  0.00    +0.000 N 
ATOM     14  O   UNL     1      42.893   3.718  11.006  0.00  0.00    +0.000 OA
ATOM     19  H   UNL     1      44.328   1.932  13.214  0.00  0.00    +0.000 HD
ATOM     20  H   UNL     1      43.050   1.549  12.116  0.00  0.00    +0.000 HD
ENDBRANCH  11  12
BRANCH   6   5
ATOM      5  C   UNL     1      48.763   7.018  14.156  0.00  0.00    +0.000 C 
BRANCH   5   3
ATOM      1  C   UNL     1      48.290   5.614  17.649  0.00  0.00    +0.000 C 
ATOM      2  N   UNL     1      48.341   5.790  16.221  0.00  0.00    +0.000 N 
ATOM      3  C   UNL     1      48.788   6.970  15.666  0.00  0.00    +0.000 C 
ATOM      4  O   UNL     1      49.212   7.907  16.339  0.00  0.00    +0.000 OA
ATOM     18  H   UNL     1      47.968   5.064  15.612  0.00  0.00    +0.000 HD
ENDBRANCH   5   3
ENDBRANCH   6   5
TORSDOF 3
ENDMDL
