MODEL 1
REMARK VINA RESULT:    -6.878      0.000      0.000
REMARK INTER + INTRA:         -10.071
REMARK INTER:                  -9.090
REMARK INTRA:                  -0.981
REMARK UNBOUND:                -0.981
REMARK  Name = 
REMARK  6 active torsions:
REMARK  status: ('A' for Active; 'I' for Inactive)
REMARK    1  A    between atoms: N_1  and  C_2
REMARK    2  A    between atoms: N_5  and  C_6
REMARK    3  A    between atoms: C_6  and  C_7
REMARK    4  A    between atoms: C_10  and  C_11
REMARK    5  A    between atoms: C_11  and  N_12
REMARK    6  A    between atoms: C_13  and  C_15
REMARK                            x       y       z     vdW  Elec       q    Type
REMARK                         _______ _______ _______ _____ _____    ______ ____
ROOT
ATOM      7  C   UNL     1      46.603   6.930  12.420  0.00  0.00    +0.000 A 
ATOM      8  C   UNL     1      47.739   6.194  12.788  0.00  0.00    +0.000 A 
ATOM      9  C   UNL     1      48.575   6.633  13.815  0.00  0.00    +0.000 A 
ATOM     10  C   UNL     1      48.307   7.835  14.480  0.00  0.00    +0.000 A 
ATOM     25  C   UNL     1      47.232   8.622  14.046  0.00  0.00    +0.000 A 
ATOM     26  C   UNL     1      46.376   8.166  13.038  0.00  0.00    +0.000 A 
ENDROOT
BRANCH   7   6
ATOM      6  C   UNL     1      45.619   6.367  11.408  0.00  0.00    +0.000 C 
BRANCH   6   5
ATOM      2  C   UNL     1      44.226   2.939  11.109  0.00  0.00    +0.000 C 
ATOM      3  C   UNL     1      45.152   3.408  12.234  0.00  0.00    +0.000 C 
ATOM      4  C   UNL     1      44.621   4.667  12.925  0.00  0.00    +0.000 C 
ATOM      5  N   UNL     1      44.396   5.793  12.002  0.00  0.00    +0.000 NA
ATOM     27  C   UNL     1      43.430   5.368  10.970  0.00  0.00    +0.000 C 
ATOM     28  C   UNL     1      43.856   4.113  10.193  0.00  0.00    +0.000 C 
BRANCH   2   1
ATOM      1  N   UNL     1      43.026   2.309  11.667  0.00  0.00    +0.000 NA
ATOM     29  H   UNL     1      43.299   1.582  12.329  0.00  0.00    +0.000 HD
ATOM     30  H   UNL     1      42.507   1.839  10.927  0.00  0.00    +0.000 HD
ENDBRANCH   2   1
ENDBRANCH   6   5
ENDBRANCH   7   6
BRANCH  10  11
ATOM     11  C   UNL     1      49.155   8.261  15.645  0.00  0.00    +0.000 C 
BRANCH  11  12
ATOM     12  N   UNL     1      50.093   7.239  16.026  0.00  0.00    +0.000 N 
ATOM     13  C   UNL     1      49.870   6.475  17.143  0.00  0.00    +0.000 C 
ATOM     14  O   UNL     1      48.851   6.595  17.819  0.00  0.00    +0.000 OA
ATOM     31  H   UNL     1      51.020   7.279  15.615  0.00  0.00    +0.000 HD
BRANCH  13  15
ATOM     15  C   UNL     1      50.881   5.461  17.465  0.00  0.00    +0.000 A 
ATOM     16  C   UNL     1      52.134   5.864  17.903  0.00  0.00    +0.000 A 
ATOM     17  S   UNL     1      53.182   4.570  18.265  0.00  0.00    +0.000 S 
ATOM     18  C   UNL     1      52.012   3.425  17.798  0.00  0.00    +0.000 A 
ATOM     19  N   UNL     1      52.287   2.092  17.836  0.00  0.00    +0.000 NA
ATOM     20  C   UNL     1      51.322   1.338  17.425  0.00  0.00    +0.000 A 
ATOM     21  N   UNL     1      50.105   1.794  16.990  0.00  0.00    +0.000 N 
ATOM     22  C   UNL     1      49.771   3.127  16.966  0.00  0.00    +0.000 A 
ATOM     23  O   UNL     1      48.655   3.497  16.618  0.00  0.00    +0.000 OA
ATOM     24  C   UNL     1      50.831   4.018  17.402  0.00  0.00    +0.000 A 
ATOM     32  H   UNL     1      49.389   1.148  16.691  0.00  0.00    +0.000 HD
ENDBRANCH  13  15
ENDBRANCH  11  12
ENDBRANCH  10  11
TORSDOF 6
ENDMDL
MODEL 2
REMARK VINA RESULT:    -6.763      1.903      2.681
REMARK INTER + INTRA:          -9.919
REMARK INTER:                  -8.928
REMARK INTRA:                  -0.991
REMARK UNBOUND:                -0.981
REMARK  Name = 
REMARK  6 active torsions:
REMARK  status: ('A' for Active; 'I' for Inactive)
REMARK    1  A    between atoms: N_1  and  C_2
REMARK    2  A    between atoms: N_5  and  C_6
REMARK    3  A    between atoms: C_6  and  C_7
REMARK    4  A    between atoms: C_10  and  C_11
REMARK    5  A    between atoms: C_11  and  N_12
REMARK    6  A    between atoms: C_13  and  C_15
REMARK                            x       y       z     vdW  Elec       q    Type
REMARK                         _______ _______ _______ _____ _____    ______ ____
ROOT
ATOM      7  C   UNL     1      47.200   4.818  14.635  0.00  0.00    +0.000 A 
ATOM      8  C   UNL     1      47.924   6.011  14.503  0.00  0.00    +0.000 A 
ATOM      9  C   UNL     1      48.667   6.520  15.569  0.00  0.00    +0.000 A 
ATOM     10  C   UNL     1      48.678   5.859  16.802  0.00  0.00    +0.000 A 
ATOM     25  C   UNL     1      47.873   4.723  16.967  0.00  0.00    +0.000 A 
ATOM     26  C   UNL     1      47.155   4.196  15.889  0.00  0.00    +0.000 A 
ENDROOT
BRANCH   7   6
ATOM      6  C   UNL     1      46.521   4.194  13.426  0.00  0.00    +0.000 C 
BRANCH   6   5
ATOM      2  C   UNL     1      44.720   4.711  10.222  0.00  0.00    +0.000 C 
ATOM      3  C   UNL     1      44.663   3.429  11.056  0.00  0.00    +0.000 C 
ATOM      4  C   UNL     1      44.262   3.708  12.508  0.00  0.00    +0.000 C 
ATOM      5  N   UNL     1      45.145   4.671  13.187  0.00  0.00    +0.000 NA
ATOM     27  C   UNL     1      45.125   5.939  12.431  0.00  0.00    +0.000 C 
ATOM     28  C   UNL     1      45.522   5.794  10.955  0.00  0.00    +0.000 C 
BRANCH   2   1
ATOM      1  N   UNL     1      43.364   5.178   9.916  0.00  0.00    +0.000 NA
ATOM     29  H   UNL     1      43.174   6.036  10.434  0.00  0.00    +0.000 HD
ATOM     30  H   UNL     1      42.682   4.494  10.241  0.00  0.00    +0.000 HD
ENDBRANCH   2   1
ENDBRANCH   6   5
ENDBRANCH   7   6
BRANCH  10  11
ATOM     11  C   UNL     1      49.548   6.357  17.921  0.00  0.00    +0.000 C 
BRANCH  11  12
ATOM     12  N   UNL     1      50.524   5.377  18.317  0.00  0.00    +0.000 N 
ATOM     13  C   UNL     1      51.724   5.289  17.660  0.00  0.00    +0.000 C 
ATOM     14  O   UNL     1      52.030   6.066  16.759  0.00  0.00    +0.000 OA
ATOM     31  H   UNL     1      50.204   4.607  18.896  0.00  0.00    +0.000 HD
BRANCH  13  15
ATOM     15  C   UNL     1      52.658   4.256  18.123  0.00  0.00    +0.000 A 
ATOM     16  C   UNL     1      53.833   4.635  18.757  0.00  0.00    +0.000 A 
ATOM     17  S   UNL     1      54.793   3.321  19.262  0.00  0.00    +0.000 S 
ATOM     18  C   UNL     1      53.695   2.199  18.604  0.00  0.00    +0.000 A 
ATOM     19  N   UNL     1      53.942   0.861  18.669  0.00  0.00    +0.000 NA
ATOM     20  C   UNL     1      53.044   0.127  18.103  0.00  0.00    +0.000 A 
ATOM     21  N   UNL     1      51.916   0.606  17.488  0.00  0.00    +0.000 N 
ATOM     22  C   UNL     1      51.608   1.944  17.428  0.00  0.00    +0.000 A 
ATOM     23  O   UNL     1      50.565   2.335  16.914  0.00  0.00    +0.000 OA
ATOM     24  C   UNL     1      52.599   2.814  18.035  0.00  0.00    +0.000 A 
ATOM     32  H   UNL     1      51.246  -0.026  17.073  0.00  0.00    +0.000 HD
ENDBRANCH  13  15
ENDBRANCH  11  12
ENDBRANCH  10  11
TORSDOF 6
ENDMDL
MODEL 3
REMARK VINA RESULT:    -6.617      2.092      2.255
REMARK INTER + INTRA:          -9.726
REMARK INTER:                  -8.521
REMARK INTRA:                  -1.205
REMARK UNBOUND:                -0.981
REMARK  Name = 
REMARK  6 active torsions:
REMARK  status: ('A' for Active; 'I' for Inactive)
REMARK    1  A    between atoms: N_1  and  C_2
REMARK    2  A    between atoms: N_5  and  C_6
REMARK    3  A    between atoms: C_6  and  C_7
REMARK    4  A    between atoms: C_10  and  C_11
REMARK    5  A    between atoms: C_11  and  N_12
REMARK    6  A    between atoms: C_13  and  C_15
REMARK                            x       y       z     vdW  Elec       q    Type
REMARK                         _______ _______ _______ _____ _____    ______ ____
ROOT
ATOM      7  C   UNL     1      46.129   7.325  11.884  0.00  0.00    +0.000 A 
ATOM      8  C   UNL     1      47.444   6.856  11.758  0.00  0.00    +0.000 A 
ATOM      9  C   UNL     1      48.465   7.361  12.563  0.00  0.00    +0.000 A 
ATOM     10  C   UNL     1      48.196   8.368  13.496  0.00  0.00    +0.000 A 
ATOM     25  C   UNL     1      46.905   8.910  13.553  0.00  0.00    +0.000 A 
ATOM     26  C   UNL     1      45.875   8.381  12.768  0.00  0.00    +0.000 A 
ENDROOT
BRANCH   7   6
ATOM      6  C   UNL     1      45.000   6.662  11.112  0.00  0.00    +0.000 C 
BRANCH   6   5
ATOM      2  C   UNL     1      44.446   3.027  11.620  0.00  0.00    +0.000 C 
ATOM      3  C   UNL     1      45.329   3.906  12.509  0.00  0.00    +0.000 C 
ATOM      4  C   UNL     1      44.576   5.134  13.028  0.00  0.00    +0.000 C 
ATOM      5  N   UNL     1      44.007   5.970  11.957  0.00  0.00    +0.000 NA
ATOM     27  C   UNL     1      43.084   5.143  11.156  0.00  0.00    +0.000 C 
ATOM     28  C   UNL     1      43.726   3.879  10.567  0.00  0.00    +0.000 C 
BRANCH   2   1
ATOM      1  N   UNL     1      43.485   2.280  12.438  0.00  0.00    +0.000 NA
ATOM     29  H   UNL     1      43.043   2.911  13.107  0.00  0.00    +0.000 HD
ATOM     30  H   UNL     1      43.976   1.578  12.991  0.00  0.00    +0.000 HD
ENDBRANCH   2   1
ENDBRANCH   6   5
ENDBRANCH   7   6
BRANCH  10  11
ATOM     11  C   UNL     1      49.276   8.848  14.425  0.00  0.00    +0.000 C 
BRANCH  11  12
ATOM     12  N   UNL     1      49.392   8.008  15.588  0.00  0.00    +0.000 N 
ATOM     13  C   UNL     1      48.750   8.343  16.752  0.00  0.00    +0.000 C 
ATOM     14  O   UNL     1      48.018   9.328  16.830  0.00  0.00    +0.000 OA
ATOM     31  H   UNL     1      50.149   7.332  15.602  0.00  0.00    +0.000 HD
BRANCH  13  15
ATOM     15  C   UNL     1      48.928   7.436  17.892  0.00  0.00    +0.000 A 
ATOM     16  C   UNL     1      49.304   7.955  19.123  0.00  0.00    +0.000 A 
ATOM     17  S   UNL     1      49.438   6.780  20.350  0.00  0.00    +0.000 S 
ATOM     18  C   UNL     1      49.048   5.528  19.264  0.00  0.00    +0.000 A 
ATOM     19  N   UNL     1      49.018   4.231  19.677  0.00  0.00    +0.000 NA
ATOM     20  C   UNL     1      48.740   3.383  18.745  0.00  0.00    +0.000 A 
ATOM     21  N   UNL     1      48.478   3.712  17.440  0.00  0.00    +0.000 N 
ATOM     22  C   UNL     1      48.464   5.009  16.985  0.00  0.00    +0.000 A 
ATOM     23  O   UNL     1      48.177   5.273  15.823  0.00  0.00    +0.000 OA
ATOM     24  C   UNL     1      48.790   6.001  17.994  0.00  0.00    +0.000 A 
ATOM     32  H   UNL     1      48.256   2.998  16.762  0.00  0.00    +0.000 HD
ENDBRANCH  13  15
ENDBRANCH  11  12
ENDBRANCH  10  11
TORSDOF 6
ENDMDL
MODEL 4
REMARK VINA RESULT:    -6.593      3.219      9.332
REMARK INTER + INTRA:          -9.694
REMARK INTER:                  -8.807
REMARK INTRA:                  -0.887
REMARK UNBOUND:                -0.981
REMARK  Name = 
REMARK  6 active torsions:
REMARK  status: ('A' for Active; 'I' for Inactive)
REMARK    1  A    between atoms: N_1  and  C_2
REMARK    2  A    between atoms: N_5  and  C_6
REMARK    3  A    between atoms: C_6  and  C_7
REMARK    4  A    between atoms: C_10  and  C_11
REMARK    5  A    between atoms: C_11  and  N_12
REMARK    6  A    between atoms: C_13  and  C_15
REMARK                            x       y       z     vdW  Elec       q    Type
REMARK                         _______ _______ _______ _____ _____    ______ ____
ROOT
ATOM      7  C   UNL     1      51.369   4.464  17.559  0.00  0.00    +0.000 A 
ATOM      8  C   UNL     1      50.899   3.145  17.638  0.00  0.00    +0.000 A 
ATOM      9  C   UNL     1      49.559   2.846  17.389  0.00  0.00    +0.000 A 
ATOM     10  C   UNL     1      48.653   3.866  17.081  0.00  0.00    +0.000 A 
ATOM     25  C   UNL     1      49.098   5.195  17.102  0.00  0.00    +0.000 A 
ATOM     26  C   UNL     1      50.448   5.491  17.321  0.00  0.00    +0.000 A 
ENDROOT
BRANCH   7   6
ATOM      6  C   UNL     1      52.855   4.757  17.682  0.00  0.00    +0.000 C 
BRANCH   6   5
ATOM      2  C   UNL     1      54.576   7.289  19.781  0.00  0.00    +0.000 C 
ATOM      3  C   UNL     1      53.071   7.013  19.808  0.00  0.00    +0.000 C 
ATOM      4  C   UNL     1      52.765   5.531  20.044  0.00  0.00    +0.000 C 
ATOM      5  N   UNL     1      53.389   4.637  19.054  0.00  0.00    +0.000 NA
ATOM     27  C   UNL     1      54.850   4.838  19.095  0.00  0.00    +0.000 C 
ATOM     28  C   UNL     1      55.289   6.291  18.860  0.00  0.00    +0.000 C 
BRANCH   2   1
ATOM      1  N   UNL     1      55.127   7.236  21.139  0.00  0.00    +0.000 NA
ATOM     29  H   UNL     1      54.364   7.241  21.817  0.00  0.00    +0.000 HD
ATOM     30  H   UNL     1      55.675   8.076  21.322  0.00  0.00    +0.000 HD
ENDBRANCH   2   1
ENDBRANCH   6   5
ENDBRANCH   7   6
BRANCH  10  11
ATOM     11  C   UNL     1      47.231   3.535  16.724  0.00  0.00    +0.000 C 
BRANCH  11  12
ATOM     12  N   UNL     1      46.686   4.471  15.777  0.00  0.00    +0.000 N 
ATOM     13  C   UNL     1      46.746   4.210  14.432  0.00  0.00    +0.000 C 
ATOM     14  O   UNL     1      47.212   3.160  13.993  0.00  0.00    +0.000 OA
ATOM     31  H   UNL     1      46.504   5.414  16.104  0.00  0.00    +0.000 HD
BRANCH  13  15
ATOM     15  C   UNL     1      46.173   5.221  13.535  0.00  0.00    +0.000 A 
ATOM     16  C   UNL     1      46.899   6.368  13.250  0.00  0.00    +0.000 A 
ATOM     17  S   UNL     1      46.112   7.426  12.170  0.00  0.00    +0.000 S 
ATOM     18  C   UNL     1      44.750   6.410  12.087  0.00  0.00    +0.000 A 
ATOM     19  N   UNL     1      43.667   6.755  11.336  0.00  0.00    +0.000 NA
ATOM     20  C   UNL     1      42.693   5.910  11.388  0.00  0.00    +0.000 A 
ATOM     21  N   UNL     1      42.705   4.745  12.113  0.00  0.00    +0.000 N 
ATOM     22  C   UNL     1      43.787   4.339  12.856  0.00  0.00    +0.000 A 
ATOM     23  O   UNL     1      43.784   3.268  13.452  0.00  0.00    +0.000 OA
ATOM     24  C   UNL     1      44.904   5.267  12.845  0.00  0.00    +0.000 A 
ATOM     32  H   UNL     1      41.911   4.122  12.101  0.00  0.00    +0.000 HD
ENDBRANCH  13  15
ENDBRANCH  11  12
ENDBRANCH  10  11
TORSDOF 6
ENDMDL
MODEL 5
REMARK VINA RESULT:    -6.584      3.696      8.208
REMARK INTER + INTRA:          -9.683
REMARK INTER:                  -8.664
REMARK INTRA:                  -1.019
REMARK UNBOUND:                -0.981
REMARK  Name = 
REMARK  6 active torsions:
REMARK  status: ('A' for Active; 'I' for Inactive)
REMARK    1  A    between atoms: N_1  and  C_2
REMARK    2  A    between atoms: N_5  and  C_6
REMARK    3  A    between atoms: C_6  and  C_7
REMARK    4  A    between atoms: C_10  and  C_11
REMARK    5  A    between atoms: C_11  and  N_12
REMARK    6  A    between atoms: C_13  and  C_15
REMARK                            x       y       z     vdW  Elec       q    Type
REMARK                         _______ _______ _______ _____ _____    ______ ____
ROOT
ATOM      7  C   UNL     1      48.955   7.865  16.045  0.00  0.00    +0.000 A 
ATOM      8  C   UNL     1      48.038   8.839  15.624  0.00  0.00    +0.000 A 
ATOM      9  C   UNL     1      47.564   8.857  14.312  0.00  0.00    +0.000 A 
ATOM     10  C   UNL     1      48.018   7.914  13.384  0.00  0.00    +0.000 A 
ATOM     25  C   UNL     1      49.009   7.003  13.774  0.00  0.00    +0.000 A 
ATOM     26  C   UNL     1      49.461   6.966  15.098  0.00  0.00    +0.000 A 
ENDROOT
BRANCH   7   6
ATOM      6  C   UNL     1      49.346   7.762  17.510  0.00  0.00    +0.000 C 
BRANCH   6   5
ATOM      2  C   UNL     1      49.604   4.720  19.621  0.00  0.00    +0.000 C 
ATOM      3  C   UNL     1      49.848   6.147  20.117  0.00  0.00    +0.000 C 
ATOM      4  C   UNL     1      48.668   7.072  19.801  0.00  0.00    +0.000 C 
ATOM      5  N   UNL     1      48.329   7.123  18.369  0.00  0.00    +0.000 NA
ATOM     27  C   UNL     1      48.004   5.758  17.914  0.00  0.00    +0.000 C 
ATOM     28  C   UNL     1      49.119   4.732  18.166  0.00  0.00    +0.000 C 
BRANCH   2   1
ATOM      1  N   UNL     1      48.641   4.037  20.490  0.00  0.00    +0.000 NA
ATOM     29  H   UNL     1      48.867   4.229  21.467  0.00  0.00    +0.000 HD
ATOM     30  H   UNL     1      48.725   3.028  20.373  0.00  0.00    +0.000 HD
ENDBRANCH   2   1
ENDBRANCH   6   5
ENDBRANCH   7   6
BRANCH  10  11
ATOM     11  C   UNL     1      47.440   7.877  11.997  0.00  0.00    +0.000 C 
BRANCH  11  12
ATOM     12  N   UNL     1      46.801   6.618  11.717  0.00  0.00    +0.000 N 
ATOM     13  C   UNL     1      45.433   6.520  11.715  0.00  0.00    +0.000 C 
ATOM     14  O   UNL     1      44.712   7.498  11.895  0.00  0.00    +0.000 OA
ATOM     31  H   UNL     1      47.370   5.780  11.784  0.00  0.00    +0.000 HD
BRANCH  13  15
ATOM     15  C   UNL     1      44.864   5.198  11.428  0.00  0.00    +0.000 A 
ATOM     16  C   UNL     1      44.107   4.557  12.399  0.00  0.00    +0.000 A 
ATOM     17  S   UNL     1      43.492   3.048  11.902  0.00  0.00    +0.000 S 
ATOM     18  C   UNL     1      44.260   3.175  10.388  0.00  0.00    +0.000 A 
ATOM     19  N   UNL     1      44.162   2.175   9.469  0.00  0.00    +0.000 NA
ATOM     20  C   UNL     1      44.819   2.388   8.379  0.00  0.00    +0.000 A 
ATOM     21  N   UNL     1      45.557   3.514   8.118  0.00  0.00    +0.000 N 
ATOM     22  C   UNL     1      45.658   4.563   9.000  0.00  0.00    +0.000 A 
ATOM     23  O   UNL     1      46.286   5.577   8.714  0.00  0.00    +0.000 OA
ATOM     24  C   UNL     1      44.950   4.363  10.252  0.00  0.00    +0.000 A 
ATOM     32  H   UNL     1      46.040   3.622   7.238  0.00  0.00    +0.000 HD
ENDBRANCH  13  15
ENDBRANCH  11  12
ENDBRANCH  10  11
TORSDOF 6
ENDMDL
MODEL 6
REMARK VINA RESULT:    -6.385      3.578      7.889
REMARK INTER + INTRA:          -9.420
REMARK INTER:                  -8.690
REMARK INTRA:                  -0.730
REMARK UNBOUND:                -0.981
REMARK  Name = 
REMARK  6 active torsions:
REMARK  status: ('A' for Active; 'I' for Inactive)
REMARK    1  A    between atoms: N_1  and  C_2
REMARK    2  A    between atoms: N_5  and  C_6
REMARK    3  A    between atoms: C_6  and  C_7
REMARK    4  A    between atoms: C_10  and  C_11
REMARK    5  A    between atoms: C_11  and  N_12
REMARK    6  A    between atoms: C_13  and  C_15
REMARK                            x       y       z     vdW  Elec       q    Type
REMARK                         _______ _______ _______ _____ _____    ______ ____
ROOT
ATOM      7  C   UNL     1      48.816   7.714  16.250  0.00  0.00    +0.000 A 
ATOM      8  C   UNL     1      48.309   8.939  15.795  0.00  0.00    +0.000 A 
ATOM      9  C   UNL     1      48.054   9.149  14.439  0.00  0.00    +0.000 A 
ATOM     10  C   UNL     1      48.328   8.144  13.505  0.00  0.00    +0.000 A 
ATOM     25  C   UNL     1      48.929   6.957  13.945  0.00  0.00    +0.000 A 
ATOM     26  C   UNL     1      49.154   6.735  15.308  0.00  0.00    +0.000 A 
ENDROOT
BRANCH   7   6
ATOM      6  C   UNL     1      48.945   7.444  17.741  0.00  0.00    +0.000 C 
BRANCH   6   5
ATOM      2  C   UNL     1      49.264   4.694  20.214  0.00  0.00    +0.000 C 
ATOM      3  C   UNL     1      48.903   6.141  20.561  0.00  0.00    +0.000 C 
ATOM      4  C   UNL     1      47.709   6.644  19.745  0.00  0.00    +0.000 C 
ATOM      5  N   UNL     1      47.909   6.546  18.289  0.00  0.00    +0.000 NA
ATOM     27  C   UNL     1      48.166   5.134  17.945  0.00  0.00    +0.000 C 
ATOM     28  C   UNL     1      49.353   4.513  18.694  0.00  0.00    +0.000 C 
BRANCH   2   1
ATOM      1  N   UNL     1      48.284   3.772  20.797  0.00  0.00    +0.000 NA
ATOM     29  H   UNL     1      47.378   3.908  20.348  0.00  0.00    +0.000 HD
ATOM     30  H   UNL     1      48.148   3.992  21.783  0.00  0.00    +0.000 HD
ENDBRANCH   2   1
ENDBRANCH   6   5
ENDBRANCH   7   6
BRANCH  10  11
ATOM     11  C   UNL     1      47.969   8.336  12.058  0.00  0.00    +0.000 C 
BRANCH  11  12
ATOM     12  N   UNL     1      47.395   7.147  11.487  0.00  0.00    +0.000 N 
ATOM     13  C   UNL     1      46.034   7.014  11.386  0.00  0.00    +0.000 C 
ATOM     14  O   UNL     1      45.266   7.913  11.723  0.00  0.00    +0.000 OA
ATOM     31  H   UNL     1      47.992   6.331  11.411  0.00  0.00    +0.000 HD
BRANCH  13  15
ATOM     15  C   UNL     1      45.532   5.767  10.797  0.00  0.00    +0.000 A 
ATOM     16  C   UNL     1      45.763   5.506   9.454  0.00  0.00    +0.000 A 
ATOM     17  S   UNL     1      45.147   4.006   8.932  0.00  0.00    +0.000 S 
ATOM     18  C   UNL     1      44.505   3.675  10.473  0.00  0.00    +0.000 A 
ATOM     19  N   UNL     1      43.806   2.529  10.706  0.00  0.00    +0.000 NA
ATOM     20  C   UNL     1      43.349   2.421  11.909  0.00  0.00    +0.000 A 
ATOM     21  N   UNL     1      43.535   3.347  12.903  0.00  0.00    +0.000 N 
ATOM     22  C   UNL     1      44.261   4.500  12.723  0.00  0.00    +0.000 A 
ATOM     23  O   UNL     1      44.450   5.283  13.648  0.00  0.00    +0.000 OA
ATOM     24  C   UNL     1      44.781   4.678  11.380  0.00  0.00    +0.000 A 
ATOM     32  H   UNL     1      43.158   3.195  13.827  0.00  0.00    +0.000 HD
ENDBRANCH  13  15
ENDBRANCH  11  12
ENDBRANCH  10  11
TORSDOF 6
ENDMDL
MODEL 7
REMARK VINA RESULT:    -6.381      1.920      2.519
REMARK INTER + INTRA:          -9.414
REMARK INTER:                  -8.354
REMARK INTRA:                  -1.060
REMARK UNBOUND:                -0.981
REMARK  Name = 
REMARK  6 active torsions:
REMARK  status: ('A' for Active; 'I' for Inactive)
REMARK    1  A    between atoms: N_1  and  C_2
REMARK    2  A    between atoms: N_5  and  C_6
REMARK    3  A    between atoms: C_6  and  C_7
REMARK    4  A    between atoms: C_10  and  C_11
REMARK    5  A    between atoms: C_11  and  N_12
REMARK    6  A    between atoms: C_13  and  C_15
REMARK                            x       y       z     vdW  Elec       q    Type
REMARK                         _______ _______ _______ _____ _____    ______ ____
ROOT
ATOM      7  C   UNL     1      46.075   7.305  12.217  0.00  0.00    +0.000 A 
ATOM      8  C   UNL     1      47.249   6.786  11.653  0.00  0.00    +0.000 A 
ATOM      9  C   UNL     1      48.503   7.182  12.119  0.00  0.00    +0.000 A 
ATOM     10  C   UNL     1      48.610   8.129  13.143  0.00  0.00    +0.000 A 
ATOM     25  C   UNL     1      47.442   8.725  13.637  0.00  0.00    +0.000 A 
ATOM     26  C   UNL     1      46.184   8.304  13.192  0.00  0.00    +0.000 A 
ENDROOT
BRANCH   7   6
ATOM      6  C   UNL     1      44.719   6.755  11.808  0.00  0.00    +0.000 C 
BRANCH   6   5
ATOM      2  C   UNL     1      44.017   3.116  11.588  0.00  0.00    +0.000 C 
ATOM      3  C   UNL     1      45.287   3.723  12.189  0.00  0.00    +0.000 C 
ATOM      4  C   UNL     1      44.969   4.759  13.271  0.00  0.00    +0.000 C 
ATOM      5  N   UNL     1      44.102   5.853  12.801  0.00  0.00    +0.000 NA
ATOM     27  C   UNL     1      42.839   5.271  12.307  0.00  0.00    +0.000 C 
ATOM     28  C   UNL     1      43.023   4.220  11.204  0.00  0.00    +0.000 C 
BRANCH   2   1
ATOM      1  N   UNL     1      43.413   2.169  12.529  0.00  0.00    +0.000 NA
ATOM     29  H   UNL     1      43.605   1.214  12.224  0.00  0.00    +0.000 HD
ATOM     30  H   UNL     1      42.398   2.271  12.518  0.00  0.00    +0.000 HD
ENDBRANCH   2   1
ENDBRANCH   6   5
ENDBRANCH   7   6
BRANCH  10  11
ATOM     11  C   UNL     1      49.956   8.488  13.705  0.00  0.00    +0.000 C 
BRANCH  11  12
ATOM     12  N   UNL     1      50.495   7.430  14.519  0.00  0.00    +0.000 N 
ATOM     13  C   UNL     1      50.271   7.415  15.872  0.00  0.00    +0.000 C 
ATOM     14  O   UNL     1      49.569   8.259  16.425  0.00  0.00    +0.000 OA
ATOM     31  H   UNL     1      51.239   6.867  14.121  0.00  0.00    +0.000 HD
BRANCH  13  15
ATOM     15  C   UNL     1      50.863   6.305  16.629  0.00  0.00    +0.000 A 
ATOM     16  C   UNL     1      50.042   5.487  17.392  0.00  0.00    +0.000 A 
ATOM     17  S   UNL     1      50.874   4.227  18.182  0.00  0.00    +0.000 S 
ATOM     18  C   UNL     1      52.370   4.764  17.572  0.00  0.00    +0.000 A 
ATOM     19  N   UNL     1      53.527   4.125  17.901  0.00  0.00    +0.000 NA
ATOM     20  C   UNL     1      54.589   4.655  17.395  0.00  0.00    +0.000 A 
ATOM     21  N   UNL     1      54.602   5.759  16.581  0.00  0.00    +0.000 N 
ATOM     22  C   UNL     1      53.457   6.415  16.195  0.00  0.00    +0.000 A 
ATOM     23  O   UNL     1      53.499   7.368  15.425  0.00  0.00    +0.000 OA
ATOM     24  C   UNL     1      52.234   5.867  16.754  0.00  0.00    +0.000 A 
ATOM     32  H   UNL     1      55.469   6.117  16.209  0.00  0.00    +0.000 HD
ENDBRANCH  13  15
ENDBRANCH  11  12
ENDBRANCH  10  11
TORSDOF 6
ENDMDL
MODEL 8
REMARK VINA RESULT:    -6.235      5.319      8.681
REMARK INTER + INTRA:          -9.221
REMARK INTER:                  -8.355
REMARK INTRA:                  -0.866
REMARK UNBOUND:                -0.981
REMARK  Name = 
REMARK  6 active torsions:
REMARK  status: ('A' for Active; 'I' for Inactive)
REMARK    1  A    between atoms: N_1  and  C_2
REMARK    2  A    between atoms: N_5  and  C_6
REMARK    3  A    between atoms: C_6  and  C_7
REMARK    4  A    between atoms: C_10  and  C_11
REMARK    5  A    between atoms: C_11  and  N_12
REMARK    6  A    between atoms: C_13  and  C_15
REMARK                            x       y       z     vdW  Elec       q    Type
REMARK                         _______ _______ _______ _____ _____    ______ ____
ROOT
ATOM      7  C   UNL     1      50.529   8.738  11.351  0.00  0.00    +0.000 A 
ATOM      8  C   UNL     1      50.098   7.480  11.796  0.00  0.00    +0.000 A 
ATOM      9  C   UNL     1      48.810   7.301  12.301  0.00  0.00    +0.000 A 
ATOM     10  C   UNL     1      47.933   8.387  12.399  0.00  0.00    +0.000 A 
ATOM     25  C   UNL     1      48.395   9.663  12.052  0.00  0.00    +0.000 A 
ATOM     26  C   UNL     1      49.675   9.836  11.515  0.00  0.00    +0.000 A 
ENDROOT
BRANCH   7   6
ATOM      6  C   UNL     1      51.876   8.888  10.663  0.00  0.00    +0.000 C 
BRANCH   6   5
ATOM      2  C   UNL     1      54.749   8.130   8.438  0.00  0.00    +0.000 C 
ATOM      3  C   UNL     1      54.870   8.550   9.905  0.00  0.00    +0.000 C 
ATOM      4  C   UNL     1      54.032   7.660  10.826  0.00  0.00    +0.000 C 
ATOM      5  N   UNL     1      52.604   7.620  10.466  0.00  0.00    +0.000 NA
ATOM     27  C   UNL     1      52.484   7.126   9.080  0.00  0.00    +0.000 C 
ATOM     28  C   UNL     1      53.276   7.946   8.052  0.00  0.00    +0.000 C 
BRANCH   2   1
ATOM      1  N   UNL     1      55.513   6.903   8.196  0.00  0.00    +0.000 NA
ATOM     29  H   UNL     1      54.882   6.165   7.880  0.00  0.00    +0.000 HD
ATOM     30  H   UNL     1      55.920   6.572   9.070  0.00  0.00    +0.000 HD
ENDBRANCH   2   1
ENDBRANCH   6   5
ENDBRANCH   7   6
BRANCH  10  11
ATOM     11  C   UNL     1      46.517   8.177  12.859  0.00  0.00    +0.000 C 
BRANCH  11  12
ATOM     12  N   UNL     1      46.050   6.849  12.564  0.00  0.00    +0.000 N 
ATOM     13  C   UNL     1      44.935   6.663  11.787  0.00  0.00    +0.000 C 
ATOM     14  O   UNL     1      44.334   7.606  11.277  0.00  0.00    +0.000 OA
ATOM     31  H   UNL     1      46.397   6.092  13.144  0.00  0.00    +0.000 HD
BRANCH  13  15
ATOM     15  C   UNL     1      44.523   5.276  11.542  0.00  0.00    +0.000 A 
ATOM     16  C   UNL     1      43.791   4.602  12.509  0.00  0.00    +0.000 A 
ATOM     17  S   UNL     1      43.363   3.015  12.061  0.00  0.00    +0.000 S 
ATOM     18  C   UNL     1      44.185   3.156  10.578  0.00  0.00    +0.000 A 
ATOM     19  N   UNL     1      44.236   2.111   9.706  0.00  0.00    +0.000 NA
ATOM     20  C   UNL     1      44.919   2.345   8.636  0.00  0.00    +0.000 A 
ATOM     21  N   UNL     1      45.547   3.530   8.351  0.00  0.00    +0.000 N 
ATOM     22  C   UNL     1      45.494   4.622   9.184  0.00  0.00    +0.000 A 
ATOM     23  O   UNL     1      46.024   5.684   8.875  0.00  0.00    +0.000 OA
ATOM     24  C   UNL     1      44.752   4.404  10.413  0.00  0.00    +0.000 A 
ATOM     32  H   UNL     1      46.057   3.650   7.488  0.00  0.00    +0.000 HD
ENDBRANCH  13  15
ENDBRANCH  11  12
ENDBRANCH  10  11
TORSDOF 6
ENDMDL
MODEL 9
REMARK VINA RESULT:    -6.227      5.724      6.599
REMARK INTER + INTRA:          -9.210
REMARK INTER:                  -8.500
REMARK INTRA:                  -0.710
REMARK UNBOUND:                -0.981
REMARK  Name = 
REMARK  6 active torsions:
REMARK  status: ('A' for Active; 'I' for Inactive)
REMARK    1  A    between atoms: N_1  and  C_2
REMARK    2  A    between atoms: N_5  and  C_6
REMARK    3  A    between atoms: C_6  and  C_7
REMARK    4  A    between atoms: C_10  and  C_11
REMARK    5  A    between atoms: C_11  and  N_12
REMARK    6  A    between atoms: C_13  and  C_15
REMARK                            x       y       z     vdW  Elec       q    Type
REMARK                         _______ _______ _______ _____ _____    ______ ____
ROOT
ATOM      7  C   UNL     1      46.911   7.249  12.613  0.00  0.00    +0.000 A 
ATOM      8  C   UNL     1      47.008   8.572  12.158  0.00  0.00    +0.000 A 
ATOM      9  C   UNL     1      48.232   9.103  11.752  0.00  0.00    +0.000 A 
ATOM     10  C   UNL     1      49.395   8.328  11.819  0.00  0.00    +0.000 A 
ATOM     25  C   UNL     1      49.319   7.040  12.368  0.00  0.00    +0.000 A 
ATOM     26  C   UNL     1      48.086   6.498  12.745  0.00  0.00    +0.000 A 
ENDROOT
BRANCH   7   6
ATOM      6  C   UNL     1      45.552   6.636  12.906  0.00  0.00    +0.000 C 
BRANCH   6   5
ATOM      2  C   UNL     1      43.671   3.455  12.558  0.00  0.00    +0.000 C 
ATOM      3  C   UNL     1      43.039   4.808  12.893  0.00  0.00    +0.000 C 
ATOM      4  C   UNL     1      43.418   5.885  11.872  0.00  0.00    +0.000 C 
ATOM      5  N   UNL     1      44.872   6.069  11.724  0.00  0.00    +0.000 NA
ATOM     27  C   UNL     1      45.468   4.783  11.311  0.00  0.00    +0.000 C 
ATOM     28  C   UNL     1      45.168   3.618  12.265  0.00  0.00    +0.000 C 
BRANCH   2   1
ATOM      1  N   UNL     1      42.977   2.837  11.424  0.00  0.00    +0.000 NA
ATOM     29  H   UNL     1      42.203   3.434  11.131  0.00  0.00    +0.000 HD
ATOM     30  H   UNL     1      42.560   1.954  11.715  0.00  0.00    +0.000 HD
ENDBRANCH   2   1
ENDBRANCH   6   5
ENDBRANCH   7   6
BRANCH  10  11
ATOM     11  C   UNL     1      50.697   8.868  11.298  0.00  0.00    +0.000 C 
BRANCH  11  12
ATOM     12  N   UNL     1      51.645   7.818  11.034  0.00  0.00    +0.000 N 
ATOM     13  C   UNL     1      52.553   7.944  10.014  0.00  0.00    +0.000 C 
ATOM     14  O   UNL     1      52.626   8.963   9.332  0.00  0.00    +0.000 OA
ATOM     31  H   UNL     1      51.454   6.906  11.436  0.00  0.00    +0.000 HD
BRANCH  13  15
ATOM     15  C   UNL     1      53.478   6.823   9.809  0.00  0.00    +0.000 A 
ATOM     16  C   UNL     1      54.401   6.514  10.798  0.00  0.00    +0.000 A 
ATOM     17  S   UNL     1      55.380   5.169  10.424  0.00  0.00    +0.000 S 
ATOM     18  C   UNL     1      54.636   4.986   8.904  0.00  0.00    +0.000 A 
ATOM     19  N   UNL     1      55.039   4.010   8.044  0.00  0.00    +0.000 NA
ATOM     20  C   UNL     1      54.413   4.005   6.915  0.00  0.00    +0.000 A 
ATOM     21  N   UNL     1      53.413   4.878   6.571  0.00  0.00    +0.000 N 
ATOM     22  C   UNL     1      52.951   5.856   7.419  0.00  0.00    +0.000 A 
ATOM     23  O   UNL     1      52.020   6.588   7.098  0.00  0.00    +0.000 OA
ATOM     24  C   UNL     1      53.637   5.915   8.696  0.00  0.00    +0.000 A 
ATOM     32  H   UNL     1      52.956   4.812   5.673  0.00  0.00    +0.000 HD
ENDBRANCH  13  15
ENDBRANCH  11  12
ENDBRANCH  10  11
TORSDOF 6
ENDMDL
