MODEL 1
REMARK VINA RESULT:    -6.753      0.000      0.000
REMARK INTER + INTRA:          -7.207
REMARK INTER:                  -7.148
REMARK INTRA:                  -0.059
REMARK UNBOUND:                -0.059
REMARK  Name = 
REMARK  1 active torsions:
REMARK  status: ('A' for Active; 'I' for Inactive)
REMARK    1  A    between atoms: C_2  and  C_4
REMARK                            x       y       z     vdW  Elec       q    Type
REMARK                         _______ _______ _______ _____ _____    ______ ____
ROOT
ATOM      4  C   UNL     1      46.558   2.471   7.686  0.00  0.00    +0.000 A 
ATOM      5  C   UNL     1      46.644   3.844   7.433  0.00  0.00    +0.000 A 
ATOM      6  C   UNL     1      45.886   4.762   8.170  0.00  0.00    +0.000 A 
ATOM      7  C   UNL     1      45.038   4.254   9.160  0.00  0.00    +0.000 A 
ATOM      8  N   UNL     1      44.179   4.908  10.012  0.00  0.00    +0.000 N 
ATOM      9  C   UNL     1      43.534   4.007  10.819  0.00  0.00    +0.000 A 
ATOM     10  C   UNL     1      43.982   2.750  10.486  0.00  0.00    +0.000 A 
ATOM     11  C   UNL     1      44.929   2.891   9.434  0.00  0.00    +0.000 A 
ATOM     12  C   UNL     1      45.697   1.982   8.683  0.00  0.00    +0.000 A 
ATOM     15  H   UNL     1      44.039   5.909  10.032  0.00  0.00    +0.000 HD
ENDROOT
BRANCH   4   2
ATOM      1  N   UNL     1      48.425   1.959   6.211  0.00  0.00    +0.000 N 
ATOM      2  C   UNL     1      47.339   1.487   6.895  0.00  0.00    +0.000 C 
ATOM      3  O   UNL     1      47.054   0.296   6.879  0.00  0.00    +0.000 OA
ATOM     13  H   UNL     1      49.011   1.261   5.770  0.00  0.00    +0.000 HD
ATOM     14  H   UNL     1      48.837   2.857   6.414  0.00  0.00    +0.000 HD
ENDBRANCH   4   2
TORSDOF 1
ENDMDL
MODEL 2
REMARK VINA RESULT:    -6.430      2.313      4.487
REMARK INTER + INTRA:          -6.865
REMARK INTER:                  -6.806
REMARK INTRA:                  -0.059
REMARK UNBOUND:                -0.059
REMARK  Name = 
REMARK  1 active torsions:
REMARK  status: ('A' for Active; 'I' for Inactive)
REMARK    1  A    between atoms: C_2  and  C_4
REMARK                            x       y       z     vdW  Elec       q    Type
REMARK                         _______ _______ _______ _____ _____    ______ ____
ROOT
ATOM      4  C   UNL     1      44.693   3.320   9.618  0.00  0.00    +0.000 A 
ATOM      5  C   UNL     1      45.142   4.539   9.097  0.00  0.00    +0.000 A 
ATOM      6  C   UNL     1      46.108   4.578   8.085  0.00  0.00    +0.000 A 
ATOM      7  C   UNL     1      46.608   3.357   7.621  0.00  0.00    +0.000 A 
ATOM      8  N   UNL     1      47.561   3.096   6.662  0.00  0.00    +0.000 N 
ATOM      9  C   UNL     1      47.747   1.744   6.535  0.00  0.00    +0.000 A 
ATOM     10  C   UNL     1      46.903   1.118   7.423  0.00  0.00    +0.000 A 
ATOM     11  C   UNL     1      46.182   2.127   8.121  0.00  0.00    +0.000 A 
ATOM     12  C   UNL     1      45.212   2.106   9.140  0.00  0.00    +0.000 A 
ATOM     15  H   UNL     1      48.056   3.803   6.136  0.00  0.00    +0.000 HD
ENDROOT
BRANCH   4   2
ATOM      1  N   UNL     1      43.640   2.127  11.460  0.00  0.00    +0.000 N 
ATOM      2  C   UNL     1      43.686   3.268  10.708  0.00  0.00    +0.000 C 
ATOM      3  O   UNL     1      42.948   4.214  10.954  0.00  0.00    +0.000 OA
ATOM     13  H   UNL     1      43.029   2.150  12.267  0.00  0.00    +0.000 HD
ATOM     14  H   UNL     1      44.393   1.455  11.460  0.00  0.00    +0.000 HD
ENDBRANCH   4   2
TORSDOF 1
ENDMDL
MODEL 3
REMARK VINA RESULT:    -6.062      1.139      1.949
REMARK INTER + INTRA:          -6.475
REMARK INTER:                  -6.421
REMARK INTRA:                  -0.054
REMARK UNBOUND:                -0.059
REMARK  Name = 
REMARK  1 active torsions:
REMARK  status: ('A' for Active; 'I' for Inactive)
REMARK    1  A    between atoms: C_2  and  C_4
REMARK                            x       y       z     vdW  Elec       q    Type
REMARK                         _______ _______ _______ _____ _____    ______ ____
ROOT
ATOM      4  C   UNL     1      46.512   2.549   7.495  0.00  0.00    +0.000 A 
ATOM      5  C   UNL     1      45.945   1.436   8.126  0.00  0.00    +0.000 A 
ATOM      6  C   UNL     1      45.022   1.589   9.166  0.00  0.00    +0.000 A 
ATOM      7  C   UNL     1      44.695   2.893   9.555  0.00  0.00    +0.000 A 
ATOM      8  N   UNL     1      43.846   3.337  10.543  0.00  0.00    +0.000 N 
ATOM      9  C   UNL     1      43.836   4.707  10.578  0.00  0.00    +0.000 A 
ATOM     10  C   UNL     1      44.690   5.159   9.598  0.00  0.00    +0.000 A 
ATOM     11  C   UNL     1      45.245   4.022   8.948  0.00  0.00    +0.000 A 
ATOM     12  C   UNL     1      46.172   3.849   7.904  0.00  0.00    +0.000 A 
ATOM     15  H   UNL     1      43.315   2.736  11.158  0.00  0.00    +0.000 HD
ENDROOT
BRANCH   4   2
ATOM      1  N   UNL     1      47.383   3.226   5.326  0.00  0.00    +0.000 N 
ATOM      2  C   UNL     1      47.509   2.398   6.406  0.00  0.00    +0.000 C 
ATOM      3  O   UNL     1      48.431   1.595   6.478  0.00  0.00    +0.000 OA
ATOM     13  H   UNL     1      48.133   3.190   4.646  0.00  0.00    +0.000 HD
ATOM     14  H   UNL     1      46.815   4.060   5.353  0.00  0.00    +0.000 HD
ENDBRANCH   4   2
TORSDOF 1
ENDMDL
MODEL 4
REMARK VINA RESULT:    -5.949      2.143      4.804
REMARK INTER + INTRA:          -6.356
REMARK INTER:                  -6.296
REMARK INTRA:                  -0.060
REMARK UNBOUND:                -0.059
REMARK  Name = 
REMARK  1 active torsions:
REMARK  status: ('A' for Active; 'I' for Inactive)
REMARK    1  A    between atoms: C_2  and  C_4
REMARK                            x       y       z     vdW  Elec       q    Type
REMARK                         _______ _______ _______ _____ _____    ______ ____
ROOT
ATOM      4  C   UNL     1      44.718   3.410   9.352  0.00  0.00    +0.000 A 
ATOM      5  C   UNL     1      44.800   2.019   9.471  0.00  0.00    +0.000 A 
ATOM      6  C   UNL     1      45.585   1.265   8.591  0.00  0.00    +0.000 A 
ATOM      7  C   UNL     1      46.275   1.954   7.587  0.00  0.00    +0.000 A 
ATOM      8  N   UNL     1      47.093   1.479   6.588  0.00  0.00    +0.000 N 
ATOM      9  C   UNL     1      47.553   2.516   5.819  0.00  0.00    +0.000 A 
ATOM     10  C   UNL     1      47.027   3.681   6.327  0.00  0.00    +0.000 A 
ATOM     11  C   UNL     1      46.211   3.339   7.442  0.00  0.00    +0.000 A 
ATOM     12  C   UNL     1      45.416   4.081   8.335  0.00  0.00    +0.000 A 
ATOM     15  H   UNL     1      47.314   0.504   6.440  0.00  0.00    +0.000 HD
ENDROOT
BRANCH   4   2
ATOM      1  N   UNL     1      44.052   5.572  10.251  0.00  0.00    +0.000 N 
ATOM      2  C   UNL     1      43.870   4.217  10.266  0.00  0.00    +0.000 C 
ATOM      3  O   UNL     1      43.017   3.705  10.979  0.00  0.00    +0.000 OA
ATOM     13  H   UNL     1      43.392   6.116  10.793  0.00  0.00    +0.000 HD
ATOM     14  H   UNL     1      44.540   6.039   9.501  0.00  0.00    +0.000 HD
ENDBRANCH   4   2
TORSDOF 1
ENDMDL
MODEL 5
REMARK VINA RESULT:    -5.563      4.170      5.501
REMARK INTER + INTRA:          -5.947
REMARK INTER:                  -5.893
REMARK INTRA:                  -0.054
REMARK UNBOUND:                -0.059
REMARK  Name = 
REMARK  1 active torsions:
REMARK  status: ('A' for Active; 'I' for Inactive)
REMARK    1  A    between atoms: C_2  and  C_4
REMARK                            x       y       z     vdW  Elec       q    Type
REMARK                         _______ _______ _______ _____ _____    ______ ____
ROOT
ATOM      4  C   UNL     1      46.546   4.539  13.482  0.00  0.00    +0.000 A 
ATOM      5  C   UNL     1      46.820   5.799  12.939  0.00  0.00    +0.000 A 
ATOM      6  C   UNL     1      46.247   6.202  11.728  0.00  0.00    +0.000 A 
ATOM      7  C   UNL     1      45.400   5.297  11.080  0.00  0.00    +0.000 A 
ATOM      8  N   UNL     1      44.723   5.414   9.888  0.00  0.00    +0.000 N 
ATOM      9  C   UNL     1      44.011   4.271   9.633  0.00  0.00    +0.000 A 
ATOM     10  C   UNL     1      44.228   3.400  10.675  0.00  0.00    +0.000 A 
ATOM     11  C   UNL     1      45.110   4.033  11.594  0.00  0.00    +0.000 A 
ATOM     12  C   UNL     1      45.695   3.644  12.813  0.00  0.00    +0.000 A 
ATOM     15  H   UNL     1      44.756   6.225   9.285  0.00  0.00    +0.000 HD
ENDROOT
BRANCH   4   2
ATOM      1  N   UNL     1      47.175   4.984  15.791  0.00  0.00    +0.000 N 
ATOM      2  C   UNL     1      47.167   4.092  14.755  0.00  0.00    +0.000 C 
ATOM      3  O   UNL     1      47.621   2.963  14.893  0.00  0.00    +0.000 OA
ATOM     13  H   UNL     1      47.498   4.628  16.683  0.00  0.00    +0.000 HD
ATOM     14  H   UNL     1      46.585   5.802  15.799  0.00  0.00    +0.000 HD
ENDBRANCH   4   2
TORSDOF 1
ENDMDL
MODEL 6
REMARK VINA RESULT:    -5.523      2.788      5.150
REMARK INTER + INTRA:          -5.905
REMARK INTER:                  -5.845
REMARK INTRA:                  -0.061
REMARK UNBOUND:                -0.059
REMARK  Name = 
REMARK  1 active torsions:
REMARK  status: ('A' for Active; 'I' for Inactive)
REMARK    1  A    between atoms: C_2  and  C_4
REMARK                            x       y       z     vdW  Elec       q    Type
REMARK                         _______ _______ _______ _____ _____    ______ ____
ROOT
ATOM      4  C   UNL     1      43.945   4.543  10.404  0.00  0.00    +0.000 A 
ATOM      5  C   UNL     1      43.768   3.172  10.617  0.00  0.00    +0.000 A 
ATOM      6  C   UNL     1      44.466   2.228   9.855  0.00  0.00    +0.000 A 
ATOM      7  C   UNL     1      45.338   2.708   8.872  0.00  0.00    +0.000 A 
ATOM      8  N   UNL     1      46.127   2.023   7.977  0.00  0.00    +0.000 N 
ATOM      9  C   UNL     1      46.819   2.902   7.185  0.00  0.00    +0.000 A 
ATOM     10  C   UNL     1      46.475   4.176   7.573  0.00  0.00    +0.000 A 
ATOM     11  C   UNL     1      45.533   4.068   8.634  0.00  0.00    +0.000 A 
ATOM     12  C   UNL     1      44.823   5.003   9.409  0.00  0.00    +0.000 A 
ATOM     15  H   UNL     1      46.180   1.015   7.909  0.00  0.00    +0.000 HD
ENDROOT
BRANCH   4   2
ATOM      1  N   UNL     1      43.547   6.863  11.026  0.00  0.00    +0.000 N 
ATOM      2  C   UNL     1      43.192   5.553  11.191  0.00  0.00    +0.000 C 
ATOM      3  O   UNL     1      42.268   5.240  11.931  0.00  0.00    +0.000 OA
ATOM     13  H   UNL     1      42.953   7.546  11.480  0.00  0.00    +0.000 HD
ATOM     14  H   UNL     1      44.104   7.173  10.244  0.00  0.00    +0.000 HD
ENDBRANCH   4   2
TORSDOF 1
ENDMDL
MODEL 7
REMARK VINA RESULT:    -5.383      3.663      5.583
REMARK INTER + INTRA:          -5.757
REMARK INTER:                  -5.707
REMARK INTRA:                  -0.050
REMARK UNBOUND:                -0.059
REMARK  Name = 
REMARK  1 active torsions:
REMARK  status: ('A' for Active; 'I' for Inactive)
REMARK    1  A    between atoms: C_2  and  C_4
REMARK                            x       y       z     vdW  Elec       q    Type
REMARK                         _______ _______ _______ _____ _____    ______ ____
ROOT
ATOM      4  C   UNL     1      45.523   5.733  12.087  0.00  0.00    +0.000 A 
ATOM      5  C   UNL     1      45.385   4.573  12.856  0.00  0.00    +0.000 A 
ATOM      6  C   UNL     1      45.093   3.342  12.258  0.00  0.00    +0.000 A 
ATOM      7  C   UNL     1      44.938   3.319  10.868  0.00  0.00    +0.000 A 
ATOM      8  N   UNL     1      44.636   2.272  10.027  0.00  0.00    +0.000 N 
ATOM      9  C   UNL     1      44.575   2.709   8.729  0.00  0.00    +0.000 A 
ATOM     10  C   UNL     1      44.842   4.059   8.728  0.00  0.00    +0.000 A 
ATOM     11  C   UNL     1      45.067   4.459  10.075  0.00  0.00    +0.000 A 
ATOM     12  C   UNL     1      45.360   5.688  10.693  0.00  0.00    +0.000 A 
ATOM     15  H   UNL     1      44.475   1.321  10.327  0.00  0.00    +0.000 HD
ENDROOT
BRANCH   4   2
ATOM      1  N   UNL     1      44.845   8.012  12.610  0.00  0.00    +0.000 N 
ATOM      2  C   UNL     1      45.810   7.049  12.714  0.00  0.00    +0.000 C 
ATOM      3  O   UNL     1      46.846   7.260  13.330  0.00  0.00    +0.000 OA
ATOM     13  H   UNL     1      45.006   8.862  13.136  0.00  0.00    +0.000 HD
ATOM     14  H   UNL     1      43.894   7.793  12.352  0.00  0.00    +0.000 HD
ENDBRANCH   4   2
TORSDOF 1
ENDMDL
MODEL 8
REMARK VINA RESULT:    -5.341      3.684      4.972
REMARK INTER + INTRA:          -5.713
REMARK INTER:                  -5.652
REMARK INTRA:                  -0.061
REMARK UNBOUND:                -0.059
REMARK  Name = 
REMARK  1 active torsions:
REMARK  status: ('A' for Active; 'I' for Inactive)
REMARK    1  A    between atoms: C_2  and  C_4
REMARK                            x       y       z     vdW  Elec       q    Type
REMARK                         _______ _______ _______ _____ _____    ______ ____
ROOT
ATOM      4  C   UNL     1      44.994   4.305  11.057  0.00  0.00    +0.000 A 
ATOM      5  C   UNL     1      45.286   3.616  12.239  0.00  0.00    +0.000 A 
ATOM      6  C   UNL     1      45.989   4.235  13.280  0.00  0.00    +0.000 A 
ATOM      7  C   UNL     1      46.393   5.561  13.088  0.00  0.00    +0.000 A 
ATOM      8  N   UNL     1      47.102   6.399  13.918  0.00  0.00    +0.000 N 
ATOM      9  C   UNL     1      47.281   7.619  13.317  0.00  0.00    +0.000 A 
ATOM     10  C   UNL     1      46.678   7.571  12.081  0.00  0.00    +0.000 A 
ATOM     11  C   UNL     1      46.119   6.273  11.921  0.00  0.00    +0.000 A 
ATOM     12  C   UNL     1      45.412   5.635  10.885  0.00  0.00    +0.000 A 
ATOM     15  H   UNL     1      47.447   6.147  14.833  0.00  0.00    +0.000 HD
ENDROOT
BRANCH   4   2
ATOM      1  N   UNL     1      44.120   4.372   8.787  0.00  0.00    +0.000 N 
ATOM      2  C   UNL     1      44.269   3.651   9.939  0.00  0.00    +0.000 C 
ATOM      3  O   UNL     1      43.850   2.503  10.021  0.00  0.00    +0.000 OA
ATOM     13  H   UNL     1      43.725   3.874   7.998  0.00  0.00    +0.000 HD
ATOM     14  H   UNL     1      44.672   5.194   8.593  0.00  0.00    +0.000 HD
ENDBRANCH   4   2
TORSDOF 1
ENDMDL
MODEL 9
REMARK VINA RESULT:    -5.155      5.114      6.225
REMARK INTER + INTRA:          -5.515
REMARK INTER:                  -5.463
REMARK INTRA:                  -0.052
REMARK UNBOUND:                -0.059
REMARK  Name = 
REMARK  1 active torsions:
REMARK  status: ('A' for Active; 'I' for Inactive)
REMARK    1  A    between atoms: C_2  and  C_4
REMARK                            x       y       z     vdW  Elec       q    Type
REMARK                         _______ _______ _______ _____ _____    ______ ____
ROOT
ATOM      4  C   UNL     1      45.668   6.794  12.569  0.00  0.00    +0.000 A 
ATOM      5  C   UNL     1      46.511   5.900  13.237  0.00  0.00    +0.000 A 
ATOM      6  C   UNL     1      46.227   4.530  13.274  0.00  0.00    +0.000 A 
ATOM      7  C   UNL     1      45.067   4.093  12.625  0.00  0.00    +0.000 A 
ATOM      8  N   UNL     1      44.537   2.828  12.514  0.00  0.00    +0.000 N 
ATOM      9  C   UNL     1      43.373   2.864  11.790  0.00  0.00    +0.000 A 
ATOM     10  C   UNL     1      43.145   4.170  11.425  0.00  0.00    +0.000 A 
ATOM     11  C   UNL     1      44.205   4.960  11.952  0.00  0.00    +0.000 A 
ATOM     12  C   UNL     1      44.507   6.334  11.927  0.00  0.00    +0.000 A 
ATOM     15  H   UNL     1      44.945   1.995  12.916  0.00  0.00    +0.000 HD
ENDROOT
BRANCH   4   2
ATOM      1  N   UNL     1      44.950   9.086  12.964  0.00  0.00    +0.000 N 
ATOM      2  C   UNL     1      45.948   8.252  12.543  0.00  0.00    +0.000 C 
ATOM      3  O   UNL     1      47.035   8.696  12.197  0.00  0.00    +0.000 OA
ATOM     13  H   UNL     1      45.193  10.065  13.048  0.00  0.00    +0.000 HD
ATOM     14  H   UNL     1      44.161   8.751  13.498  0.00  0.00    +0.000 HD
ENDBRANCH   4   2
TORSDOF 1
ENDMDL
