MODEL 1
REMARK VINA RESULT:    -6.080      0.000      0.000
REMARK INTER + INTRA:          -6.654
REMARK INTER:                  -6.613
REMARK INTRA:                  -0.041
REMARK UNBOUND:                -0.041
REMARK  Name = 
REMARK  2 active torsions:
REMARK  status: ('A' for Active; 'I' for Inactive)
REMARK    1  A    between atoms: C_2  and  C_4
REMARK    2  A    between atoms: C_7  and  N_8
REMARK                            x       y       z     vdW  Elec       q    Type
REMARK                         _______ _______ _______ _____ _____    ______ ____
ROOT
ATOM      4  C   UNL     1      46.433   2.337   7.767  0.00  0.00    +0.000 A 
ATOM      5  C   UNL     1      45.550   1.781   8.697  0.00  0.00    +0.000 A 
ATOM      6  C   UNL     1      44.690   2.610   9.422  0.00  0.00    +0.000 A 
ATOM      7  C   UNL     1      44.727   3.997   9.260  0.00  0.00    +0.000 A 
ATOM      9  C   UNL     1      45.593   4.541   8.306  0.00  0.00    +0.000 A 
ATOM     10  C   UNL     1      46.465   3.721   7.583  0.00  0.00    +0.000 A 
ENDROOT
BRANCH   4   2
ATOM      1  N   UNL     1      48.477   2.073   6.487  0.00  0.00    +0.000 N 
ATOM      2  C   UNL     1      47.326   1.488   6.940  0.00  0.00    +0.000 C 
ATOM      3  O   UNL     1      47.077   0.310   6.716  0.00  0.00    +0.000 OA
ATOM     11  H   UNL     1      49.146   1.456   6.045  0.00  0.00    +0.000 HD
ATOM     12  H   UNL     1      48.827   2.930   6.889  0.00  0.00    +0.000 HD
ENDBRANCH   4   2
BRANCH   7   8
ATOM      8  N   UNL     1      43.755   4.800   9.867  0.00  0.00    +0.000 N 
ATOM     13  H   UNL     1      42.940   4.971   9.288  0.00  0.00    +0.000 HD
ATOM     14  H   UNL     1      43.507   4.506  10.807  0.00  0.00    +0.000 HD
ENDBRANCH   7   8
TORSDOF 2
ENDMDL
MODEL 2
REMARK VINA RESULT:    -6.066      1.904      4.070
REMARK INTER + INTRA:          -6.639
REMARK INTER:                  -6.595
REMARK INTRA:                  -0.044
REMARK UNBOUND:                -0.041
REMARK  Name = 
REMARK  2 active torsions:
REMARK  status: ('A' for Active; 'I' for Inactive)
REMARK    1  A    between atoms: C_2  and  C_4
REMARK    2  A    between atoms: C_7  and  N_8
REMARK                            x       y       z     vdW  Elec       q    Type
REMARK                         _______ _______ _______ _____ _____    ______ ____
ROOT
ATOM      4  C   UNL     1      45.236   3.098   8.809  0.00  0.00    +0.000 A 
ATOM      5  C   UNL     1      45.637   1.764   8.687  0.00  0.00    +0.000 A 
ATOM      6  C   UNL     1      46.659   1.423   7.797  0.00  0.00    +0.000 A 
ATOM      7  C   UNL     1      47.262   2.395   6.993  0.00  0.00    +0.000 A 
ATOM      9  C   UNL     1      46.874   3.730   7.145  0.00  0.00    +0.000 A 
ATOM     10  C   UNL     1      45.846   4.080   8.025  0.00  0.00    +0.000 A 
ENDROOT
BRANCH   4   2
ATOM      1  N   UNL     1      43.814   4.823   9.750  0.00  0.00    +0.000 N 
ATOM      2  C   UNL     1      44.191   3.509   9.779  0.00  0.00    +0.000 C 
ATOM      3  O   UNL     1      43.654   2.707  10.533  0.00  0.00    +0.000 OA
ATOM     11  H   UNL     1      43.008   5.068  10.311  0.00  0.00    +0.000 HD
ATOM     12  H   UNL     1      44.034   5.418   8.965  0.00  0.00    +0.000 HD
ENDBRANCH   4   2
BRANCH   7   8
ATOM      8  N   UNL     1      48.389   2.072   6.230  0.00  0.00    +0.000 N 
ATOM     13  H   UNL     1      48.173   1.719   5.303  0.00  0.00    +0.000 HD
ATOM     14  H   UNL     1      49.096   2.801   6.211  0.00  0.00    +0.000 HD
ENDBRANCH   7   8
TORSDOF 2
ENDMDL
MODEL 3
REMARK VINA RESULT:    -6.061      0.176      1.536
REMARK INTER + INTRA:          -6.634
REMARK INTER:                  -6.592
REMARK INTRA:                  -0.042
REMARK UNBOUND:                -0.041
REMARK  Name = 
REMARK  2 active torsions:
REMARK  status: ('A' for Active; 'I' for Inactive)
REMARK    1  A    between atoms: C_2  and  C_4
REMARK    2  A    between atoms: C_7  and  N_8
REMARK                            x       y       z     vdW  Elec       q    Type
REMARK                         _______ _______ _______ _____ _____    ______ ____
ROOT
ATOM      4  C   UNL     1      46.343   2.311   7.805  0.00  0.00    +0.000 A 
ATOM      5  C   UNL     1      46.360   3.693   7.595  0.00  0.00    +0.000 A 
ATOM      6  C   UNL     1      45.481   4.516   8.306  0.00  0.00    +0.000 A 
ATOM      7  C   UNL     1      44.552   3.970   9.197  0.00  0.00    +0.000 A 
ATOM      9  C   UNL     1      44.565   2.590   9.421  0.00  0.00    +0.000 A 
ATOM     10  C   UNL     1      45.433   1.757   8.708  0.00  0.00    +0.000 A 
ENDROOT
BRANCH   4   2
ATOM      1  N   UNL     1      48.414   1.992   6.583  0.00  0.00    +0.000 N 
ATOM      2  C   UNL     1      47.295   1.409   7.110  0.00  0.00    +0.000 C 
ATOM      3  O   UNL     1      47.118   0.199   7.054  0.00  0.00    +0.000 OA
ATOM     11  H   UNL     1      49.124   1.360   6.236  0.00  0.00    +0.000 HD
ATOM     12  H   UNL     1      48.708   2.917   6.860  0.00  0.00    +0.000 HD
ENDBRANCH   4   2
BRANCH   7   8
ATOM      8  N   UNL     1      43.793   4.810  10.018  0.00  0.00    +0.000 N 
ATOM     13  H   UNL     1      44.302   5.181  10.814  0.00  0.00    +0.000 HD
ATOM     14  H   UNL     1      43.287   5.532   9.514  0.00  0.00    +0.000 HD
ENDBRANCH   7   8
TORSDOF 2
ENDMDL
MODEL 4
REMARK VINA RESULT:    -5.919      1.859      4.309
REMARK INTER + INTRA:          -6.479
REMARK INTER:                  -6.436
REMARK INTRA:                  -0.043
REMARK UNBOUND:                -0.041
REMARK  Name = 
REMARK  2 active torsions:
REMARK  status: ('A' for Active; 'I' for Inactive)
REMARK    1  A    between atoms: C_2  and  C_4
REMARK    2  A    between atoms: C_7  and  N_8
REMARK                            x       y       z     vdW  Elec       q    Type
REMARK                         _______ _______ _______ _____ _____    ______ ____
ROOT
ATOM      4  C   UNL     1      45.376   3.086   8.716  0.00  0.00    +0.000 A 
ATOM      5  C   UNL     1      45.995   4.072   7.943  0.00  0.00    +0.000 A 
ATOM      6  C   UNL     1      46.997   3.717   7.034  0.00  0.00    +0.000 A 
ATOM      7  C   UNL     1      47.419   2.389   6.917  0.00  0.00    +0.000 A 
ATOM      9  C   UNL     1      46.772   1.408   7.673  0.00  0.00    +0.000 A 
ATOM     10  C   UNL     1      45.776   1.753   8.592  0.00  0.00    +0.000 A 
ENDROOT
BRANCH   4   2
ATOM      1  N   UNL     1      43.831   4.708   9.648  0.00  0.00    +0.000 N 
ATOM      2  C   UNL     1      44.274   3.413   9.655  0.00  0.00    +0.000 C 
ATOM      3  O   UNL     1      43.750   2.562  10.362  0.00  0.00    +0.000 OA
ATOM     11  H   UNL     1      42.993   4.894  10.182  0.00  0.00    +0.000 HD
ATOM     12  H   UNL     1      44.051   5.337   8.890  0.00  0.00    +0.000 HD
ENDBRANCH   4   2
BRANCH   7   8
ATOM      8  N   UNL     1      48.301   2.023   5.894  0.00  0.00    +0.000 N 
ATOM     13  H   UNL     1      48.532   1.036   5.882  0.00  0.00    +0.000 HD
ATOM     14  H   UNL     1      48.034   2.369   4.977  0.00  0.00    +0.000 HD
ENDBRANCH   7   8
TORSDOF 2
ENDMDL
MODEL 5
REMARK VINA RESULT:    -5.446      2.626      4.152
REMARK INTER + INTRA:          -5.965
REMARK INTER:                  -5.936
REMARK INTRA:                  -0.030
REMARK UNBOUND:                -0.041
REMARK  Name = 
REMARK  2 active torsions:
REMARK  status: ('A' for Active; 'I' for Inactive)
REMARK    1  A    between atoms: C_2  and  C_4
REMARK    2  A    between atoms: C_7  and  N_8
REMARK                            x       y       z     vdW  Elec       q    Type
REMARK                         _______ _______ _______ _____ _____    ______ ____
ROOT
ATOM      4  C   UNL     1      44.825   3.152   9.974  0.00  0.00    +0.000 A 
ATOM      5  C   UNL     1      45.216   2.066   9.186  0.00  0.00    +0.000 A 
ATOM      6  C   UNL     1      45.915   2.285   7.996  0.00  0.00    +0.000 A 
ATOM      7  C   UNL     1      46.195   3.583   7.559  0.00  0.00    +0.000 A 
ATOM      9  C   UNL     1      45.826   4.661   8.370  0.00  0.00    +0.000 A 
ATOM     10  C   UNL     1      45.117   4.453   9.558  0.00  0.00    +0.000 A 
ENDROOT
BRANCH   4   2
ATOM      1  N   UNL     1      44.920   2.765  12.367  0.00  0.00    +0.000 N 
ATOM      2  C   UNL     1      44.127   2.960  11.270  0.00  0.00    +0.000 C 
ATOM      3  O   UNL     1      42.908   3.024  11.366  0.00  0.00    +0.000 OA
ATOM     11  H   UNL     1      44.451   2.775  13.263  0.00  0.00    +0.000 HD
ATOM     12  H   UNL     1      45.905   2.988  12.354  0.00  0.00    +0.000 HD
ENDBRANCH   4   2
BRANCH   7   8
ATOM      8  N   UNL     1      47.032   3.786   6.457  0.00  0.00    +0.000 N 
ATOM     13  H   UNL     1      46.676   4.456   5.784  0.00  0.00    +0.000 HD
ATOM     14  H   UNL     1      48.002   3.964   6.704  0.00  0.00    +0.000 HD
ENDBRANCH   7   8
TORSDOF 2
ENDMDL
MODEL 6
REMARK VINA RESULT:    -5.007      4.111      5.273
REMARK INTER + INTRA:          -5.487
REMARK INTER:                  -5.448
REMARK INTRA:                  -0.039
REMARK UNBOUND:                -0.041
REMARK  Name = 
REMARK  2 active torsions:
REMARK  status: ('A' for Active; 'I' for Inactive)
REMARK    1  A    between atoms: C_2  and  C_4
REMARK    2  A    between atoms: C_7  and  N_8
REMARK                            x       y       z     vdW  Elec       q    Type
REMARK                         _______ _______ _______ _____ _____    ______ ____
ROOT
ATOM      4  C   UNL     1      45.962   4.308  12.641  0.00  0.00    +0.000 A 
ATOM      5  C   UNL     1      45.264   3.198  12.157  0.00  0.00    +0.000 A 
ATOM      6  C   UNL     1      44.562   3.288  10.952  0.00  0.00    +0.000 A 
ATOM      7  C   UNL     1      44.513   4.490  10.241  0.00  0.00    +0.000 A 
ATOM      9  C   UNL     1      45.238   5.586  10.719  0.00  0.00    +0.000 A 
ATOM     10  C   UNL     1      45.936   5.509  11.928  0.00  0.00    +0.000 A 
ENDROOT
BRANCH   4   2
ATOM      1  N   UNL     1      46.813   5.378  14.645  0.00  0.00    +0.000 N 
ATOM      2  C   UNL     1      46.762   4.239  13.889  0.00  0.00    +0.000 C 
ATOM      3  O   UNL     1      47.306   3.205  14.254  0.00  0.00    +0.000 OA
ATOM     11  H   UNL     1      47.239   5.287  15.558  0.00  0.00    +0.000 HD
ATOM     12  H   UNL     1      46.155   6.132  14.510  0.00  0.00    +0.000 HD
ENDBRANCH   4   2
BRANCH   7   8
ATOM      8  N   UNL     1      43.947   4.524   8.962  0.00  0.00    +0.000 N 
ATOM     13  H   UNL     1      44.384   3.892   8.299  0.00  0.00    +0.000 HD
ATOM     14  H   UNL     1      42.934   4.449   8.958  0.00  0.00    +0.000 HD
ENDBRANCH   7   8
TORSDOF 2
ENDMDL
MODEL 7
REMARK VINA RESULT:    -4.887      1.281      1.509
REMARK INTER + INTRA:          -5.357
REMARK INTER:                  -5.313
REMARK INTRA:                  -0.044
REMARK UNBOUND:                -0.041
REMARK  Name = 
REMARK  2 active torsions:
REMARK  status: ('A' for Active; 'I' for Inactive)
REMARK    1  A    between atoms: C_2  and  C_4
REMARK    2  A    between atoms: C_7  and  N_8
REMARK                            x       y       z     vdW  Elec       q    Type
REMARK                         _______ _______ _______ _____ _____    ______ ____
ROOT
ATOM      4  C   UNL     1      45.702   3.046   8.311  0.00  0.00    +0.000 A 
ATOM      5  C   UNL     1      45.094   2.021   9.041  0.00  0.00    +0.000 A 
ATOM      6  C   UNL     1      44.210   2.334  10.077  0.00  0.00    +0.000 A 
ATOM      7  C   UNL     1      43.954   3.664  10.423  0.00  0.00    +0.000 A 
ATOM      9  C   UNL     1      44.545   4.682   9.667  0.00  0.00    +0.000 A 
ATOM     10  C   UNL     1      45.439   4.379   8.635  0.00  0.00    +0.000 A 
ENDROOT
BRANCH   4   2
ATOM      1  N   UNL     1      47.025   3.832   6.436  0.00  0.00    +0.000 N 
ATOM      2  C   UNL     1      46.607   2.757   7.171  0.00  0.00    +0.000 C 
ATOM      3  O   UNL     1      47.002   1.624   6.928  0.00  0.00    +0.000 OA
ATOM     11  H   UNL     1      47.747   3.649   5.751  0.00  0.00    +0.000 HD
ATOM     12  H   UNL     1      46.941   4.775   6.785  0.00  0.00    +0.000 HD
ENDBRANCH   4   2
BRANCH   7   8
ATOM      8  N   UNL     1      42.949   3.966  11.347  0.00  0.00    +0.000 N 
ATOM     13  H   UNL     1      43.031   4.889  11.761  0.00  0.00    +0.000 HD
ATOM     14  H   UNL     1      42.010   3.776  11.011  0.00  0.00    +0.000 HD
ENDBRANCH   7   8
TORSDOF 2
ENDMDL
MODEL 8
REMARK VINA RESULT:    -4.733      5.801      6.139
REMARK INTER + INTRA:          -5.189
REMARK INTER:                  -5.158
REMARK INTRA:                  -0.031
REMARK UNBOUND:                -0.041
REMARK  Name = 
REMARK  2 active torsions:
REMARK  status: ('A' for Active; 'I' for Inactive)
REMARK    1  A    between atoms: C_2  and  C_4
REMARK    2  A    between atoms: C_7  and  N_8
REMARK                            x       y       z     vdW  Elec       q    Type
REMARK                         _______ _______ _______ _____ _____    ______ ____
ROOT
ATOM      4  C   UNL     1      45.780   5.036  13.224  0.00  0.00    +0.000 A 
ATOM      5  C   UNL     1      46.119   6.128  12.420  0.00  0.00    +0.000 A 
ATOM      6  C   UNL     1      45.133   6.766  11.661  0.00  0.00    +0.000 A 
ATOM      7  C   UNL     1      43.816   6.299  11.661  0.00  0.00    +0.000 A 
ATOM      9  C   UNL     1      43.482   5.224  12.491  0.00  0.00    +0.000 A 
ATOM     10  C   UNL     1      44.463   4.574  13.247  0.00  0.00    +0.000 A 
ENDROOT
BRANCH   4   2
ATOM      1  N   UNL     1      47.178   5.041  15.207  0.00  0.00    +0.000 N 
ATOM      2  C   UNL     1      46.786   4.365  14.085  0.00  0.00    +0.000 C 
ATOM      3  O   UNL     1      47.206   3.242  13.835  0.00  0.00    +0.000 OA
ATOM     11  H   UNL     1      47.753   4.525  15.860  0.00  0.00    +0.000 HD
ATOM     12  H   UNL     1      46.645   5.819  15.568  0.00  0.00    +0.000 HD
ENDBRANCH   4   2
BRANCH   7   8
ATOM      8  N   UNL     1      42.811   7.039  11.029  0.00  0.00    +0.000 N 
ATOM     13  H   UNL     1      42.027   7.270  11.631  0.00  0.00    +0.000 HD
ATOM     14  H   UNL     1      43.154   7.845  10.515  0.00  0.00    +0.000 HD
ENDBRANCH   7   8
TORSDOF 2
ENDMDL
MODEL 9
REMARK VINA RESULT:    -4.643      3.708      4.983
REMARK INTER + INTRA:          -5.091
REMARK INTER:                  -5.048
REMARK INTRA:                  -0.043
REMARK UNBOUND:                -0.041
REMARK  Name = 
REMARK  2 active torsions:
REMARK  status: ('A' for Active; 'I' for Inactive)
REMARK    1  A    between atoms: C_2  and  C_4
REMARK    2  A    between atoms: C_7  and  N_8
REMARK                            x       y       z     vdW  Elec       q    Type
REMARK                         _______ _______ _______ _____ _____    ______ ____
ROOT
ATOM      4  C   UNL     1      44.963   4.579  11.066  0.00  0.00    +0.000 A 
ATOM      5  C   UNL     1      45.588   5.790  10.754  0.00  0.00    +0.000 A 
ATOM      6  C   UNL     1      46.320   6.468  11.733  0.00  0.00    +0.000 A 
ATOM      7  C   UNL     1      46.403   5.971  13.037  0.00  0.00    +0.000 A 
ATOM      9  C   UNL     1      45.799   4.745  13.330  0.00  0.00    +0.000 A 
ATOM     10  C   UNL     1      45.056   4.064  12.361  0.00  0.00    +0.000 A 
ENDROOT
BRANCH   4   2
ATOM      1  N   UNL     1      44.117   4.369   8.802  0.00  0.00    +0.000 N 
ATOM      2  C   UNL     1      44.219   3.803  10.043  0.00  0.00    +0.000 C 
ATOM      3  O   UNL     1      43.764   2.691  10.277  0.00  0.00    +0.000 OA
ATOM     11  H   UNL     1      43.735   3.780   8.074  0.00  0.00    +0.000 HD
ATOM     12  H   UNL     1      44.714   5.133   8.520  0.00  0.00    +0.000 HD
ENDBRANCH   4   2
BRANCH   7   8
ATOM      8  N   UNL     1      47.268   6.569  13.960  0.00  0.00    +0.000 N 
ATOM     13  H   UNL     1      47.604   7.485  13.680  0.00  0.00    +0.000 HD
ATOM     14  H   UNL     1      46.922   6.560  14.914  0.00  0.00    +0.000 HD
ENDBRANCH   7   8
TORSDOF 2
ENDMDL
