MODEL 1
REMARK VINA RESULT:    -6.626      0.000      0.000
REMARK INTER + INTRA:         -14.672
REMARK INTER:                 -12.436
REMARK INTRA:                  -2.236
REMARK UNBOUND:                -2.236
REMARK  Name = 
REMARK  17 active torsions:
REMARK  status: ('A' for Active; 'I' for Inactive)
REMARK    1  A    between atoms: C_1  and  C_2
REMARK    2  A    between atoms: C_2  and  C_3
REMARK    3  A    between atoms: C_3  and  C_4
REMARK    4  A    between atoms: C_4  and  C_5
REMARK    5  A    between atoms: C_5  and  C_6
REMARK    6  A    between atoms: C_6  and  C_7
REMARK    7  A    between atoms: C_7  and  C_8
REMARK    8  A    between atoms: C_8  and  N_9
REMARK    9  A    between atoms: N_9  and  C_10
REMARK   10  A    between atoms: C_10  and  C_11
REMARK   11  A    between atoms: C_14  and  C_15
REMARK   12  A    between atoms: C_15  and  N_16
REMARK   13  A    between atoms: C_17  and  C_19
REMARK   14  A    between atoms: C_26  and  O_27
REMARK   15  A    between atoms: O_27  and  C_28
REMARK   16  A    between atoms: C_28  and  C_29
REMARK   17  A    between atoms: C_29  and  C_30
REMARK                            x       y       z     vdW  Elec       q    Type
REMARK                         _______ _______ _______ _____ _____    ______ ____
ROOT
ATOM     15  C   UNL     1      48.657   6.711  12.996  0.00  0.00    +0.000 C 
ENDROOT
BRANCH  15  14
ATOM     11  C   UNL     1      44.572   5.265  12.905  0.00  0.00    +0.000 A 
ATOM     12  C   UNL     1      44.926   6.464  12.268  0.00  0.00    +0.000 A 
ATOM     13  C   UNL     1      46.246   6.924  12.289  0.00  0.00    +0.000 A 
ATOM     14  C   UNL     1      47.241   6.198  12.954  0.00  0.00    +0.000 A 
ATOM     32  C   UNL     1      46.886   5.012  13.610  0.00  0.00    +0.000 A 
ATOM     33  C   UNL     1      45.566   4.548  13.582  0.00  0.00    +0.000 A 
BRANCH  11  10
ATOM     10  C   UNL     1      43.142   4.770  12.876  0.00  0.00    +0.000 C 
BRANCH  10   9
ATOM      9  N   UNL     1      42.803   4.205  11.572  0.00  0.00    +0.000 NA
ATOM     34  H   UNL     1      41.791   4.162  11.474  0.00  0.00    +0.000 HD
BRANCH   9   8
ATOM      8  C   UNL     1      43.363   2.867  11.414  0.00  0.00    +0.000 C 
BRANCH   8   7
ATOM      7  C   UNL     1      44.340   2.868  10.239  0.00  0.00    +0.000 C 
BRANCH   7   6
ATOM      6  C   UNL     1      44.266   4.190   9.478  0.00  0.00    +0.000 C 
BRANCH   6   5
ATOM      5  C   UNL     1      45.481   4.375   8.573  0.00  0.00    +0.000 C 
BRANCH   5   4
ATOM      4  C   UNL     1      45.544   3.272   7.520  0.00  0.00    +0.000 C 
BRANCH   4   3
ATOM      3  C   UNL     1      46.881   3.292   6.782  0.00  0.00    +0.000 C 
BRANCH   3   2
ATOM      1  C   UNL     1      46.742   0.933   7.637  0.00  0.00    +0.000 C 
ATOM      2  C   UNL     1      47.609   1.959   6.926  0.00  0.00    +0.000 C 
ENDBRANCH   3   2
ENDBRANCH   4   3
ENDBRANCH   5   4
ENDBRANCH   6   5
ENDBRANCH   7   6
ENDBRANCH   8   7
ENDBRANCH   9   8
ENDBRANCH  10   9
ENDBRANCH  11  10
ENDBRANCH  15  14
BRANCH  15  16
ATOM     16  N   UNL     1      49.046   7.053  14.341  0.00  0.00    +0.000 N 
ATOM     17  C   UNL     1      48.612   8.208  14.941  0.00  0.00    +0.000 C 
ATOM     18  O   UNL     1      47.787   8.948  14.413  0.00  0.00    +0.000 OA
ATOM     35  H   UNL     1      49.818   6.545  14.747  0.00  0.00    +0.000 HD
BRANCH  17  19
ATOM     19  C   UNL     1      49.140   8.479  16.286  0.00  0.00    +0.000 A 
ATOM     20  C   UNL     1      49.769   9.687  16.546  0.00  0.00    +0.000 A 
ATOM     21  S   UNL     1      50.252   9.865  18.169  0.00  0.00    +0.000 S 
ATOM     22  C   UNL     1      49.695   8.306  18.557  0.00  0.00    +0.000 A 
ATOM     23  N   UNL     1      49.825   7.839  19.812  0.00  0.00    +0.000 NA
ATOM     24  C   UNL     1      49.374   6.592  19.945  0.00  0.00    +0.000 A 
ATOM     25  N   UNL     1      48.836   5.818  18.995  0.00  0.00    +0.000 NA
ATOM     26  C   UNL     1      48.705   6.338  17.761  0.00  0.00    +0.000 A 
ATOM     31  C   UNL     1      49.136   7.642  17.475  0.00  0.00    +0.000 A 
BRANCH  26  27
ATOM     27  O   UNL     1      48.209   5.547  16.752  0.00  0.00    +0.000 OA
BRANCH  27  28
ATOM     28  C   UNL     1      47.396   4.450  17.171  0.00  0.00    +0.000 C 
BRANCH  28  29
ATOM     29  C   UNL     1      47.897   3.189  16.481  0.00  0.00    +0.000 C 
ATOM     30  C   UNL     1      49.141   2.643  17.157  0.00  0.00    +0.000 C 
ENDBRANCH  28  29
ENDBRANCH  27  28
ENDBRANCH  26  27
ENDBRANCH  17  19
ENDBRANCH  15  16
TORSDOF 15
ENDMDL
MODEL 2
REMARK VINA RESULT:    -6.288      2.015      2.656
REMARK INTER + INTRA:         -14.039
REMARK INTER:                 -11.604
REMARK INTRA:                  -2.435
REMARK UNBOUND:                -2.236
REMARK  Name = 
REMARK  17 active torsions:
REMARK  status: ('A' for Active; 'I' for Inactive)
REMARK    1  A    between atoms: C_1  and  C_2
REMARK    2  A    between atoms: C_2  and  C_3
REMARK    3  A    between atoms: C_3  and  C_4
REMARK    4  A    between atoms: C_4  and  C_5
REMARK    5  A    between atoms: C_5  and  C_6
REMARK    6  A    between atoms: C_6  and  C_7
REMARK    7  A    between atoms: C_7  and  C_8
REMARK    8  A    between atoms: C_8  and  N_9
REMARK    9  A    between atoms: N_9  and  C_10
REMARK   10  A    between atoms: C_10  and  C_11
REMARK   11  A    between atoms: C_14  and  C_15
REMARK   12  A    between atoms: C_15  and  N_16
REMARK   13  A    between atoms: C_17  and  C_19
REMARK   14  A    between atoms: C_26  and  O_27
REMARK   15  A    between atoms: O_27  and  C_28
REMARK   16  A    between atoms: C_28  and  C_29
REMARK   17  A    between atoms: C_29  and  C_30
REMARK                            x       y       z     vdW  Elec       q    Type
REMARK                         _______ _______ _______ _____ _____    ______ ____
ROOT
ATOM     15  C   UNL     1      49.455   8.329  12.986  0.00  0.00    +0.000 C 
ENDROOT
BRANCH  15  14
ATOM     11  C   UNL     1      45.395   7.250  11.916  0.00  0.00    +0.000 A 
ATOM     12  C   UNL     1      46.491   6.659  11.271  0.00  0.00    +0.000 A 
ATOM     13  C   UNL     1      47.800   7.000  11.624  0.00  0.00    +0.000 A 
ATOM     14  C   UNL     1      48.043   7.945  12.627  0.00  0.00    +0.000 A 
ATOM     32  C   UNL     1      46.949   8.553  13.258  0.00  0.00    +0.000 A 
ATOM     33  C   UNL     1      45.640   8.206  12.910  0.00  0.00    +0.000 A 
BRANCH  11  10
ATOM     10  C   UNL     1      43.980   6.875  11.533  0.00  0.00    +0.000 C 
BRANCH  10   9
ATOM      9  N   UNL     1      43.960   5.690  10.677  0.00  0.00    +0.000 NA
ATOM     34  H   UNL     1      43.644   5.950   9.745  0.00  0.00    +0.000 HD
BRANCH   9   8
ATOM      8  C   UNL     1      43.077   4.663  11.219  0.00  0.00    +0.000 C 
BRANCH   8   7
ATOM      7  C   UNL     1      43.731   3.293  11.037  0.00  0.00    +0.000 C 
BRANCH   7   6
ATOM      6  C   UNL     1      44.792   3.345   9.940  0.00  0.00    +0.000 C 
BRANCH   6   5
ATOM      5  C   UNL     1      44.910   2.003   9.223  0.00  0.00    +0.000 C 
BRANCH   5   4
ATOM      4  C   UNL     1      46.006   2.051   8.161  0.00  0.00    +0.000 C 
BRANCH   4   3
ATOM      3  C   UNL     1      45.851   3.279   7.267  0.00  0.00    +0.000 C 
BRANCH   3   2
ATOM      1  C   UNL     1      47.804   2.079   6.237  0.00  0.00    +0.000 C 
ATOM      2  C   UNL     1      46.820   3.227   6.089  0.00  0.00    +0.000 C 
ENDBRANCH   3   2
ENDBRANCH   4   3
ENDBRANCH   5   4
ENDBRANCH   6   5
ENDBRANCH   7   6
ENDBRANCH   8   7
ENDBRANCH   9   8
ENDBRANCH  10   9
ENDBRANCH  11  10
ENDBRANCH  15  14
BRANCH  15  16
ATOM     16  N   UNL     1      49.992   7.448  13.993  0.00  0.00    +0.000 N 
ATOM     17  C   UNL     1      50.200   7.873  15.281  0.00  0.00    +0.000 C 
ATOM     18  O   UNL     1      49.836   8.979  15.671  0.00  0.00    +0.000 OA
ATOM     35  H   UNL     1      50.421   6.589  13.681  0.00  0.00    +0.000 HD
BRANCH  17  19
ATOM     19  C   UNL     1      50.822   6.902  16.193  0.00  0.00    +0.000 A 
ATOM     20  C   UNL     1      52.088   7.152  16.701  0.00  0.00    +0.000 A 
ATOM     21  S   UNL     1      52.626   5.964  17.796  0.00  0.00    +0.000 S 
ATOM     22  C   UNL     1      51.212   5.046  17.572  0.00  0.00    +0.000 A 
ATOM     23  N   UNL     1      51.054   3.884  18.231  0.00  0.00    +0.000 NA
ATOM     24  C   UNL     1      49.912   3.270  17.920  0.00  0.00    +0.000 A 
ATOM     25  N   UNL     1      48.972   3.688  17.065  0.00  0.00    +0.000 NA
ATOM     26  C   UNL     1      49.165   4.868  16.448  0.00  0.00    +0.000 A 
ATOM     31  C   UNL     1      50.322   5.627  16.680  0.00  0.00    +0.000 A 
BRANCH  26  27
ATOM     27  O   UNL     1      48.243   5.296  15.522  0.00  0.00    +0.000 OA
BRANCH  27  28
ATOM     28  C   UNL     1      47.053   4.513  15.430  0.00  0.00    +0.000 C 
BRANCH  28  29
ATOM     29  C   UNL     1      46.465   4.694  14.037  0.00  0.00    +0.000 C 
ATOM     30  C   UNL     1      46.527   3.407  13.236  0.00  0.00    +0.000 C 
ENDBRANCH  28  29
ENDBRANCH  27  28
ENDBRANCH  26  27
ENDBRANCH  17  19
ENDBRANCH  15  16
TORSDOF 15
ENDMDL
MODEL 3
REMARK VINA RESULT:    -6.257      2.650      3.821
REMARK INTER + INTRA:         -13.980
REMARK INTER:                 -11.971
REMARK INTRA:                  -2.009
REMARK UNBOUND:                -2.236
REMARK  Name = 
REMARK  17 active torsions:
REMARK  status: ('A' for Active; 'I' for Inactive)
REMARK    1  A    between atoms: C_1  and  C_2
REMARK    2  A    between atoms: C_2  and  C_3
REMARK    3  A    between atoms: C_3  and  C_4
REMARK    4  A    between atoms: C_4  and  C_5
REMARK    5  A    between atoms: C_5  and  C_6
REMARK    6  A    between atoms: C_6  and  C_7
REMARK    7  A    between atoms: C_7  and  C_8
REMARK    8  A    between atoms: C_8  and  N_9
REMARK    9  A    between atoms: N_9  and  C_10
REMARK   10  A    between atoms: C_10  and  C_11
REMARK   11  A    between atoms: C_14  and  C_15
REMARK   12  A    between atoms: C_15  and  N_16
REMARK   13  A    between atoms: C_17  and  C_19
REMARK   14  A    between atoms: C_26  and  O_27
REMARK   15  A    between atoms: O_27  and  C_28
REMARK   16  A    between atoms: C_28  and  C_29
REMARK   17  A    between atoms: C_29  and  C_30
REMARK                            x       y       z     vdW  Elec       q    Type
REMARK                         _______ _______ _______ _____ _____    ______ ____
ROOT
ATOM     15  C   UNL     1      49.854   7.471  15.801  0.00  0.00    +0.000 C 
ENDROOT
BRANCH  15  14
ATOM     11  C   UNL     1      47.072   6.195  12.730  0.00  0.00    +0.000 A 
ATOM     12  C   UNL     1      47.126   5.542  13.971  0.00  0.00    +0.000 A 
ATOM     13  C   UNL     1      48.017   5.960  14.964  0.00  0.00    +0.000 A 
ATOM     14  C   UNL     1      48.879   7.040  14.737  0.00  0.00    +0.000 A 
ATOM     32  C   UNL     1      48.843   7.680  13.491  0.00  0.00    +0.000 A 
ATOM     33  C   UNL     1      47.946   7.266  12.500  0.00  0.00    +0.000 A 
BRANCH  11  10
ATOM     10  C   UNL     1      46.105   5.740  11.661  0.00  0.00    +0.000 C 
BRANCH  10   9
ATOM      9  N   UNL     1      45.070   4.872  12.217  0.00  0.00    +0.000 NA
ATOM     34  H   UNL     1      45.349   3.899  12.110  0.00  0.00    +0.000 HD
BRANCH   9   8
ATOM      8  C   UNL     1      43.789   5.084  11.552  0.00  0.00    +0.000 C 
BRANCH   8   7
ATOM      7  C   UNL     1      43.825   4.427  10.172  0.00  0.00    +0.000 C 
BRANCH   7   6
ATOM      6  C   UNL     1      44.145   2.939  10.292  0.00  0.00    +0.000 C 
BRANCH   6   5
ATOM      5  C   UNL     1      44.883   2.431   9.057  0.00  0.00    +0.000 C 
BRANCH   5   4
ATOM      4  C   UNL     1      44.974   3.522   7.994  0.00  0.00    +0.000 C 
BRANCH   4   3
ATOM      3  C   UNL     1      46.374   3.585   7.388  0.00  0.00    +0.000 C 
BRANCH   3   2
ATOM      1  C   UNL     1      47.872   2.181   5.939  0.00  0.00    +0.000 C 
ATOM      2  C   UNL     1      46.923   2.186   7.127  0.00  0.00    +0.000 C 
ENDBRANCH   3   2
ENDBRANCH   4   3
ENDBRANCH   5   4
ENDBRANCH   6   5
ENDBRANCH   7   6
ENDBRANCH   8   7
ENDBRANCH   9   8
ENDBRANCH  10   9
ENDBRANCH  11  10
ENDBRANCH  15  14
BRANCH  15  16
ATOM     16  N   UNL     1      50.676   6.367  16.230  0.00  0.00    +0.000 N 
ATOM     17  C   UNL     1      50.944   6.146  17.558  0.00  0.00    +0.000 C 
ATOM     18  O   UNL     1      50.411   6.801  18.449  0.00  0.00    +0.000 OA
ATOM     35  H   UNL     1      51.231   5.898  15.530  0.00  0.00    +0.000 HD
BRANCH  17  19
ATOM     19  C   UNL     1      51.855   5.033  17.860  0.00  0.00    +0.000 A 
ATOM     20  C   UNL     1      53.128   5.299  18.340  0.00  0.00    +0.000 A 
ATOM     21  S   UNL     1      54.022   3.897  18.707  0.00  0.00    +0.000 S 
ATOM     22  C   UNL     1      52.759   2.892  18.172  0.00  0.00    +0.000 A 
ATOM     23  N   UNL     1      52.901   1.555  18.213  0.00  0.00    +0.000 NA
ATOM     24  C   UNL     1      51.840   0.912  17.726  0.00  0.00    +0.000 A 
ATOM     25  N   UNL     1      50.718   1.451  17.235  0.00  0.00    +0.000 NA
ATOM     26  C   UNL     1      50.614   2.793  17.236  0.00  0.00    +0.000 A 
ATOM     31  C   UNL     1      51.654   3.600  17.721  0.00  0.00    +0.000 A 
BRANCH  26  27
ATOM     27  O   UNL     1      49.498   3.377  16.684  0.00  0.00    +0.000 OA
BRANCH  27  28
ATOM     28  C   UNL     1      48.339   2.546  16.614  0.00  0.00    +0.000 C 
BRANCH  28  29
ATOM     29  C   UNL     1      47.196   3.255  17.328  0.00  0.00    +0.000 C 
ATOM     30  C   UNL     1      47.693   4.445  18.126  0.00  0.00    +0.000 C 
ENDBRANCH  28  29
ENDBRANCH  27  28
ENDBRANCH  26  27
ENDBRANCH  17  19
ENDBRANCH  15  16
TORSDOF 15
ENDMDL
MODEL 4
REMARK VINA RESULT:    -6.243      1.194      1.368
REMARK INTER + INTRA:         -13.954
REMARK INTER:                 -12.375
REMARK INTRA:                  -1.579
REMARK UNBOUND:                -2.236
REMARK  Name = 
REMARK  17 active torsions:
REMARK  status: ('A' for Active; 'I' for Inactive)
REMARK    1  A    between atoms: C_1  and  C_2
REMARK    2  A    between atoms: C_2  and  C_3
REMARK    3  A    between atoms: C_3  and  C_4
REMARK    4  A    between atoms: C_4  and  C_5
REMARK    5  A    between atoms: C_5  and  C_6
REMARK    6  A    between atoms: C_6  and  C_7
REMARK    7  A    between atoms: C_7  and  C_8
REMARK    8  A    between atoms: C_8  and  N_9
REMARK    9  A    between atoms: N_9  and  C_10
REMARK   10  A    between atoms: C_10  and  C_11
REMARK   11  A    between atoms: C_14  and  C_15
REMARK   12  A    between atoms: C_15  and  N_16
REMARK   13  A    between atoms: C_17  and  C_19
REMARK   14  A    between atoms: C_26  and  O_27
REMARK   15  A    between atoms: O_27  and  C_28
REMARK   16  A    between atoms: C_28  and  C_29
REMARK   17  A    between atoms: C_29  and  C_30
REMARK                            x       y       z     vdW  Elec       q    Type
REMARK                         _______ _______ _______ _____ _____    ______ ____
ROOT
ATOM     15  C   UNL     1      47.957   7.751  13.567  0.00  0.00    +0.000 C 
ENDROOT
BRANCH  15  14
ATOM     11  C   UNL     1      44.709   4.949  12.940  0.00  0.00    +0.000 A 
ATOM     12  C   UNL     1      44.559   6.309  12.627  0.00  0.00    +0.000 A 
ATOM     13  C   UNL     1      45.610   7.209  12.820  0.00  0.00    +0.000 A 
ATOM     14  C   UNL     1      46.836   6.772  13.336  0.00  0.00    +0.000 A 
ATOM     32  C   UNL     1      46.981   5.419  13.671  0.00  0.00    +0.000 A 
ATOM     33  C   UNL     1      45.931   4.516  13.470  0.00  0.00    +0.000 A 
BRANCH  11  10
ATOM     10  C   UNL     1      43.569   3.978  12.726  0.00  0.00    +0.000 C 
BRANCH  10   9
ATOM      9  N   UNL     1      42.820   4.299  11.514  0.00  0.00    +0.000 NA
ATOM     34  H   UNL     1      41.997   3.704  11.455  0.00  0.00    +0.000 HD
BRANCH   9   8
ATOM      8  C   UNL     1      43.639   4.112  10.321  0.00  0.00    +0.000 C 
BRANCH   8   7
ATOM      7  C   UNL     1      44.242   2.708  10.343  0.00  0.00    +0.000 C 
BRANCH   7   6
ATOM      6  C   UNL     1      44.579   2.245   8.928  0.00  0.00    +0.000 C 
BRANCH   6   5
ATOM      5  C   UNL     1      44.822   3.432   8.001  0.00  0.00    +0.000 C 
BRANCH   5   4
ATOM      4  C   UNL     1      46.303   3.552   7.651  0.00  0.00    +0.000 C 
BRANCH   4   3
ATOM      3  C   UNL     1      46.955   2.176   7.540  0.00  0.00    +0.000 C 
BRANCH   3   2
ATOM      1  C   UNL     1      47.059   2.951   5.152  0.00  0.00    +0.000 C 
ATOM      2  C   UNL     1      47.633   1.996   6.185  0.00  0.00    +0.000 C 
ENDBRANCH   3   2
ENDBRANCH   4   3
ENDBRANCH   5   4
ENDBRANCH   6   5
ENDBRANCH   7   6
ENDBRANCH   8   7
ENDBRANCH   9   8
ENDBRANCH  10   9
ENDBRANCH  11  10
ENDBRANCH  15  14
BRANCH  15  16
ATOM     16  N   UNL     1      48.019   8.154  14.949  0.00  0.00    +0.000 N 
ATOM     17  C   UNL     1      48.949   7.626  15.809  0.00  0.00    +0.000 C 
ATOM     18  O   UNL     1      49.842   6.875  15.425  0.00  0.00    +0.000 OA
ATOM     35  H   UNL     1      47.229   8.657  15.325  0.00  0.00    +0.000 HD
BRANCH  17  19
ATOM     19  C   UNL     1      48.860   8.062  17.210  0.00  0.00    +0.000 A 
ATOM     20  C   UNL     1      49.117   9.385  17.534  0.00  0.00    +0.000 A 
ATOM     21  S   UNL     1      48.897   9.735  19.187  0.00  0.00    +0.000 S 
ATOM     22  C   UNL     1      48.518   8.112  19.529  0.00  0.00    +0.000 A 
ATOM     23  N   UNL     1      48.235   7.741  20.791  0.00  0.00    +0.000 NA
ATOM     24  C   UNL     1      47.996   6.434  20.899  0.00  0.00    +0.000 A 
ATOM     25  N   UNL     1      48.011   5.522  19.920  0.00  0.00    +0.000 NA
ATOM     26  C   UNL     1      48.277   5.947  18.671  0.00  0.00    +0.000 A 
ATOM     31  C   UNL     1      48.546   7.298  18.407  0.00  0.00    +0.000 A 
BRANCH  26  27
ATOM     27  O   UNL     1      48.356   5.024  17.655  0.00  0.00    +0.000 OA
BRANCH  27  28
ATOM     28  C   UNL     1      47.138   4.346  17.342  0.00  0.00    +0.000 C 
BRANCH  28  29
ATOM     29  C   UNL     1      47.381   2.847  17.454  0.00  0.00    +0.000 C 
ATOM     30  C   UNL     1      48.629   2.429  16.699  0.00  0.00    +0.000 C 
ENDBRANCH  28  29
ENDBRANCH  27  28
ENDBRANCH  26  27
ENDBRANCH  17  19
ENDBRANCH  15  16
TORSDOF 15
ENDMDL
MODEL 5
REMARK VINA RESULT:    -6.218      2.108      2.287
REMARK INTER + INTRA:         -13.907
REMARK INTER:                 -11.853
REMARK INTRA:                  -2.054
REMARK UNBOUND:                -2.236
REMARK  Name = 
REMARK  17 active torsions:
REMARK  status: ('A' for Active; 'I' for Inactive)
REMARK    1  A    between atoms: C_1  and  C_2
REMARK    2  A    between atoms: C_2  and  C_3
REMARK    3  A    between atoms: C_3  and  C_4
REMARK    4  A    between atoms: C_4  and  C_5
REMARK    5  A    between atoms: C_5  and  C_6
REMARK    6  A    between atoms: C_6  and  C_7
REMARK    7  A    between atoms: C_7  and  C_8
REMARK    8  A    between atoms: C_8  and  N_9
REMARK    9  A    between atoms: N_9  and  C_10
REMARK   10  A    between atoms: C_10  and  C_11
REMARK   11  A    between atoms: C_14  and  C_15
REMARK   12  A    between atoms: C_15  and  N_16
REMARK   13  A    between atoms: C_17  and  C_19
REMARK   14  A    between atoms: C_26  and  O_27
REMARK   15  A    between atoms: O_27  and  C_28
REMARK   16  A    between atoms: C_28  and  C_29
REMARK   17  A    between atoms: C_29  and  C_30
REMARK                            x       y       z     vdW  Elec       q    Type
REMARK                         _______ _______ _______ _____ _____    ______ ____
ROOT
ATOM     15  C   UNL     1      49.087   8.018  13.038  0.00  0.00    +0.000 C 
ENDROOT
BRANCH  15  14
ATOM     11  C   UNL     1      45.334   5.851  13.106  0.00  0.00    +0.000 A 
ATOM     12  C   UNL     1      45.401   7.159  12.604  0.00  0.00    +0.000 A 
ATOM     13  C   UNL     1      46.614   7.853  12.573  0.00  0.00    +0.000 A 
ATOM     14  C   UNL     1      47.788   7.257  13.050  0.00  0.00    +0.000 A 
ATOM     32  C   UNL     1      47.718   5.958  13.573  0.00  0.00    +0.000 A 
ATOM     33  C   UNL     1      46.506   5.261  13.596  0.00  0.00    +0.000 A 
BRANCH  11  10
ATOM     10  C   UNL     1      44.019   5.103  13.134  0.00  0.00    +0.000 C 
BRANCH  10   9
ATOM      9  N   UNL     1      44.229   3.659  13.059  0.00  0.00    +0.000 NA
ATOM     34  H   UNL     1      45.226   3.458  13.109  0.00  0.00    +0.000 HD
BRANCH   9   8
ATOM      8  C   UNL     1      43.685   3.109  11.822  0.00  0.00    +0.000 C 
BRANCH   8   7
ATOM      7  C   UNL     1      44.796   3.041  10.773  0.00  0.00    +0.000 C 
BRANCH   7   6
ATOM      6  C   UNL     1      44.425   3.865   9.542  0.00  0.00    +0.000 C 
BRANCH   6   5
ATOM      5  C   UNL     1      44.820   3.144   8.257  0.00  0.00    +0.000 C 
BRANCH   5   4
ATOM      4  C   UNL     1      45.709   1.941   8.561  0.00  0.00    +0.000 C 
BRANCH   4   3
ATOM      3  C   UNL     1      46.804   1.786   7.510  0.00  0.00    +0.000 C 
BRANCH   3   2
ATOM      1  C   UNL     1      47.578   2.618   5.268  0.00  0.00    +0.000 C 
ATOM      2  C   UNL     1      46.790   2.951   6.525  0.00  0.00    +0.000 C 
ENDBRANCH   3   2
ENDBRANCH   4   3
ENDBRANCH   5   4
ENDBRANCH   6   5
ENDBRANCH   7   6
ENDBRANCH   8   7
ENDBRANCH   9   8
ENDBRANCH  10   9
ENDBRANCH  11  10
ENDBRANCH  15  14
BRANCH  15  16
ATOM     16  N   UNL     1      50.083   7.359  13.845  0.00  0.00    +0.000 N 
ATOM     17  C   UNL     1      50.317   7.733  15.144  0.00  0.00    +0.000 C 
ATOM     18  O   UNL     1      49.620   8.564  15.720  0.00  0.00    +0.000 OA
ATOM     35  H   UNL     1      50.755   6.774  13.371  0.00  0.00    +0.000 HD
BRANCH  17  19
ATOM     19  C   UNL     1      51.409   7.033  15.835  0.00  0.00    +0.000 A 
ATOM     20  C   UNL     1      52.725   7.380  15.568  0.00  0.00    +0.000 A 
ATOM     21  S   UNL     1      53.858   6.524  16.508  0.00  0.00    +0.000 S 
ATOM     22  C   UNL     1      52.627   5.616  17.252  0.00  0.00    +0.000 A 
ATOM     23  N   UNL     1      52.942   4.682  18.167  0.00  0.00    +0.000 NA
ATOM     24  C   UNL     1      51.871   4.035  18.628  0.00  0.00    +0.000 A 
ATOM     25  N   UNL     1      50.594   4.227  18.279  0.00  0.00    +0.000 NA
ATOM     26  C   UNL     1      50.328   5.189  17.377  0.00  0.00    +0.000 A 
ATOM     31  C   UNL     1      51.357   5.952  16.807  0.00  0.00    +0.000 A 
BRANCH  26  27
ATOM     27  O   UNL     1      49.031   5.370  16.957  0.00  0.00    +0.000 OA
BRANCH  27  28
ATOM     28  C   UNL     1      48.021   4.932  17.867  0.00  0.00    +0.000 C 
BRANCH  28  29
ATOM     29  C   UNL     1      47.088   3.983  17.127  0.00  0.00    +0.000 C 
ATOM     30  C   UNL     1      47.859   3.022  16.243  0.00  0.00    +0.000 C 
ENDBRANCH  28  29
ENDBRANCH  27  28
ENDBRANCH  26  27
ENDBRANCH  17  19
ENDBRANCH  15  16
TORSDOF 15
ENDMDL
MODEL 6
REMARK VINA RESULT:    -6.207      1.457      1.942
REMARK INTER + INTRA:         -13.887
REMARK INTER:                 -11.918
REMARK INTRA:                  -1.969
REMARK UNBOUND:                -2.236
REMARK  Name = 
REMARK  17 active torsions:
REMARK  status: ('A' for Active; 'I' for Inactive)
REMARK    1  A    between atoms: C_1  and  C_2
REMARK    2  A    between atoms: C_2  and  C_3
REMARK    3  A    between atoms: C_3  and  C_4
REMARK    4  A    between atoms: C_4  and  C_5
REMARK    5  A    between atoms: C_5  and  C_6
REMARK    6  A    between atoms: C_6  and  C_7
REMARK    7  A    between atoms: C_7  and  C_8
REMARK    8  A    between atoms: C_8  and  N_9
REMARK    9  A    between atoms: N_9  and  C_10
REMARK   10  A    between atoms: C_10  and  C_11
REMARK   11  A    between atoms: C_14  and  C_15
REMARK   12  A    between atoms: C_15  and  N_16
REMARK   13  A    between atoms: C_17  and  C_19
REMARK   14  A    between atoms: C_26  and  O_27
REMARK   15  A    between atoms: O_27  and  C_28
REMARK   16  A    between atoms: C_28  and  C_29
REMARK   17  A    between atoms: C_29  and  C_30
REMARK                            x       y       z     vdW  Elec       q    Type
REMARK                         _______ _______ _______ _____ _____    ______ ____
ROOT
ATOM     15  C   UNL     1      48.709   7.945  13.460  0.00  0.00    +0.000 C 
ENDROOT
BRANCH  15  14
ATOM     11  C   UNL     1      44.826   7.084  11.737  0.00  0.00    +0.000 A 
ATOM     12  C   UNL     1      44.992   8.137  12.649  0.00  0.00    +0.000 A 
ATOM     13  C   UNL     1      46.247   8.420  13.197  0.00  0.00    +0.000 A 
ATOM     14  C   UNL     1      47.364   7.652  12.848  0.00  0.00    +0.000 A 
ATOM     32  C   UNL     1      47.196   6.586  11.955  0.00  0.00    +0.000 A 
ATOM     33  C   UNL     1      45.942   6.308  11.401  0.00  0.00    +0.000 A 
BRANCH  11  10
ATOM     10  C   UNL     1      43.466   6.785  11.145  0.00  0.00    +0.000 C 
BRANCH  10   9
ATOM      9  N   UNL     1      43.453   5.484  10.481  0.00  0.00    +0.000 NA
ATOM     34  H   UNL     1      42.858   5.530   9.656  0.00  0.00    +0.000 HD
BRANCH   9   8
ATOM      8  C   UNL     1      42.962   4.439  11.373  0.00  0.00    +0.000 C 
BRANCH   8   7
ATOM      7  C   UNL     1      43.773   3.164  11.147  0.00  0.00    +0.000 C 
BRANCH   7   6
ATOM      6  C   UNL     1      44.636   3.290   9.894  0.00  0.00    +0.000 C 
BRANCH   6   5
ATOM      5  C   UNL     1      44.719   1.964   9.144  0.00  0.00    +0.000 C 
BRANCH   5   4
ATOM      4  C   UNL     1      45.951   1.926   8.244  0.00  0.00    +0.000 C 
BRANCH   4   3
ATOM      3  C   UNL     1      46.141   3.255   7.516  0.00  0.00    +0.000 C 
BRANCH   3   2
ATOM      1  C   UNL     1      47.900   2.153   6.099  0.00  0.00    +0.000 C 
ATOM      2  C   UNL     1      46.663   3.036   6.099  0.00  0.00    +0.000 C 
ENDBRANCH   3   2
ENDBRANCH   4   3
ENDBRANCH   5   4
ENDBRANCH   6   5
ENDBRANCH   7   6
ENDBRANCH   8   7
ENDBRANCH   9   8
ENDBRANCH  10   9
ENDBRANCH  11  10
ENDBRANCH  15  14
BRANCH  15  16
ATOM     16  N   UNL     1      48.613   8.067  14.893  0.00  0.00    +0.000 N 
ATOM     17  C   UNL     1      49.375   7.293  15.732  0.00  0.00    +0.000 C 
ATOM     18  O   UNL     1      50.253   6.545  15.312  0.00  0.00    +0.000 OA
ATOM     35  H   UNL     1      47.819   8.566  15.267  0.00  0.00    +0.000 HD
BRANCH  17  19
ATOM     19  C   UNL     1      49.129   7.460  17.172  0.00  0.00    +0.000 A 
ATOM     20  C   UNL     1      49.056   8.734  17.712  0.00  0.00    +0.000 A 
ATOM     21  S   UNL     1      48.692   8.747  19.376  0.00  0.00    +0.000 S 
ATOM     22  C   UNL     1      48.689   7.047  19.437  0.00  0.00    +0.000 A 
ATOM     23  N   UNL     1      48.449   6.417  20.602  0.00  0.00    +0.000 NA
ATOM     24  C   UNL     1      48.517   5.091  20.491  0.00  0.00    +0.000 A 
ATOM     25  N   UNL     1      48.786   4.381  19.389  0.00  0.00    +0.000 NA
ATOM     26  C   UNL     1      48.996   5.056  18.244  0.00  0.00    +0.000 A 
ATOM     31  C   UNL     1      48.953   6.457  18.210  0.00  0.00    +0.000 A 
BRANCH  26  27
ATOM     27  O   UNL     1      49.330   4.356  17.108  0.00  0.00    +0.000 OA
BRANCH  27  28
ATOM     28  C   UNL     1      48.391   3.361  16.698  0.00  0.00    +0.000 C 
BRANCH  28  29
ATOM     29  C   UNL     1      47.085   4.055  16.333  0.00  0.00    +0.000 C 
ATOM     30  C   UNL     1      47.078   4.493  14.880  0.00  0.00    +0.000 C 
ENDBRANCH  28  29
ENDBRANCH  27  28
ENDBRANCH  26  27
ENDBRANCH  17  19
ENDBRANCH  15  16
TORSDOF 15
ENDMDL
MODEL 7
REMARK VINA RESULT:    -5.909      3.068      4.777
REMARK INTER + INTRA:         -13.328
REMARK INTER:                 -11.503
REMARK INTRA:                  -1.824
REMARK UNBOUND:                -2.236
REMARK  Name = 
REMARK  17 active torsions:
REMARK  status: ('A' for Active; 'I' for Inactive)
REMARK    1  A    between atoms: C_1  and  C_2
REMARK    2  A    between atoms: C_2  and  C_3
REMARK    3  A    between atoms: C_3  and  C_4
REMARK    4  A    between atoms: C_4  and  C_5
REMARK    5  A    between atoms: C_5  and  C_6
REMARK    6  A    between atoms: C_6  and  C_7
REMARK    7  A    between atoms: C_7  and  C_8
REMARK    8  A    between atoms: C_8  and  N_9
REMARK    9  A    between atoms: N_9  and  C_10
REMARK   10  A    between atoms: C_10  and  C_11
REMARK   11  A    between atoms: C_14  and  C_15
REMARK   12  A    between atoms: C_15  and  N_16
REMARK   13  A    between atoms: C_17  and  C_19
REMARK   14  A    between atoms: C_26  and  O_27
REMARK   15  A    between atoms: O_27  and  C_28
REMARK   16  A    between atoms: C_28  and  C_29
REMARK   17  A    between atoms: C_29  and  C_30
REMARK                            x       y       z     vdW  Elec       q    Type
REMARK                         _______ _______ _______ _____ _____    ______ ____
ROOT
ATOM     15  C   UNL     1      47.666   3.512  17.221  0.00  0.00    +0.000 C 
ENDROOT
BRANCH  15  14
ATOM     11  C   UNL     1      47.257   5.728  13.518  0.00  0.00    +0.000 A 
ATOM     12  C   UNL     1      46.653   4.472  13.676  0.00  0.00    +0.000 A 
ATOM     13  C   UNL     1      46.777   3.763  14.875  0.00  0.00    +0.000 A 
ATOM     14  C   UNL     1      47.514   4.292  15.941  0.00  0.00    +0.000 A 
ATOM     32  C   UNL     1      48.137   5.536  15.778  0.00  0.00    +0.000 A 
ATOM     33  C   UNL     1      48.006   6.249  14.581  0.00  0.00    +0.000 A 
BRANCH  11  10
ATOM     10  C   UNL     1      47.117   6.493  12.220  0.00  0.00    +0.000 C 
BRANCH  10   9
ATOM      9  N   UNL     1      45.728   6.518  11.767  0.00  0.00    +0.000 NA
ATOM     34  H   UNL     1      45.135   6.072  12.464  0.00  0.00    +0.000 HD
BRANCH   9   8
ATOM      8  C   UNL     1      45.576   5.830  10.490  0.00  0.00    +0.000 C 
BRANCH   8   7
ATOM      7  C   UNL     1      44.469   4.783  10.612  0.00  0.00    +0.000 C 
BRANCH   7   6
ATOM      6  C   UNL     1      45.060   3.376  10.640  0.00  0.00    +0.000 C 
BRANCH   6   5
ATOM      5  C   UNL     1      44.491   2.517   9.514  0.00  0.00    +0.000 C 
BRANCH   5   4
ATOM      4  C   UNL     1      45.581   2.150   8.510  0.00  0.00    +0.000 C 
BRANCH   4   3
ATOM      3  C   UNL     1      45.871   3.313   7.565  0.00  0.00    +0.000 C 
BRANCH   3   2
ATOM      1  C   UNL     1      47.798   1.872   6.838  0.00  0.00    +0.000 C 
ATOM      2  C   UNL     1      46.738   2.865   6.391  0.00  0.00    +0.000 C 
ENDBRANCH   3   2
ENDBRANCH   4   3
ENDBRANCH   5   4
ENDBRANCH   6   5
ENDBRANCH   7   6
ENDBRANCH   8   7
ENDBRANCH   9   8
ENDBRANCH  10   9
ENDBRANCH  11  10
ENDBRANCH  15  14
BRANCH  15  16
ATOM     16  N   UNL     1      49.056   3.341  17.563  0.00  0.00    +0.000 N 
ATOM     17  C   UNL     1      49.838   2.404  16.937  0.00  0.00    +0.000 C 
ATOM     18  O   UNL     1      49.432   1.746  15.982  0.00  0.00    +0.000 OA
ATOM     35  H   UNL     1      49.382   3.763  18.420  0.00  0.00    +0.000 HD
BRANCH  17  19
ATOM     19  C   UNL     1      51.218   2.276  17.427  0.00  0.00    +0.000 A 
ATOM     20  C   UNL     1      51.765   1.017  17.618  0.00  0.00    +0.000 A 
ATOM     21  S   UNL     1      53.393   1.052  18.118  0.00  0.00    +0.000 S 
ATOM     22  C   UNL     1      53.394   2.753  18.159  0.00  0.00    +0.000 A 
ATOM     23  N   UNL     1      54.506   3.415  18.527  0.00  0.00    +0.000 NA
ATOM     24  C   UNL     1      54.334   4.736  18.543  0.00  0.00    +0.000 A 
ATOM     25  N   UNL     1      53.220   5.414  18.242  0.00  0.00    +0.000 NA
ATOM     26  C   UNL     1      52.141   4.708  17.857  0.00  0.00    +0.000 A 
ATOM     31  C   UNL     1      52.177   3.307  17.792  0.00  0.00    +0.000 A 
BRANCH  26  27
ATOM     27  O   UNL     1      50.966   5.373  17.597  0.00  0.00    +0.000 OA
BRANCH  27  28
ATOM     28  C   UNL     1      50.810   6.630  18.257  0.00  0.00    +0.000 C 
BRANCH  28  29
ATOM     29  C   UNL     1      49.416   6.682  18.868  0.00  0.00    +0.000 C 
ATOM     30  C   UNL     1      49.097   8.064  19.406  0.00  0.00    +0.000 C 
ENDBRANCH  28  29
ENDBRANCH  27  28
ENDBRANCH  26  27
ENDBRANCH  17  19
ENDBRANCH  15  16
TORSDOF 15
ENDMDL
MODEL 8
REMARK VINA RESULT:    -5.701      2.755      8.712
REMARK INTER + INTRA:         -12.937
REMARK INTER:                 -10.092
REMARK INTRA:                  -2.845
REMARK UNBOUND:                -2.236
REMARK  Name = 
REMARK  17 active torsions:
REMARK  status: ('A' for Active; 'I' for Inactive)
REMARK    1  A    between atoms: C_1  and  C_2
REMARK    2  A    between atoms: C_2  and  C_3
REMARK    3  A    between atoms: C_3  and  C_4
REMARK    4  A    between atoms: C_4  and  C_5
REMARK    5  A    between atoms: C_5  and  C_6
REMARK    6  A    between atoms: C_6  and  C_7
REMARK    7  A    between atoms: C_7  and  C_8
REMARK    8  A    between atoms: C_8  and  N_9
REMARK    9  A    between atoms: N_9  and  C_10
REMARK   10  A    between atoms: C_10  and  C_11
REMARK   11  A    between atoms: C_14  and  C_15
REMARK   12  A    between atoms: C_15  and  N_16
REMARK   13  A    between atoms: C_17  and  C_19
REMARK   14  A    between atoms: C_26  and  O_27
REMARK   15  A    between atoms: O_27  and  C_28
REMARK   16  A    between atoms: C_28  and  C_29
REMARK   17  A    between atoms: C_29  and  C_30
REMARK                            x       y       z     vdW  Elec       q    Type
REMARK                         _______ _______ _______ _____ _____    ______ ____
ROOT
ATOM     15  C   UNL     1      47.152   3.302  16.803  0.00  0.00    +0.000 C 
ENDROOT
BRANCH  15  14
ATOM     11  C   UNL     1      51.222   3.521  18.278  0.00  0.00    +0.000 A 
ATOM     12  C   UNL     1      50.246   4.428  18.719  0.00  0.00    +0.000 A 
ATOM     13  C   UNL     1      48.931   4.349  18.251  0.00  0.00    +0.000 A 
ATOM     14  C   UNL     1      48.563   3.366  17.325  0.00  0.00    +0.000 A 
ATOM     32  C   UNL     1      49.542   2.474  16.865  0.00  0.00    +0.000 A 
ATOM     33  C   UNL     1      50.855   2.548  17.340  0.00  0.00    +0.000 A 
BRANCH  11  10
ATOM     10  C   UNL     1      52.643   3.608  18.791  0.00  0.00    +0.000 C 
BRANCH  10   9
ATOM      9  N   UNL     1      53.190   4.951  18.610  0.00  0.00    +0.000 NA
ATOM     34  H   UNL     1      52.503   5.641  18.904  0.00  0.00    +0.000 HD
BRANCH   9   8
ATOM      8  C   UNL     1      53.551   5.190  17.216  0.00  0.00    +0.000 C 
BRANCH   8   7
ATOM      7  C   UNL     1      52.702   6.338  16.669  0.00  0.00    +0.000 C 
BRANCH   7   6
ATOM      6  C   UNL     1      52.624   7.479  17.681  0.00  0.00    +0.000 C 
BRANCH   6   5
ATOM      5  C   UNL     1      51.180   7.922  17.903  0.00  0.00    +0.000 C 
BRANCH   5   4
ATOM      4  C   UNL     1      50.284   7.438  16.766  0.00  0.00    +0.000 C 
BRANCH   4   3
ATOM      3  C   UNL     1      48.851   7.931  16.947  0.00  0.00    +0.000 C 
BRANCH   3   2
ATOM      1  C   UNL     1      47.547   7.653  19.077  0.00  0.00    +0.000 C 
ATOM      2  C   UNL     1      48.624   8.453  18.363  0.00  0.00    +0.000 C 
ENDBRANCH   3   2
ENDBRANCH   4   3
ENDBRANCH   5   4
ENDBRANCH   6   5
ENDBRANCH   7   6
ENDBRANCH   8   7
ENDBRANCH   9   8
ENDBRANCH  10   9
ENDBRANCH  11  10
ENDBRANCH  15  14
BRANCH  15  16
ATOM     16  N   UNL     1      46.873   4.407  15.921  0.00  0.00    +0.000 N 
ATOM     17  C   UNL     1      47.018   4.293  14.561  0.00  0.00    +0.000 C 
ATOM     18  O   UNL     1      47.279   3.223  14.019  0.00  0.00    +0.000 OA
ATOM     35  H   UNL     1      46.789   5.325  16.333  0.00  0.00    +0.000 HD
BRANCH  17  19
ATOM     19  C   UNL     1      46.775   5.513  13.777  0.00  0.00    +0.000 A 
ATOM     20  C   UNL     1      47.727   6.521  13.764  0.00  0.00    +0.000 A 
ATOM     21  S   UNL     1      47.320   7.826  12.749  0.00  0.00    +0.000 S 
ATOM     22  C   UNL     1      45.828   7.114  12.350  0.00  0.00    +0.000 A 
ATOM     23  N   UNL     1      44.985   7.745  11.512  0.00  0.00    +0.000 NA
ATOM     24  C   UNL     1      43.847   7.075  11.329  0.00  0.00    +0.000 A 
ATOM     25  N   UNL     1      43.499   5.903  11.872  0.00  0.00    +0.000 NA
ATOM     26  C   UNL     1      44.386   5.300  12.685  0.00  0.00    +0.000 A 
ATOM     31  C   UNL     1      45.627   5.888  12.968  0.00  0.00    +0.000 A 
BRANCH  26  27
ATOM     27  O   UNL     1      44.033   4.123  13.303  0.00  0.00    +0.000 OA
BRANCH  27  28
ATOM     28  C   UNL     1      43.759   3.026  12.429  0.00  0.00    +0.000 C 
BRANCH  28  29
ATOM     29  C   UNL     1      44.866   2.954  11.387  0.00  0.00    +0.000 C 
ATOM     30  C   UNL     1      44.302   2.811   9.986  0.00  0.00    +0.000 C 
ENDBRANCH  28  29
ENDBRANCH  27  28
ENDBRANCH  26  27
ENDBRANCH  17  19
ENDBRANCH  15  16
TORSDOF 15
ENDMDL
MODEL 9
REMARK VINA RESULT:    -5.552      3.329      8.712
REMARK INTER + INTRA:         -12.657
REMARK INTER:                  -9.579
REMARK INTRA:                  -3.078
REMARK UNBOUND:                -2.236
REMARK  Name = 
REMARK  17 active torsions:
REMARK  status: ('A' for Active; 'I' for Inactive)
REMARK    1  A    between atoms: C_1  and  C_2
REMARK    2  A    between atoms: C_2  and  C_3
REMARK    3  A    between atoms: C_3  and  C_4
REMARK    4  A    between atoms: C_4  and  C_5
REMARK    5  A    between atoms: C_5  and  C_6
REMARK    6  A    between atoms: C_6  and  C_7
REMARK    7  A    between atoms: C_7  and  C_8
REMARK    8  A    between atoms: C_8  and  N_9
REMARK    9  A    between atoms: N_9  and  C_10
REMARK   10  A    between atoms: C_10  and  C_11
REMARK   11  A    between atoms: C_14  and  C_15
REMARK   12  A    between atoms: C_15  and  N_16
REMARK   13  A    between atoms: C_17  and  C_19
REMARK   14  A    between atoms: C_26  and  O_27
REMARK   15  A    between atoms: O_27  and  C_28
REMARK   16  A    between atoms: C_28  and  C_29
REMARK   17  A    between atoms: C_29  and  C_30
REMARK                            x       y       z     vdW  Elec       q    Type
REMARK                         _______ _______ _______ _____ _____    ______ ____
ROOT
ATOM     15  C   UNL     1      47.411   3.857  16.376  0.00  0.00    +0.000 C 
ENDROOT
BRANCH  15  14
ATOM     11  C   UNL     1      49.356   7.043  18.581  0.00  0.00    +0.000 A 
ATOM     12  C   UNL     1      48.562   6.091  19.239  0.00  0.00    +0.000 A 
ATOM     13  C   UNL     1      47.944   5.058  18.529  0.00  0.00    +0.000 A 
ATOM     14  C   UNL     1      48.100   4.957  17.141  0.00  0.00    +0.000 A 
ATOM     32  C   UNL     1      48.874   5.919  16.478  0.00  0.00    +0.000 A 
ATOM     33  C   UNL     1      49.498   6.948  17.191  0.00  0.00    +0.000 A 
BRANCH  11  10
ATOM     10  C   UNL     1      50.025   8.157  19.355  0.00  0.00    +0.000 C 
BRANCH  10   9
ATOM      9  N   UNL     1      51.097   7.642  20.204  0.00  0.00    +0.000 NA
ATOM     34  H   UNL     1      50.911   7.890  21.174  0.00  0.00    +0.000 HD
BRANCH   9   8
ATOM      8  C   UNL     1      52.392   8.183  19.806  0.00  0.00    +0.000 C 
BRANCH   8   7
ATOM      7  C   UNL     1      52.947   7.354  18.647  0.00  0.00    +0.000 C 
BRANCH   7   6
ATOM      6  C   UNL     1      52.919   5.867  18.987  0.00  0.00    +0.000 C 
BRANCH   6   5
ATOM      5  C   UNL     1      52.516   5.031  17.776  0.00  0.00    +0.000 C 
BRANCH   5   4
ATOM      4  C   UNL     1      51.677   3.829  18.202  0.00  0.00    +0.000 C 
BRANCH   4   3
ATOM      3  C   UNL     1      52.497   2.542  18.159  0.00  0.00    +0.000 C 
BRANCH   3   2
ATOM      1  C   UNL     1      50.354   1.890  17.020  0.00  0.00    +0.000 C 
ATOM      2  C   UNL     1      51.748   1.437  17.420  0.00  0.00    +0.000 C 
ENDBRANCH   3   2
ENDBRANCH   4   3
ENDBRANCH   5   4
ENDBRANCH   6   5
ENDBRANCH   7   6
ENDBRANCH   8   7
ENDBRANCH   9   8
ENDBRANCH  10   9
ENDBRANCH  11  10
ENDBRANCH  15  14
BRANCH  15  16
ATOM     16  N   UNL     1      46.547   4.396  15.356  0.00  0.00    +0.000 N 
ATOM     17  C   UNL     1      46.728   4.095  14.030  0.00  0.00    +0.000 C 
ATOM     18  O   UNL     1      47.555   3.268  13.655  0.00  0.00    +0.000 OA
ATOM     35  H   UNL     1      45.952   5.172  15.610  0.00  0.00    +0.000 HD
BRANCH  17  19
ATOM     19  C   UNL     1      45.828   4.767  13.082  0.00  0.00    +0.000 A 
ATOM     20  C   UNL     1      44.932   4.017  12.337  0.00  0.00    +0.000 A 
ATOM     21  S   UNL     1      43.916   4.959  11.346  0.00  0.00    +0.000 S 
ATOM     22  C   UNL     1      44.690   6.393  11.834  0.00  0.00    +0.000 A 
ATOM     23  N   UNL     1      44.291   7.576  11.331  0.00  0.00    +0.000 NA
ATOM     24  C   UNL     1      45.018   8.597  11.784  0.00  0.00    +0.000 A 
ATOM     25  N   UNL     1      46.044   8.546  12.642  0.00  0.00    +0.000 NA
ATOM     26  C   UNL     1      46.390   7.342  13.135  0.00  0.00    +0.000 A 
ATOM     31  C   UNL     1      45.710   6.178  12.749  0.00  0.00    +0.000 A 
BRANCH  26  27
ATOM     27  O   UNL     1      47.475   7.251  13.974  0.00  0.00    +0.000 OA
BRANCH  27  28
ATOM     28  C   UNL     1      48.643   7.957  13.551  0.00  0.00    +0.000 C 
BRANCH  28  29
ATOM     29  C   UNL     1      49.445   7.049  12.629  0.00  0.00    +0.000 C 
ATOM     30  C   UNL     1      49.880   7.778  11.372  0.00  0.00    +0.000 C 
ENDBRANCH  28  29
ENDBRANCH  27  28
ENDBRANCH  26  27
ENDBRANCH  17  19
ENDBRANCH  15  16
TORSDOF 15
ENDMDL
