MODEL 1
REMARK VINA RESULT:    -7.058      0.000      0.000
REMARK INTER + INTRA:          -9.746
REMARK INTER:                  -9.121
REMARK INTRA:                  -0.625
REMARK UNBOUND:                -0.625
REMARK  Name = 
REMARK  5 active torsions:
REMARK  status: ('A' for Active; 'I' for Inactive)
REMARK    1  A    between atoms: C_2  and  C_18
REMARK    2  A    between atoms: N_3  and  C_4
REMARK    3  A    between atoms: C_4  and  C_5
REMARK    4  A    between atoms: C_8  and  C_9
REMARK    5  A    between atoms: C_9  and  N_10
REMARK                            x       y       z     vdW  Elec       q    Type
REMARK                         _______ _______ _______ _____ _____    ______ ____
ROOT
ATOM      1  O   UNL     1      47.207   3.072  14.027  0.00  0.00    +0.000 OA
ATOM      2  C   UNL     1      46.847   4.157  14.474  0.00  0.00    +0.000 C 
ATOM      3  N   UNL     1      46.864   4.446  15.813  0.00  0.00    +0.000 N 
ATOM     28  H   UNL     1      46.428   5.300  16.141  0.00  0.00    +0.000 HD
ENDROOT
BRANCH   2  18
ATOM     18  C   UNL     1      46.409   5.245  13.586  0.00  0.00    +0.000 A 
ATOM     19  C   UNL     1      47.281   6.277  13.274  0.00  0.00    +0.000 A 
ATOM     20  S   UNL     1      46.607   7.454  12.239  0.00  0.00    +0.000 S 
ATOM     21  C   UNL     1      45.135   6.601  12.137  0.00  0.00    +0.000 A 
ATOM     22  N   UNL     1      44.113   7.054  11.368  0.00  0.00    +0.000 NA
ATOM     23  C   UNL     1      43.080   6.284  11.338  0.00  0.00    +0.000 A 
ATOM     24  N   UNL     1      42.966   5.104  12.023  0.00  0.00    +0.000 N 
ATOM     25  C   UNL     1      43.939   4.651  12.881  0.00  0.00    +0.000 A 
ATOM     26  O   UNL     1      43.739   3.669  13.591  0.00  0.00    +0.000 OA
ATOM     27  C   UNL     1      45.151   5.451  12.904  0.00  0.00    +0.000 A 
ATOM     29  H   UNL     1      42.115   4.560  11.988  0.00  0.00    +0.000 HD
ENDBRANCH   2  18
BRANCH   3   4
ATOM      4  C   UNL     1      47.148   3.467  16.830  0.00  0.00    +0.000 C 
BRANCH   4   5
ATOM      5  C   UNL     1      48.622   3.393  17.142  0.00  0.00    +0.000 A 
ATOM      6  C   UNL     1      49.273   2.153  17.126  0.00  0.00    +0.000 A 
ATOM      7  C   UNL     1      50.645   2.063  17.373  0.00  0.00    +0.000 A 
ATOM      8  C   UNL     1      51.405   3.206  17.644  0.00  0.00    +0.000 A 
ATOM     16  C   UNL     1      50.742   4.444  17.710  0.00  0.00    +0.000 A 
ATOM     17  C   UNL     1      49.364   4.536  17.470  0.00  0.00    +0.000 A 
BRANCH   8   9
ATOM      9  C   UNL     1      52.884   3.092  17.944  0.00  0.00    +0.000 C 
BRANCH   9  10
ATOM     10  N   UNL     1      53.318   2.836  19.316  0.00  0.00    +0.000 NA
ATOM     11  C   UNL     1      53.025   3.871  20.310  0.00  0.00    +0.000 C 
ATOM     12  C   UNL     1      54.158   4.888  20.522  0.00  0.00    +0.000 C 
ATOM     13  O   UNL     1      55.398   4.236  20.822  0.00  0.00    +0.000 OA
ATOM     14  C   UNL     1      55.766   3.328  19.778  0.00  0.00    +0.000 C 
ATOM     15  C   UNL     1      54.666   2.290  19.503  0.00  0.00    +0.000 C 
ENDBRANCH   9  10
ENDBRANCH   8   9
ENDBRANCH   4   5
ENDBRANCH   3   4
TORSDOF 5
ENDMDL
MODEL 2
REMARK VINA RESULT:    -7.028      3.750      8.929
REMARK INTER + INTRA:          -9.707
REMARK INTER:                  -8.520
REMARK INTRA:                  -1.187
REMARK UNBOUND:                -0.625
REMARK  Name = 
REMARK  5 active torsions:
REMARK  status: ('A' for Active; 'I' for Inactive)
REMARK    1  A    between atoms: C_2  and  C_18
REMARK    2  A    between atoms: N_3  and  C_4
REMARK    3  A    between atoms: C_4  and  C_5
REMARK    4  A    between atoms: C_8  and  C_9
REMARK    5  A    between atoms: C_9  and  N_10
REMARK                            x       y       z     vdW  Elec       q    Type
REMARK                         _______ _______ _______ _____ _____    ______ ____
ROOT
ATOM      1  O   UNL     1      48.631   8.635  16.138  0.00  0.00    +0.000 OA
ATOM      2  C   UNL     1      48.962   7.495  15.830  0.00  0.00    +0.000 C 
ATOM      3  N   UNL     1      49.209   7.121  14.535  0.00  0.00    +0.000 N 
ATOM     28  H   UNL     1      49.343   6.140  14.319  0.00  0.00    +0.000 HD
ENDROOT
BRANCH   2  18
ATOM     18  C   UNL     1      49.160   6.452  16.849  0.00  0.00    +0.000 A 
ATOM     19  C   UNL     1      50.029   6.675  17.908  0.00  0.00    +0.000 A 
ATOM     20  S   UNL     1      50.142   5.359  18.989  0.00  0.00    +0.000 S 
ATOM     21  C   UNL     1      48.998   4.461  18.101  0.00  0.00    +0.000 A 
ATOM     22  N   UNL     1      48.606   3.227  18.509  0.00  0.00    +0.000 NA
ATOM     23  C   UNL     1      47.696   2.682  17.776  0.00  0.00    +0.000 A 
ATOM     24  N   UNL     1      47.150   3.253  16.658  0.00  0.00    +0.000 N 
ATOM     25  C   UNL     1      47.579   4.459  16.159  0.00  0.00    +0.000 A 
ATOM     26  O   UNL     1      47.173   4.868  15.075  0.00  0.00    +0.000 OA
ATOM     27  C   UNL     1      48.560   5.144  16.983  0.00  0.00    +0.000 A 
ATOM     29  H   UNL     1      46.464   2.761  16.103  0.00  0.00    +0.000 HD
ENDBRANCH   2  18
BRANCH   3   4
ATOM      4  C   UNL     1      48.951   7.974  13.404  0.00  0.00    +0.000 C 
BRANCH   4   5
ATOM      5  C   UNL     1      47.600   7.700  12.791  0.00  0.00    +0.000 A 
ATOM      6  C   UNL     1      47.470   6.703  11.816  0.00  0.00    +0.000 A 
ATOM      7  C   UNL     1      46.224   6.403  11.261  0.00  0.00    +0.000 A 
ATOM      8  C   UNL     1      45.072   7.089  11.663  0.00  0.00    +0.000 A 
ATOM     16  C   UNL     1      45.211   8.123  12.604  0.00  0.00    +0.000 A 
ATOM     17  C   UNL     1      46.462   8.431  13.157  0.00  0.00    +0.000 A 
BRANCH   8   9
ATOM      9  C   UNL     1      43.733   6.778  11.031  0.00  0.00    +0.000 C 
BRANCH   9  10
ATOM     10  N   UNL     1      43.040   5.543  11.393  0.00  0.00    +0.000 NA
ATOM     11  C   UNL     1      42.922   5.243  12.822  0.00  0.00    +0.000 C 
ATOM     12  C   UNL     1      44.044   4.354  13.381  0.00  0.00    +0.000 C 
ATOM     13  O   UNL     1      44.184   3.147  12.621  0.00  0.00    +0.000 OA
ATOM     14  C   UNL     1      44.450   3.437  11.244  0.00  0.00    +0.000 C 
ATOM     15  C   UNL     1      43.369   4.338  10.626  0.00  0.00    +0.000 C 
ENDBRANCH   9  10
ENDBRANCH   8   9
ENDBRANCH   4   5
ENDBRANCH   3   4
TORSDOF 5
ENDMDL
MODEL 3
REMARK VINA RESULT:    -6.960      3.184      9.576
REMARK INTER + INTRA:          -9.620
REMARK INTER:                  -8.660
REMARK INTRA:                  -0.960
REMARK UNBOUND:                -0.625
REMARK  Name = 
REMARK  5 active torsions:
REMARK  status: ('A' for Active; 'I' for Inactive)
REMARK    1  A    between atoms: C_2  and  C_18
REMARK    2  A    between atoms: N_3  and  C_4
REMARK    3  A    between atoms: C_4  and  C_5
REMARK    4  A    between atoms: C_8  and  C_9
REMARK    5  A    between atoms: C_9  and  N_10
REMARK                            x       y       z     vdW  Elec       q    Type
REMARK                         _______ _______ _______ _____ _____    ______ ____
ROOT
ATOM      1  O   UNL     1      52.082   6.165  16.537  0.00  0.00    +0.000 OA
ATOM      2  C   UNL     1      51.712   5.322  17.349  0.00  0.00    +0.000 C 
ATOM      3  N   UNL     1      50.429   5.272  17.828  0.00  0.00    +0.000 N 
ATOM     28  H   UNL     1      50.212   4.649  18.596  0.00  0.00    +0.000 HD
ENDROOT
BRANCH   2  18
ATOM     18  C   UNL     1      52.622   4.272  17.833  0.00  0.00    +0.000 A 
ATOM     19  C   UNL     1      53.838   4.618  18.402  0.00  0.00    +0.000 A 
ATOM     20  S   UNL     1      54.766   3.276  18.902  0.00  0.00    +0.000 S 
ATOM     21  C   UNL     1      53.553   2.185  18.412  0.00  0.00    +0.000 A 
ATOM     22  N   UNL     1      53.699   0.847  18.589  0.00  0.00    +0.000 NA
ATOM     23  C   UNL     1      52.683   0.142  18.225  0.00  0.00    +0.000 A 
ATOM     24  N   UNL     1      51.534   0.651  17.681  0.00  0.00    +0.000 N 
ATOM     25  C   UNL     1      51.378   1.988  17.402  0.00  0.00    +0.000 A 
ATOM     26  O   UNL     1      50.398   2.386  16.778  0.00  0.00    +0.000 OA
ATOM     27  C   UNL     1      52.470   2.835  17.850  0.00  0.00    +0.000 A 
ATOM     29  H   UNL     1      50.785   0.044  17.382  0.00  0.00    +0.000 HD
ENDBRANCH   2  18
BRANCH   3   4
ATOM      4  C   UNL     1      49.444   6.287  17.556  0.00  0.00    +0.000 C 
BRANCH   4   5
ATOM      5  C   UNL     1      48.633   5.965  16.326  0.00  0.00    +0.000 A 
ATOM      6  C   UNL     1      47.835   4.814  16.303  0.00  0.00    +0.000 A 
ATOM      7  C   UNL     1      47.044   4.514  15.191  0.00  0.00    +0.000 A 
ATOM      8  C   UNL     1      47.029   5.352  14.070  0.00  0.00    +0.000 A 
ATOM     16  C   UNL     1      47.869   6.479  14.073  0.00  0.00    +0.000 A 
ATOM     17  C   UNL     1      48.668   6.779  15.186  0.00  0.00    +0.000 A 
BRANCH   8   9
ATOM      9  C   UNL     1      46.195   4.999  12.859  0.00  0.00    +0.000 C 
BRANCH   9  10
ATOM     10  N   UNL     1      45.023   4.141  13.023  0.00  0.00    +0.000 NA
ATOM     11  C   UNL     1      44.962   2.934  12.194  0.00  0.00    +0.000 C 
ATOM     12  C   UNL     1      44.202   3.110  10.870  0.00  0.00    +0.000 C 
ATOM     13  O   UNL     1      42.889   3.642  11.085  0.00  0.00    +0.000 OA
ATOM     14  C   UNL     1      42.951   4.900  11.766  0.00  0.00    +0.000 C 
ATOM     15  C   UNL     1      43.714   4.797  13.097  0.00  0.00    +0.000 C 
ENDBRANCH   9  10
ENDBRANCH   8   9
ENDBRANCH   4   5
ENDBRANCH   3   4
TORSDOF 5
ENDMDL
MODEL 4
REMARK VINA RESULT:    -6.837      1.353      1.889
REMARK INTER + INTRA:          -9.460
REMARK INTER:                  -8.785
REMARK INTRA:                  -0.675
REMARK UNBOUND:                -0.625
REMARK  Name = 
REMARK  5 active torsions:
REMARK  status: ('A' for Active; 'I' for Inactive)
REMARK    1  A    between atoms: C_2  and  C_18
REMARK    2  A    between atoms: N_3  and  C_4
REMARK    3  A    between atoms: C_4  and  C_5
REMARK    4  A    between atoms: C_8  and  C_9
REMARK    5  A    between atoms: C_9  and  N_10
REMARK                            x       y       z     vdW  Elec       q    Type
REMARK                         _______ _______ _______ _____ _____    ______ ____
ROOT
ATOM      1  O   UNL     1      47.223   3.107  14.024  0.00  0.00    +0.000 OA
ATOM      2  C   UNL     1      46.784   4.157  14.482  0.00  0.00    +0.000 C 
ATOM      3  N   UNL     1      46.756   4.422  15.827  0.00  0.00    +0.000 N 
ATOM     28  H   UNL     1      46.259   5.239  16.160  0.00  0.00    +0.000 HD
ENDROOT
BRANCH   2  18
ATOM     18  C   UNL     1      46.293   5.231  13.605  0.00  0.00    +0.000 A 
ATOM     19  C   UNL     1      47.099   6.328  13.336  0.00  0.00    +0.000 A 
ATOM     20  S   UNL     1      46.369   7.478  12.307  0.00  0.00    +0.000 S 
ATOM     21  C   UNL     1      44.964   6.526  12.150  0.00  0.00    +0.000 A 
ATOM     22  N   UNL     1      43.932   6.924  11.363  0.00  0.00    +0.000 NA
ATOM     23  C   UNL     1      42.956   6.085  11.291  0.00  0.00    +0.000 A 
ATOM     24  N   UNL     1      42.909   4.885  11.949  0.00  0.00    +0.000 N 
ATOM     25  C   UNL     1      43.890   4.482  12.824  0.00  0.00    +0.000 A 
ATOM     26  O   UNL     1      43.742   3.474  13.508  0.00  0.00    +0.000 OA
ATOM     27  C   UNL     1      45.042   5.364  12.894  0.00  0.00    +0.000 A 
ATOM     29  H   UNL     1      42.100   4.284  11.881  0.00  0.00    +0.000 HD
ENDBRANCH   2  18
BRANCH   3   4
ATOM      4  C   UNL     1      47.084   3.444  16.831  0.00  0.00    +0.000 C 
BRANCH   4   5
ATOM      5  C   UNL     1      48.535   3.519  17.234  0.00  0.00    +0.000 A 
ATOM      6  C   UNL     1      49.009   4.649  17.913  0.00  0.00    +0.000 A 
ATOM      7  C   UNL     1      50.339   4.726  18.332  0.00  0.00    +0.000 A 
ATOM      8  C   UNL     1      51.235   3.680  18.084  0.00  0.00    +0.000 A 
ATOM     16  C   UNL     1      50.772   2.569  17.358  0.00  0.00    +0.000 A 
ATOM     17  C   UNL     1      49.439   2.492  16.931  0.00  0.00    +0.000 A 
BRANCH   8   9
ATOM      9  C   UNL     1      52.681   3.789  18.513  0.00  0.00    +0.000 C 
BRANCH   9  10
ATOM     10  N   UNL     1      53.675   4.281  17.560  0.00  0.00    +0.000 NA
ATOM     11  C   UNL     1      55.082   4.030  17.879  0.00  0.00    +0.000 C 
ATOM     12  C   UNL     1      55.775   5.171  18.641  0.00  0.00    +0.000 C 
ATOM     13  O   UNL     1      55.627   6.423  17.959  0.00  0.00    +0.000 OA
ATOM     14  C   UNL     1      54.244   6.746  17.777  0.00  0.00    +0.000 C 
ATOM     15  C   UNL     1      53.486   5.635  17.031  0.00  0.00    +0.000 C 
ENDBRANCH   9  10
ENDBRANCH   8   9
ENDBRANCH   4   5
ENDBRANCH   3   4
TORSDOF 5
ENDMDL
MODEL 5
REMARK VINA RESULT:    -6.657      6.591      7.520
REMARK INTER + INTRA:          -9.227
REMARK INTER:                  -8.430
REMARK INTRA:                  -0.797
REMARK UNBOUND:                -0.625
REMARK  Name = 
REMARK  5 active torsions:
REMARK  status: ('A' for Active; 'I' for Inactive)
REMARK    1  A    between atoms: C_2  and  C_18
REMARK    2  A    between atoms: N_3  and  C_4
REMARK    3  A    between atoms: C_4  and  C_5
REMARK    4  A    between atoms: C_8  and  C_9
REMARK    5  A    between atoms: C_9  and  N_10
REMARK                            x       y       z     vdW  Elec       q    Type
REMARK                         _______ _______ _______ _____ _____    ______ ____
ROOT
ATOM      1  O   UNL     1      44.039   7.535  11.231  0.00  0.00    +0.000 OA
ATOM      2  C   UNL     1      44.706   6.637  11.733  0.00  0.00    +0.000 C 
ATOM      3  N   UNL     1      45.726   6.879  12.617  0.00  0.00    +0.000 N 
ATOM     28  H   UNL     1      46.332   6.117  12.893  0.00  0.00    +0.000 HD
ENDROOT
BRANCH   2  18
ATOM     18  C   UNL     1      44.424   5.221  11.449  0.00  0.00    +0.000 A 
ATOM     19  C   UNL     1      43.654   4.478  12.332  0.00  0.00    +0.000 A 
ATOM     20  S   UNL     1      43.433   2.856  11.850  0.00  0.00    +0.000 S 
ATOM     21  C   UNL     1      44.325   3.102  10.419  0.00  0.00    +0.000 A 
ATOM     22  N   UNL     1      44.496   2.102   9.518  0.00  0.00    +0.000 NA
ATOM     23  C   UNL     1      45.144   2.439   8.456  0.00  0.00    +0.000 A 
ATOM     24  N   UNL     1      45.654   3.688   8.216  0.00  0.00    +0.000 N 
ATOM     25  C   UNL     1      45.581   4.704   9.138  0.00  0.00    +0.000 A 
ATOM     26  O   UNL     1      46.178   5.761   8.951  0.00  0.00    +0.000 OA
ATOM     27  C   UNL     1      44.807   4.394  10.327  0.00  0.00    +0.000 A 
ATOM     29  H   UNL     1      46.184   3.883   7.379  0.00  0.00    +0.000 HD
ENDBRANCH   2  18
BRANCH   3   4
ATOM      4  C   UNL     1      46.215   8.200  12.915  0.00  0.00    +0.000 C 
BRANCH   4   5
ATOM      5  C   UNL     1      47.615   8.410  12.395  0.00  0.00    +0.000 A 
ATOM      6  C   UNL     1      48.500   7.326  12.327  0.00  0.00    +0.000 A 
ATOM      7  C   UNL     1      49.789   7.486  11.813  0.00  0.00    +0.000 A 
ATOM      8  C   UNL     1      50.232   8.732  11.353  0.00  0.00    +0.000 A 
ATOM     16  C   UNL     1      49.362   9.829  11.469  0.00  0.00    +0.000 A 
ATOM     17  C   UNL     1      48.070   9.673  11.991  0.00  0.00    +0.000 A 
BRANCH   8   9
ATOM      9  C   UNL     1      51.641   8.900  10.830  0.00  0.00    +0.000 C 
BRANCH   9  10
ATOM     10  N   UNL     1      52.463   7.714  10.595  0.00  0.00    +0.000 NA
ATOM     11  C   UNL     1      53.825   7.732  11.135  0.00  0.00    +0.000 C 
ATOM     12  C   UNL     1      54.894   8.228  10.149  0.00  0.00    +0.000 C 
ATOM     13  O   UNL     1      54.849   7.498   8.917  0.00  0.00    +0.000 OA
ATOM     14  C   UNL     1      53.558   7.602   8.307  0.00  0.00    +0.000 C 
ATOM     15  C   UNL     1      52.437   7.134   9.249  0.00  0.00    +0.000 C 
ENDBRANCH   9  10
ENDBRANCH   8   9
ENDBRANCH   4   5
ENDBRANCH   3   4
TORSDOF 5
ENDMDL
MODEL 6
REMARK VINA RESULT:    -6.483      3.629      5.442
REMARK INTER + INTRA:          -9.002
REMARK INTER:                  -8.076
REMARK INTRA:                  -0.926
REMARK UNBOUND:                -0.625
REMARK  Name = 
REMARK  5 active torsions:
REMARK  status: ('A' for Active; 'I' for Inactive)
REMARK    1  A    between atoms: C_2  and  C_18
REMARK    2  A    between atoms: N_3  and  C_4
REMARK    3  A    between atoms: C_4  and  C_5
REMARK    4  A    between atoms: C_8  and  C_9
REMARK    5  A    between atoms: C_9  and  N_10
REMARK                            x       y       z     vdW  Elec       q    Type
REMARK                         _______ _______ _______ _____ _____    ______ ____
ROOT
ATOM      1  O   UNL     1      44.895   7.592  11.937  0.00  0.00    +0.000 OA
ATOM      2  C   UNL     1      45.585   6.600  11.723  0.00  0.00    +0.000 C 
ATOM      3  N   UNL     1      46.955   6.641  11.711  0.00  0.00    +0.000 N 
ATOM     28  H   UNL     1      47.472   5.830  11.394  0.00  0.00    +0.000 HD
ENDROOT
BRANCH   2  18
ATOM     18  C   UNL     1      44.979   5.277  11.504  0.00  0.00    +0.000 A 
ATOM     19  C   UNL     1      44.247   4.675  12.516  0.00  0.00    +0.000 A 
ATOM     20  S   UNL     1      43.624   3.143  12.092  0.00  0.00    +0.000 S 
ATOM     21  C   UNL     1      44.277   3.252  10.522  0.00  0.00    +0.000 A 
ATOM     22  N   UNL     1      44.081   2.265   9.611  0.00  0.00    +0.000 NA
ATOM     23  C   UNL     1      44.583   2.499   8.447  0.00  0.00    +0.000 A 
ATOM     24  N   UNL     1      45.280   3.629   8.111  0.00  0.00    +0.000 N 
ATOM     25  C   UNL     1      45.578   4.612   9.024  0.00  0.00    +0.000 A 
ATOM     26  O   UNL     1      46.331   5.535   8.726  0.00  0.00    +0.000 OA
ATOM     27  C   UNL     1      44.983   4.425  10.336  0.00  0.00    +0.000 A 
ATOM     29  H   UNL     1      45.680   3.740   7.191  0.00  0.00    +0.000 HD
ENDBRANCH   2  18
BRANCH   3   4
ATOM      4  C   UNL     1      47.709   7.865  11.788  0.00  0.00    +0.000 C 
BRANCH   4   5
ATOM      5  C   UNL     1      48.369   8.034  13.134  0.00  0.00    +0.000 A 
ATOM      6  C   UNL     1      47.727   8.779  14.132  0.00  0.00    +0.000 A 
ATOM      7  C   UNL     1      48.299   8.918  15.400  0.00  0.00    +0.000 A 
ATOM      8  C   UNL     1      49.526   8.320  15.706  0.00  0.00    +0.000 A 
ATOM     16  C   UNL     1      50.193   7.615  14.689  0.00  0.00    +0.000 A 
ATOM     17  C   UNL     1      49.625   7.480  13.415  0.00  0.00    +0.000 A 
BRANCH   8   9
ATOM      9  C   UNL     1      50.151   8.505  17.071  0.00  0.00    +0.000 C 
BRANCH   9  10
ATOM     10  N   UNL     1      50.029   7.440  18.065  0.00  0.00    +0.000 NA
ATOM     11  C   UNL     1      51.150   6.504  18.176  0.00  0.00    +0.000 C 
ATOM     12  C   UNL     1      51.006   5.234  17.323  0.00  0.00    +0.000 C 
ATOM     13  O   UNL     1      49.764   4.567  17.581  0.00  0.00    +0.000 OA
ATOM     14  C   UNL     1      48.655   5.436  17.329  0.00  0.00    +0.000 C 
ATOM     15  C   UNL     1      48.745   6.737  18.143  0.00  0.00    +0.000 C 
ENDBRANCH   9  10
ENDBRANCH   8   9
ENDBRANCH   4   5
ENDBRANCH   3   4
TORSDOF 5
ENDMDL
MODEL 7
REMARK VINA RESULT:    -6.460      3.407      5.115
REMARK INTER + INTRA:          -8.972
REMARK INTER:                  -8.087
REMARK INTRA:                  -0.886
REMARK UNBOUND:                -0.625
REMARK  Name = 
REMARK  5 active torsions:
REMARK  status: ('A' for Active; 'I' for Inactive)
REMARK    1  A    between atoms: C_2  and  C_18
REMARK    2  A    between atoms: N_3  and  C_4
REMARK    3  A    between atoms: C_4  and  C_5
REMARK    4  A    between atoms: C_8  and  C_9
REMARK    5  A    between atoms: C_9  and  N_10
REMARK                            x       y       z     vdW  Elec       q    Type
REMARK                         _______ _______ _______ _____ _____    ______ ____
ROOT
ATOM      1  O   UNL     1      45.379   8.026  11.814  0.00  0.00    +0.000 OA
ATOM      2  C   UNL     1      46.113   7.099  11.488  0.00  0.00    +0.000 C 
ATOM      3  N   UNL     1      47.463   7.107  11.726  0.00  0.00    +0.000 N 
ATOM     28  H   UNL     1      48.042   6.384  11.316  0.00  0.00    +0.000 HD
ENDROOT
BRANCH   2  18
ATOM     18  C   UNL     1      45.579   5.884  10.852  0.00  0.00    +0.000 A 
ATOM     19  C   UNL     1      45.871   5.613   9.524  0.00  0.00    +0.000 A 
ATOM     20  S   UNL     1      45.166   4.169   8.949  0.00  0.00    +0.000 S 
ATOM     21  C   UNL     1      44.481   3.833  10.472  0.00  0.00    +0.000 A 
ATOM     22  N   UNL     1      43.759   2.703  10.682  0.00  0.00    +0.000 NA
ATOM     23  C   UNL     1      43.345   2.547  11.893  0.00  0.00    +0.000 A 
ATOM     24  N   UNL     1      43.573   3.428  12.916  0.00  0.00    +0.000 N 
ATOM     25  C   UNL     1      44.222   4.625  12.728  0.00  0.00    +0.000 A 
ATOM     26  O   UNL     1      44.275   5.455  13.632  0.00  0.00    +0.000 OA
ATOM     27  C   UNL     1      44.762   4.823  11.395  0.00  0.00    +0.000 A 
ATOM     29  H   UNL     1      43.192   3.268  13.837  0.00  0.00    +0.000 HD
ENDBRANCH   2  18
BRANCH   3   4
ATOM      4  C   UNL     1      48.170   8.257  12.228  0.00  0.00    +0.000 C 
BRANCH   4   5
ATOM      5  C   UNL     1      48.594   8.072  13.664  0.00  0.00    +0.000 A 
ATOM      6  C   UNL     1      47.934   8.778  14.678  0.00  0.00    +0.000 A 
ATOM      7  C   UNL     1      48.281   8.596  16.019  0.00  0.00    +0.000 A 
ATOM      8  C   UNL     1      49.296   7.704  16.385  0.00  0.00    +0.000 A 
ATOM     16  C   UNL     1      49.992   7.034  15.364  0.00  0.00    +0.000 A 
ATOM     17  C   UNL     1      49.650   7.221  14.017  0.00  0.00    +0.000 A 
BRANCH   8   9
ATOM      9  C   UNL     1      49.686   7.540  17.838  0.00  0.00    +0.000 C 
BRANCH   9  10
ATOM     10  N   UNL     1      49.241   6.355  18.568  0.00  0.00    +0.000 NA
ATOM     11  C   UNL     1      50.184   5.237  18.659  0.00  0.00    +0.000 C 
ATOM     12  C   UNL     1      50.022   4.178  17.557  0.00  0.00    +0.000 C 
ATOM     13  O   UNL     1      48.675   3.697  17.486  0.00  0.00    +0.000 OA
ATOM     14  C   UNL     1      47.759   4.772  17.248  0.00  0.00    +0.000 C 
ATOM     15  C   UNL     1      47.879   5.877  18.309  0.00  0.00    +0.000 C 
ENDBRANCH   9  10
ENDBRANCH   8   9
ENDBRANCH   4   5
ENDBRANCH   3   4
TORSDOF 5
ENDMDL
MODEL 8
REMARK VINA RESULT:    -6.272      6.039      7.195
REMARK INTER + INTRA:          -8.730
REMARK INTER:                  -7.938
REMARK INTRA:                  -0.793
REMARK UNBOUND:                -0.625
REMARK  Name = 
REMARK  5 active torsions:
REMARK  status: ('A' for Active; 'I' for Inactive)
REMARK    1  A    between atoms: C_2  and  C_18
REMARK    2  A    between atoms: N_3  and  C_4
REMARK    3  A    between atoms: C_4  and  C_5
REMARK    4  A    between atoms: C_8  and  C_9
REMARK    5  A    between atoms: C_9  and  N_10
REMARK                            x       y       z     vdW  Elec       q    Type
REMARK                         _______ _______ _______ _____ _____    ______ ____
ROOT
ATOM      1  O   UNL     1      43.920   7.564  11.112  0.00  0.00    +0.000 OA
ATOM      2  C   UNL     1      44.584   6.695  11.669  0.00  0.00    +0.000 C 
ATOM      3  N   UNL     1      45.565   6.987  12.581  0.00  0.00    +0.000 N 
ATOM     28  H   UNL     1      46.174   6.246  12.906  0.00  0.00    +0.000 HD
ENDROOT
BRANCH   2  18
ATOM     18  C   UNL     1      44.339   5.266  11.422  0.00  0.00    +0.000 A 
ATOM     19  C   UNL     1      43.572   4.531  12.315  0.00  0.00    +0.000 A 
ATOM     20  S   UNL     1      43.396   2.891  11.877  0.00  0.00    +0.000 S 
ATOM     21  C   UNL     1      44.305   3.116  10.454  0.00  0.00    +0.000 A 
ATOM     22  N   UNL     1      44.514   2.094   9.586  0.00  0.00    +0.000 NA
ATOM     23  C   UNL     1      45.171   2.416   8.524  0.00  0.00    +0.000 A 
ATOM     24  N   UNL     1      45.655   3.668   8.255  0.00  0.00    +0.000 N 
ATOM     25  C   UNL     1      45.544   4.709   9.145  0.00  0.00    +0.000 A 
ATOM     26  O   UNL     1      46.121   5.773   8.937  0.00  0.00    +0.000 OA
ATOM     27  C   UNL     1      44.759   4.416  10.331  0.00  0.00    +0.000 A 
ATOM     29  H   UNL     1      46.194   3.851   7.421  0.00  0.00    +0.000 HD
ENDBRANCH   2  18
BRANCH   3   4
ATOM      4  C   UNL     1      46.018   8.326  12.853  0.00  0.00    +0.000 C 
BRANCH   4   5
ATOM      5  C   UNL     1      47.402   8.572  12.307  0.00  0.00    +0.000 A 
ATOM      6  C   UNL     1      47.820   9.881  12.038  0.00  0.00    +0.000 A 
ATOM      7  C   UNL     1      49.110  10.139  11.569  0.00  0.00    +0.000 A 
ATOM      8  C   UNL     1      50.019   9.097  11.352  0.00  0.00    +0.000 A 
ATOM     16  C   UNL     1      49.583   7.780  11.573  0.00  0.00    +0.000 A 
ATOM     17  C   UNL     1      48.286   7.518  12.038  0.00  0.00    +0.000 A 
BRANCH   8   9
ATOM      9  C   UNL     1      51.403   9.385  10.812  0.00  0.00    +0.000 C 
BRANCH   9  10
ATOM     10  N   UNL     1      52.415   9.950  11.703  0.00  0.00    +0.000 NA
ATOM     11  C   UNL     1      53.801   9.934  11.227  0.00  0.00    +0.000 C 
ATOM     12  C   UNL     1      54.611   8.706  11.671  0.00  0.00    +0.000 C 
ATOM     13  O   UNL     1      54.563   8.531  13.092  0.00  0.00    +0.000 OA
ATOM     14  C   UNL     1      53.212   8.396  13.546  0.00  0.00    +0.000 C 
ATOM     15  C   UNL     1      52.339   9.589  13.121  0.00  0.00    +0.000 C 
ENDBRANCH   9  10
ENDBRANCH   8   9
ENDBRANCH   4   5
ENDBRANCH   3   4
TORSDOF 5
ENDMDL
