MODEL 1
REMARK VINA RESULT:    -6.536      0.000      0.000
REMARK INTER + INTRA:          -9.521
REMARK INTER:                  -8.446
REMARK INTRA:                  -1.075
REMARK UNBOUND:                -1.075
REMARK  Name = 
REMARK  7 active torsions:
REMARK  status: ('A' for Active; 'I' for Inactive)
REMARK    1  A    between atoms: C_1  and  C_2
REMARK    2  A    between atoms: C_2  and  C_3
REMARK    3  A    between atoms: C_2  and  C_4
REMARK    4  A    between atoms: C_7  and  C_9
REMARK    5  A    between atoms: C_9  and  N_10
REMARK    6  A    between atoms: C_11  and  C_12
REMARK    7  A    between atoms: C_18  and  C_19
REMARK                            x       y       z     vdW  Elec       q    Type
REMARK                         _______ _______ _______ _____ _____    ______ ____
ROOT
ATOM     10  N   UNL     1      47.525   4.452  14.623  0.00  0.00    +0.000 N 
ATOM     11  C   UNL     1      47.903   5.776  14.804  0.00  0.00    +0.000 A 
ATOM     15  C   UNL     1      47.253   6.527  13.855  0.00  0.00    +0.000 A 
ATOM     16  C   UNL     1      46.452   5.662  13.077  0.00  0.00    +0.000 A 
ATOM     17  C   UNL     1      45.618   5.834  11.970  0.00  0.00    +0.000 A 
ATOM     18  C   UNL     1      44.955   4.714  11.465  0.00  0.00    +0.000 A 
ATOM     22  C   UNL     1      45.147   3.495  12.113  0.00  0.00    +0.000 A 
ATOM     23  N   UNL     1      45.932   3.276  13.203  0.00  0.00    +0.000 NA
ATOM     24  C   UNL     1      46.593   4.381  13.607  0.00  0.00    +0.000 A 
ENDROOT
BRANCH  18  19
ATOM     19  C   UNL     1      44.069   4.773  10.276  0.00  0.00    +0.000 C 
ATOM     20  N   UNL     1      44.593   4.414   9.054  0.00  0.00    +0.000 N 
ATOM     21  O   UNL     1      42.898   5.131  10.370  0.00  0.00    +0.000 OA
ATOM     28  H   UNL     1      45.531   4.099   8.889  0.00  0.00    +0.000 HD
ATOM     29  H   UNL     1      43.955   4.449   8.270  0.00  0.00    +0.000 HD
ENDBRANCH  18  19
BRANCH  11  12
ATOM     12  C   UNL     1      48.858   6.337  15.855  0.00  0.00    +0.000 C 
ATOM     13  C   UNL     1      48.987   7.846  15.939  0.00  0.00    +0.000 C 
ATOM     14  C   UNL     1      50.131   7.042  15.425  0.00  0.00    +0.000 C 
ENDBRANCH  11  12
BRANCH  10   9
ATOM      9  C   UNL     1      47.871   3.303  15.457  0.00  0.00    +0.000 C 
BRANCH   9   7
ATOM      4  C   UNL     1      49.329   4.623  19.774  0.00  0.00    +0.000 C 
ATOM      5  C   UNL     1      48.457   3.437  19.261  0.00  0.00    +0.000 C 
ATOM      6  N   UNL     1      48.638   3.224  17.819  0.00  0.00    +0.000 N 
ATOM      7  C   UNL     1      47.582   3.483  16.942  0.00  0.00    +0.000 C 
ATOM      8  O   UNL     1      46.469   3.788  17.369  0.00  0.00    +0.000 OA
ATOM     25  C   UNL     1      50.034   2.986  17.446  0.00  0.00    +0.000 C 
ATOM     26  C   UNL     1      50.937   4.116  17.979  0.00  0.00    +0.000 C 
ATOM     27  N   UNL     1      50.754   4.369  19.419  0.00  0.00    +0.000 NA
ATOM     30  H   UNL     1      51.334   5.153  19.707  0.00  0.00    +0.000 HD
BRANCH   4   2
ATOM      1  C   UNL     1      49.662   7.182  19.857  0.00  0.00    +0.000 C 
ATOM      2  C   UNL     1      48.806   6.025  19.317  0.00  0.00    +0.000 C 
ATOM      3  C   UNL     1      47.359   6.280  19.761  0.00  0.00    +0.000 C 
ENDBRANCH   4   2
ENDBRANCH   9   7
ENDBRANCH  10   9
TORSDOF 5
ENDMDL
MODEL 2
REMARK VINA RESULT:    -6.300      2.064      7.673
REMARK INTER + INTRA:          -9.217
REMARK INTER:                  -8.329
REMARK INTRA:                  -0.888
REMARK UNBOUND:                -1.075
REMARK  Name = 
REMARK  7 active torsions:
REMARK  status: ('A' for Active; 'I' for Inactive)
REMARK    1  A    between atoms: C_1  and  C_2
REMARK    2  A    between atoms: C_2  and  C_3
REMARK    3  A    between atoms: C_2  and  C_4
REMARK    4  A    between atoms: C_7  and  C_9
REMARK    5  A    between atoms: C_9  and  N_10
REMARK    6  A    between atoms: C_11  and  C_12
REMARK    7  A    between atoms: C_18  and  C_19
REMARK                            x       y       z     vdW  Elec       q    Type
REMARK                         _______ _______ _______ _____ _____    ______ ____
ROOT
ATOM     10  N   UNL     1      48.027   6.255  14.401  0.00  0.00    +0.000 N 
ATOM     11  C   UNL     1      48.398   7.591  14.331  0.00  0.00    +0.000 A 
ATOM     15  C   UNL     1      48.799   7.977  15.587  0.00  0.00    +0.000 A 
ATOM     16  C   UNL     1      48.684   6.865  16.450  0.00  0.00    +0.000 A 
ATOM     17  C   UNL     1      48.901   6.661  17.816  0.00  0.00    +0.000 A 
ATOM     18  C   UNL     1      48.693   5.381  18.331  0.00  0.00    +0.000 A 
ATOM     22  C   UNL     1      48.304   4.377  17.445  0.00  0.00    +0.000 A 
ATOM     23  N   UNL     1      48.097   4.516  16.107  0.00  0.00    +0.000 NA
ATOM     24  C   UNL     1      48.255   5.787  15.680  0.00  0.00    +0.000 A 
ENDROOT
BRANCH  18  19
ATOM     19  C   UNL     1      48.863   5.056  19.768  0.00  0.00    +0.000 C 
ATOM     20  N   UNL     1      48.580   3.774  20.185  0.00  0.00    +0.000 N 
ATOM     21  O   UNL     1      49.245   5.902  20.573  0.00  0.00    +0.000 OA
ATOM     28  H   UNL     1      48.276   3.020  19.597  0.00  0.00    +0.000 HD
ATOM     29  H   UNL     1      48.724   3.586  21.169  0.00  0.00    +0.000 HD
ENDBRANCH  18  19
BRANCH  11  12
ATOM     12  C   UNL     1      48.384   8.499  13.103  0.00  0.00    +0.000 C 
ATOM     13  C   UNL     1      48.339   9.994  13.348  0.00  0.00    +0.000 C 
ATOM     14  C   UNL     1      47.145   9.312  12.775  0.00  0.00    +0.000 C 
ENDBRANCH  11  12
BRANCH  10   9
ATOM      9  C   UNL     1      47.635   5.378  13.299  0.00  0.00    +0.000 C 
BRANCH   9   7
ATOM      4  C   UNL     1      43.807   4.471  10.650  0.00  0.00    +0.000 C 
ATOM      5  C   UNL     1      44.046   5.363  11.905  0.00  0.00    +0.000 C 
ATOM      6  N   UNL     1      45.475   5.640  12.101  0.00  0.00    +0.000 N 
ATOM      7  C   UNL     1      46.140   5.101  13.205  0.00  0.00    +0.000 C 
ATOM      8  O   UNL     1      45.525   4.483  14.072  0.00  0.00    +0.000 OA
ATOM     25  C   UNL     1      46.100   6.276  10.939  0.00  0.00    +0.000 C 
ATOM     26  C   UNL     1      45.844   5.445   9.666  0.00  0.00    +0.000 C 
ATOM     27  N   UNL     1      44.419   5.128   9.461  0.00  0.00    +0.000 NA
ATOM     30  H   UNL     1      44.311   4.541   8.638  0.00  0.00    +0.000 HD
BRANCH   4   2
ATOM      1  C   UNL     1      44.319   2.204   9.524  0.00  0.00    +0.000 C 
ATOM      2  C   UNL     1      44.254   2.985  10.846  0.00  0.00    +0.000 C 
ATOM      3  C   UNL     1      43.317   2.214  11.787  0.00  0.00    +0.000 C 
ENDBRANCH   4   2
ENDBRANCH   9   7
ENDBRANCH  10   9
TORSDOF 5
ENDMDL
MODEL 3
REMARK VINA RESULT:    -6.035      1.937      2.604
REMARK INTER + INTRA:          -8.874
REMARK INTER:                  -8.067
REMARK INTRA:                  -0.806
REMARK UNBOUND:                -1.075
REMARK  Name = 
REMARK  7 active torsions:
REMARK  status: ('A' for Active; 'I' for Inactive)
REMARK    1  A    between atoms: C_1  and  C_2
REMARK    2  A    between atoms: C_2  and  C_3
REMARK    3  A    between atoms: C_2  and  C_4
REMARK    4  A    between atoms: C_7  and  C_9
REMARK    5  A    between atoms: C_9  and  N_10
REMARK    6  A    between atoms: C_11  and  C_12
REMARK    7  A    between atoms: C_18  and  C_19
REMARK                            x       y       z     vdW  Elec       q    Type
REMARK                         _______ _______ _______ _____ _____    ______ ____
ROOT
ATOM     10  N   UNL     1      48.178   6.729  14.342  0.00  0.00    +0.000 N 
ATOM     11  C   UNL     1      47.819   7.965  13.822  0.00  0.00    +0.000 A 
ATOM     15  C   UNL     1      46.795   7.758  12.929  0.00  0.00    +0.000 A 
ATOM     16  C   UNL     1      46.507   6.376  12.899  0.00  0.00    +0.000 A 
ATOM     17  C   UNL     1      45.617   5.579  12.173  0.00  0.00    +0.000 A 
ATOM     18  C   UNL     1      45.602   4.207  12.432  0.00  0.00    +0.000 A 
ATOM     22  C   UNL     1      46.459   3.720  13.418  0.00  0.00    +0.000 A 
ATOM     23  N   UNL     1      47.329   4.452  14.165  0.00  0.00    +0.000 NA
ATOM     24  C   UNL     1      47.342   5.759  13.828  0.00  0.00    +0.000 A 
ENDROOT
BRANCH  18  19
ATOM     19  C   UNL     1      44.722   3.262  11.701  0.00  0.00    +0.000 C 
ATOM     20  N   UNL     1      43.819   2.517  12.427  0.00  0.00    +0.000 N 
ATOM     21  O   UNL     1      44.792   3.140  10.481  0.00  0.00    +0.000 OA
ATOM     28  H   UNL     1      43.688   2.562  13.421  0.00  0.00    +0.000 HD
ATOM     29  H   UNL     1      43.225   1.897  11.892  0.00  0.00    +0.000 HD
ENDBRANCH  18  19
BRANCH  11  12
ATOM     12  C   UNL     1      48.421   9.328  14.157  0.00  0.00    +0.000 C 
ATOM     13  C   UNL     1      48.477  10.353  13.041  0.00  0.00    +0.000 C 
ATOM     14  C   UNL     1      49.743   9.746  13.541  0.00  0.00    +0.000 C 
ENDBRANCH  11  12
BRANCH  10   9
ATOM      9  C   UNL     1      49.144   6.455  15.405  0.00  0.00    +0.000 C 
BRANCH   9   7
ATOM      4  C   UNL     1      48.606   5.107  19.921  0.00  0.00    +0.000 C 
ATOM      5  C   UNL     1      47.685   5.868  18.920  0.00  0.00    +0.000 C 
ATOM      6  N   UNL     1      48.126   5.674  17.533  0.00  0.00    +0.000 N 
ATOM      7  C   UNL     1      48.645   6.753  16.813  0.00  0.00    +0.000 C 
ATOM      8  O   UNL     1      48.642   7.888  17.289  0.00  0.00    +0.000 OA
ATOM     25  C   UNL     1      48.190   4.263  17.144  0.00  0.00    +0.000 C 
ATOM     26  C   UNL     1      49.055   3.467  18.139  0.00  0.00    +0.000 C 
ATOM     27  N   UNL     1      48.651   3.666  19.542  0.00  0.00    +0.000 NA
ATOM     30  H   UNL     1      49.281   3.159  20.158  0.00  0.00    +0.000 HD
BRANCH   4   2
ATOM      1  C   UNL     1      50.882   5.043  21.139  0.00  0.00    +0.000 C 
ATOM      2  C   UNL     1      50.018   5.758  20.088  0.00  0.00    +0.000 C 
ATOM      3  C   UNL     1      49.934   7.237  20.494  0.00  0.00    +0.000 C 
ENDBRANCH   4   2
ENDBRANCH   9   7
ENDBRANCH  10   9
TORSDOF 5
ENDMDL
MODEL 4
REMARK VINA RESULT:    -5.791      1.929      2.721
REMARK INTER + INTRA:          -8.558
REMARK INTER:                  -7.586
REMARK INTRA:                  -0.972
REMARK UNBOUND:                -1.075
REMARK  Name = 
REMARK  7 active torsions:
REMARK  status: ('A' for Active; 'I' for Inactive)
REMARK    1  A    between atoms: C_1  and  C_2
REMARK    2  A    between atoms: C_2  and  C_3
REMARK    3  A    between atoms: C_2  and  C_4
REMARK    4  A    between atoms: C_7  and  C_9
REMARK    5  A    between atoms: C_9  and  N_10
REMARK    6  A    between atoms: C_11  and  C_12
REMARK    7  A    between atoms: C_18  and  C_19
REMARK                            x       y       z     vdW  Elec       q    Type
REMARK                         _______ _______ _______ _____ _____    ______ ____
ROOT
ATOM     10  N   UNL     1      47.657   7.019  13.631  0.00  0.00    +0.000 N 
ATOM     11  C   UNL     1      48.383   7.743  12.694  0.00  0.00    +0.000 A 
ATOM     15  C   UNL     1      47.850   7.472  11.457  0.00  0.00    +0.000 A 
ATOM     16  C   UNL     1      46.773   6.575  11.625  0.00  0.00    +0.000 A 
ATOM     17  C   UNL     1      45.896   5.926  10.752  0.00  0.00    +0.000 A 
ATOM     18  C   UNL     1      44.914   5.098  11.300  0.00  0.00    +0.000 A 
ATOM     22  C   UNL     1      44.853   4.990  12.688  0.00  0.00    +0.000 A 
ATOM     23  N   UNL     1      45.668   5.612  13.583  0.00  0.00    +0.000 NA
ATOM     24  C   UNL     1      46.633   6.348  12.993  0.00  0.00    +0.000 A 
ENDROOT
BRANCH  18  19
ATOM     19  C   UNL     1      43.950   4.336  10.468  0.00  0.00    +0.000 C 
ATOM     20  N   UNL     1      44.030   4.458   9.099  0.00  0.00    +0.000 N 
ATOM     21  O   UNL     1      43.099   3.613  10.980  0.00  0.00    +0.000 OA
ATOM     28  H   UNL     1      44.699   5.014   8.599  0.00  0.00    +0.000 HD
ATOM     29  H   UNL     1      43.368   3.910   8.566  0.00  0.00    +0.000 HD
ENDBRANCH  18  19
BRANCH  11  12
ATOM     12  C   UNL     1      49.560   8.682  12.951  0.00  0.00    +0.000 C 
ATOM     13  C   UNL     1      50.726   8.609  11.985  0.00  0.00    +0.000 C 
ATOM     14  C   UNL     1      50.901   8.117  13.380  0.00  0.00    +0.000 C 
ENDBRANCH  11  12
BRANCH  10   9
ATOM      9  C   UNL     1      47.782   7.066  15.086  0.00  0.00    +0.000 C 
BRANCH   9   7
ATOM      4  C   UNL     1      50.233   5.257  18.723  0.00  0.00    +0.000 C 
ATOM      5  C   UNL     1      50.416   5.189  17.176  0.00  0.00    +0.000 C 
ATOM      6  N   UNL     1      49.653   6.246  16.500  0.00  0.00    +0.000 N 
ATOM      7  C   UNL     1      48.561   5.908  15.698  0.00  0.00    +0.000 C 
ATOM      8  O   UNL     1      48.290   4.731  15.466  0.00  0.00    +0.000 OA
ATOM     25  C   UNL     1      50.005   7.591  16.962  0.00  0.00    +0.000 C 
ATOM     26  C   UNL     1      49.883   7.685  18.495  0.00  0.00    +0.000 C 
ATOM     27  N   UNL     1      50.615   6.617  19.199  0.00  0.00    +0.000 NA
ATOM     30  H   UNL     1      50.463   6.696  20.201  0.00  0.00    +0.000 HD
BRANCH   4   2
ATOM      1  C   UNL     1      48.709   4.714  20.736  0.00  0.00    +0.000 C 
ATOM      2  C   UNL     1      48.818   4.797  19.205  0.00  0.00    +0.000 C 
ATOM      3  C   UNL     1      48.430   3.421  18.644  0.00  0.00    +0.000 C 
ENDBRANCH   4   2
ENDBRANCH   9   7
ENDBRANCH  10   9
TORSDOF 5
ENDMDL
MODEL 5
REMARK VINA RESULT:    -5.731      2.318      3.733
REMARK INTER + INTRA:          -8.481
REMARK INTER:                  -7.535
REMARK INTRA:                  -0.946
REMARK UNBOUND:                -1.075
REMARK  Name = 
REMARK  7 active torsions:
REMARK  status: ('A' for Active; 'I' for Inactive)
REMARK    1  A    between atoms: C_1  and  C_2
REMARK    2  A    between atoms: C_2  and  C_3
REMARK    3  A    between atoms: C_2  and  C_4
REMARK    4  A    between atoms: C_7  and  C_9
REMARK    5  A    between atoms: C_9  and  N_10
REMARK    6  A    between atoms: C_11  and  C_12
REMARK    7  A    between atoms: C_18  and  C_19
REMARK                            x       y       z     vdW  Elec       q    Type
REMARK                         _______ _______ _______ _____ _____    ______ ____
ROOT
ATOM     10  N   UNL     1      47.067   5.996  14.063  0.00  0.00    +0.000 N 
ATOM     11  C   UNL     1      47.295   4.921  14.912  0.00  0.00    +0.000 A 
ATOM     15  C   UNL     1      46.747   3.806  14.327  0.00  0.00    +0.000 A 
ATOM     16  C   UNL     1      46.176   4.189  13.093  0.00  0.00    +0.000 A 
ATOM     17  C   UNL     1      45.460   3.518  12.097  0.00  0.00    +0.000 A 
ATOM     18  C   UNL     1      45.059   4.243  10.974  0.00  0.00    +0.000 A 
ATOM     22  C   UNL     1      45.418   5.588  10.903  0.00  0.00    +0.000 A 
ATOM     23  N   UNL     1      46.128   6.284  11.833  0.00  0.00    +0.000 NA
ATOM     24  C   UNL     1      46.435   5.546  12.921  0.00  0.00    +0.000 A 
ENDROOT
BRANCH  18  19
ATOM     19  C   UNL     1      44.268   3.643   9.871  0.00  0.00    +0.000 C 
ATOM     20  N   UNL     1      43.993   4.421   8.768  0.00  0.00    +0.000 N 
ATOM     21  O   UNL     1      43.867   2.484   9.931  0.00  0.00    +0.000 OA
ATOM     28  H   UNL     1      44.291   5.369   8.631  0.00  0.00    +0.000 HD
ATOM     29  H   UNL     1      43.468   3.972   8.030  0.00  0.00    +0.000 HD
ENDBRANCH  18  19
BRANCH  11  12
ATOM     12  C   UNL     1      48.023   4.933  16.255  0.00  0.00    +0.000 C 
ATOM     13  C   UNL     1      48.088   3.624  17.018  0.00  0.00    +0.000 C 
ATOM     14  C   UNL     1      47.244   4.735  17.542  0.00  0.00    +0.000 C 
ENDBRANCH  11  12
BRANCH  10   9
ATOM      9  C   UNL     1      47.557   7.366  14.206  0.00  0.00    +0.000 C 
BRANCH   9   7
ATOM      4  C   UNL     1      50.778   7.927  17.643  0.00  0.00    +0.000 C 
ATOM      5  C   UNL     1      50.662   8.481  16.191  0.00  0.00    +0.000 C 
ATOM      6  N   UNL     1      49.290   8.363  15.679  0.00  0.00    +0.000 N 
ATOM      7  C   UNL     1      49.015   7.481  14.632  0.00  0.00    +0.000 C 
ATOM      8  O   UNL     1      49.922   6.877  14.061  0.00  0.00    +0.000 OA
ATOM     25  C   UNL     1      48.304   9.037  16.526  0.00  0.00    +0.000 C 
ATOM     26  C   UNL     1      48.419   8.549  17.983  0.00  0.00    +0.000 C 
ATOM     27  N   UNL     1      49.792   8.630  18.512  0.00  0.00    +0.000 NA
ATOM     30  H   UNL     1      49.821   8.252  19.456  0.00  0.00    +0.000 HD
BRANCH   4   2
ATOM      1  C   UNL     1      50.725   5.844  19.169  0.00  0.00    +0.000 C 
ATOM      2  C   UNL     1      50.688   6.367  17.724  0.00  0.00    +0.000 C 
ATOM      3  C   UNL     1      51.827   5.677  16.959  0.00  0.00    +0.000 C 
ENDBRANCH   4   2
ENDBRANCH   9   7
ENDBRANCH  10   9
TORSDOF 5
ENDMDL
MODEL 6
REMARK VINA RESULT:    -5.668      3.063      4.120
REMARK INTER + INTRA:          -8.399
REMARK INTER:                  -7.219
REMARK INTRA:                  -1.180
REMARK UNBOUND:                -1.075
REMARK  Name = 
REMARK  7 active torsions:
REMARK  status: ('A' for Active; 'I' for Inactive)
REMARK    1  A    between atoms: C_1  and  C_2
REMARK    2  A    between atoms: C_2  and  C_3
REMARK    3  A    between atoms: C_2  and  C_4
REMARK    4  A    between atoms: C_7  and  C_9
REMARK    5  A    between atoms: C_9  and  N_10
REMARK    6  A    between atoms: C_11  and  C_12
REMARK    7  A    between atoms: C_18  and  C_19
REMARK                            x       y       z     vdW  Elec       q    Type
REMARK                         _______ _______ _______ _____ _____    ______ ____
ROOT
ATOM     10  N   UNL     1      47.789   7.264  13.200  0.00  0.00    +0.000 N 
ATOM     11  C   UNL     1      47.192   8.494  12.951  0.00  0.00    +0.000 A 
ATOM     15  C   UNL     1      45.893   8.255  12.574  0.00  0.00    +0.000 A 
ATOM     16  C   UNL     1      45.674   6.860  12.595  0.00  0.00    +0.000 A 
ATOM     17  C   UNL     1      44.591   6.036  12.278  0.00  0.00    +0.000 A 
ATOM     18  C   UNL     1      44.742   4.658  12.443  0.00  0.00    +0.000 A 
ATOM     22  C   UNL     1      45.958   4.191  12.939  0.00  0.00    +0.000 A 
ATOM     23  N   UNL     1      47.036   4.949  13.280  0.00  0.00    +0.000 NA
ATOM     24  C   UNL     1      46.851   6.264  13.041  0.00  0.00    +0.000 A 
ENDROOT
BRANCH  18  19
ATOM     19  C   UNL     1      43.672   3.687  12.110  0.00  0.00    +0.000 C 
ATOM     20  N   UNL     1      43.768   2.410  12.618  0.00  0.00    +0.000 N 
ATOM     21  O   UNL     1      42.721   4.004  11.399  0.00  0.00    +0.000 OA
ATOM     28  H   UNL     1      44.500   2.071  13.213  0.00  0.00    +0.000 HD
ATOM     29  H   UNL     1      43.010   1.782  12.383  0.00  0.00    +0.000 HD
ENDBRANCH  18  19
BRANCH  11  12
ATOM     12  C   UNL     1      47.826   9.878  13.070  0.00  0.00    +0.000 C 
ATOM     13  C   UNL     1      47.404  10.922  12.054  0.00  0.00    +0.000 C 
ATOM     14  C   UNL     1      48.786  10.367  12.002  0.00  0.00    +0.000 C 
ENDBRANCH  11  12
BRANCH  10   9
ATOM      9  C   UNL     1      49.128   7.013  13.730  0.00  0.00    +0.000 C 
BRANCH   9   7
ATOM      4  C   UNL     1      49.828   9.554  17.674  0.00  0.00    +0.000 C 
ATOM      5  C   UNL     1      50.293   8.136  17.224  0.00  0.00    +0.000 C 
ATOM      6  N   UNL     1      50.175   7.970  15.770  0.00  0.00    +0.000 N 
ATOM      7  C   UNL     1      49.235   7.077  15.249  0.00  0.00    +0.000 C 
ATOM      8  O   UNL     1      48.575   6.351  15.991  0.00  0.00    +0.000 OA
ATOM     25  C   UNL     1      50.923   8.978  15.016  0.00  0.00    +0.000 C 
ATOM     26  C   UNL     1      50.525  10.396  15.467  0.00  0.00    +0.000 C 
ATOM     27  N   UNL     1      50.607  10.581  16.927  0.00  0.00    +0.000 NA
ATOM     30  H   UNL     1      50.289  11.515  17.175  0.00  0.00    +0.000 HD
BRANCH   4   2
ATOM      1  C   UNL     1      47.848  11.186  17.964  0.00  0.00    +0.000 C 
ATOM      2  C   UNL     1      48.279   9.757  17.594  0.00  0.00    +0.000 C 
ATOM      3  C   UNL     1      47.516   8.796  18.517  0.00  0.00    +0.000 C 
ENDBRANCH   4   2
ENDBRANCH   9   7
ENDBRANCH  10   9
TORSDOF 5
ENDMDL
MODEL 7
REMARK VINA RESULT:    -5.652      2.374      7.436
REMARK INTER + INTRA:          -8.379
REMARK INTER:                  -7.813
REMARK INTRA:                  -0.566
REMARK UNBOUND:                -1.075
REMARK  Name = 
REMARK  7 active torsions:
REMARK  status: ('A' for Active; 'I' for Inactive)
REMARK    1  A    between atoms: C_1  and  C_2
REMARK    2  A    between atoms: C_2  and  C_3
REMARK    3  A    between atoms: C_2  and  C_4
REMARK    4  A    between atoms: C_7  and  C_9
REMARK    5  A    between atoms: C_9  and  N_10
REMARK    6  A    between atoms: C_11  and  C_12
REMARK    7  A    between atoms: C_18  and  C_19
REMARK                            x       y       z     vdW  Elec       q    Type
REMARK                         _______ _______ _______ _____ _____    ______ ____
ROOT
ATOM     10  N   UNL     1      48.224   7.212  13.124  0.00  0.00    +0.000 N 
ATOM     11  C   UNL     1      49.106   8.261  13.346  0.00  0.00    +0.000 A 
ATOM     15  C   UNL     1      49.598   8.126  14.622  0.00  0.00    +0.000 A 
ATOM     16  C   UNL     1      49.021   6.973  15.199  0.00  0.00    +0.000 A 
ATOM     17  C   UNL     1      49.103   6.364  16.454  0.00  0.00    +0.000 A 
ATOM     18  C   UNL     1      48.381   5.187  16.663  0.00  0.00    +0.000 A 
ATOM     22  C   UNL     1      47.640   4.680  15.597  0.00  0.00    +0.000 A 
ATOM     23  N   UNL     1      47.541   5.221  14.352  0.00  0.00    +0.000 NA
ATOM     24  C   UNL     1      48.211   6.387  14.230  0.00  0.00    +0.000 A 
ENDROOT
BRANCH  18  19
ATOM     19  C   UNL     1      48.368   4.472  17.962  0.00  0.00    +0.000 C 
ATOM     20  N   UNL     1      47.288   4.655  18.797  0.00  0.00    +0.000 N 
ATOM     21  O   UNL     1      49.293   3.734  18.293  0.00  0.00    +0.000 OA
ATOM     28  H   UNL     1      46.488   5.227  18.602  0.00  0.00    +0.000 HD
ATOM     29  H   UNL     1      47.308   4.136  19.666  0.00  0.00    +0.000 HD
ENDBRANCH  18  19
BRANCH  11  12
ATOM     12  C   UNL     1      49.492   9.376  12.376  0.00  0.00    +0.000 C 
ATOM     13  C   UNL     1      49.691  10.761  12.959  0.00  0.00    +0.000 C 
ATOM     14  C   UNL     1      48.514  10.498  12.084  0.00  0.00    +0.000 C 
ENDBRANCH  11  12
BRANCH  10   9
ATOM      9  C   UNL     1      47.537   6.872  11.879  0.00  0.00    +0.000 C 
BRANCH   9   7
ATOM      4  C   UNL     1      43.409   4.843  10.718  0.00  0.00    +0.000 C 
ATOM      5  C   UNL     1      43.864   6.327  10.862  0.00  0.00    +0.000 C 
ATOM      6  N   UNL     1      45.327   6.445  10.828  0.00  0.00    +0.000 N 
ATOM      7  C   UNL     1      46.017   6.840  11.976  0.00  0.00    +0.000 C 
ATOM      8  O   UNL     1      45.410   7.190  12.988  0.00  0.00    +0.000 OA
ATOM     25  C   UNL     1      45.919   5.882   9.612  0.00  0.00    +0.000 C 
ATOM     26  C   UNL     1      45.454   4.427   9.409  0.00  0.00    +0.000 C 
ATOM     27  N   UNL     1      43.990   4.276   9.468  0.00  0.00    +0.000 NA
ATOM     30  H   UNL     1      43.740   3.294   9.377  0.00  0.00    +0.000 HD
BRANCH   4   2
ATOM      1  C   UNL     1      43.238   2.519  11.829  0.00  0.00    +0.000 C 
ATOM      2  C   UNL     1      43.690   3.979  11.991  0.00  0.00    +0.000 C 
ATOM      3  C   UNL     1      42.994   4.538  13.240  0.00  0.00    +0.000 C 
ENDBRANCH   4   2
ENDBRANCH   9   7
ENDBRANCH  10   9
TORSDOF 5
ENDMDL
MODEL 8
REMARK VINA RESULT:    -5.639      2.257      3.385
REMARK INTER + INTRA:          -8.361
REMARK INTER:                  -7.526
REMARK INTRA:                  -0.835
REMARK UNBOUND:                -1.075
REMARK  Name = 
REMARK  7 active torsions:
REMARK  status: ('A' for Active; 'I' for Inactive)
REMARK    1  A    between atoms: C_1  and  C_2
REMARK    2  A    between atoms: C_2  and  C_3
REMARK    3  A    between atoms: C_2  and  C_4
REMARK    4  A    between atoms: C_7  and  C_9
REMARK    5  A    between atoms: C_9  and  N_10
REMARK    6  A    between atoms: C_11  and  C_12
REMARK    7  A    between atoms: C_18  and  C_19
REMARK                            x       y       z     vdW  Elec       q    Type
REMARK                         _______ _______ _______ _____ _____    ______ ____
ROOT
ATOM     10  N   UNL     1      48.187   7.649  13.968  0.00  0.00    +0.000 N 
ATOM     11  C   UNL     1      48.821   8.418  13.001  0.00  0.00    +0.000 A 
ATOM     15  C   UNL     1      48.314   8.049  11.778  0.00  0.00    +0.000 A 
ATOM     16  C   UNL     1      47.345   7.043  11.987  0.00  0.00    +0.000 A 
ATOM     17  C   UNL     1      46.540   6.271  11.143  0.00  0.00    +0.000 A 
ATOM     18  C   UNL     1      45.661   5.358  11.727  0.00  0.00    +0.000 A 
ATOM     22  C   UNL     1      45.622   5.289  13.119  0.00  0.00    +0.000 A 
ATOM     23  N   UNL     1      46.368   6.028  13.985  0.00  0.00    +0.000 NA
ATOM     24  C   UNL     1      47.240   6.848  13.362  0.00  0.00    +0.000 A 
ENDROOT
BRANCH  18  19
ATOM     19  C   UNL     1      44.783   4.466  10.931  0.00  0.00    +0.000 C 
ATOM     20  N   UNL     1      44.094   5.008   9.868  0.00  0.00    +0.000 N 
ATOM     21  O   UNL     1      44.667   3.275  11.206  0.00  0.00    +0.000 OA
ATOM     28  H   UNL     1      44.140   5.963   9.567  0.00  0.00    +0.000 HD
ATOM     29  H   UNL     1      43.521   4.365   9.338  0.00  0.00    +0.000 HD
ENDBRANCH  18  19
BRANCH  11  12
ATOM     12  C   UNL     1      49.887   9.491  13.215  0.00  0.00    +0.000 C 
ATOM     13  C   UNL     1      50.935   9.651  12.130  0.00  0.00    +0.000 C 
ATOM     14  C   UNL     1      51.331   9.089  13.452  0.00  0.00    +0.000 C 
ENDBRANCH  11  12
BRANCH  10   9
ATOM      9  C   UNL     1      48.315   7.757  15.419  0.00  0.00    +0.000 C 
BRANCH   9   7
ATOM      4  C   UNL     1      49.120   4.292  18.557  0.00  0.00    +0.000 C 
ATOM      5  C   UNL     1      49.957   5.520  18.088  0.00  0.00    +0.000 C 
ATOM      6  N   UNL     1      49.115   6.519  17.419  0.00  0.00    +0.000 N 
ATOM      7  C   UNL     1      49.274   6.756  16.052  0.00  0.00    +0.000 C 
ATOM      8  O   UNL     1      50.179   6.214  15.419  0.00  0.00    +0.000 OA
ATOM     25  C   UNL     1      48.009   6.989  18.257  0.00  0.00    +0.000 C 
ATOM     26  C   UNL     1      47.184   5.798  18.780  0.00  0.00    +0.000 C 
ATOM     27  N   UNL     1      48.009   4.765  19.431  0.00  0.00    +0.000 NA
ATOM     30  H   UNL     1      47.424   3.983  19.713  0.00  0.00    +0.000 HD
BRANCH   4   2
ATOM      1  C   UNL     1      47.321   2.658  17.683  0.00  0.00    +0.000 C 
ATOM      2  C   UNL     1      48.648   3.374  17.382  0.00  0.00    +0.000 C 
ATOM      3  C   UNL     1      49.682   2.293  17.035  0.00  0.00    +0.000 C 
ENDBRANCH   4   2
ENDBRANCH   9   7
ENDBRANCH  10   9
TORSDOF 5
ENDMDL
MODEL 9
REMARK VINA RESULT:    -5.630      2.182      4.352
REMARK INTER + INTRA:          -8.350
REMARK INTER:                  -7.464
REMARK INTRA:                  -0.886
REMARK UNBOUND:                -1.075
REMARK  Name = 
REMARK  7 active torsions:
REMARK  status: ('A' for Active; 'I' for Inactive)
REMARK    1  A    between atoms: C_1  and  C_2
REMARK    2  A    between atoms: C_2  and  C_3
REMARK    3  A    between atoms: C_2  and  C_4
REMARK    4  A    between atoms: C_7  and  C_9
REMARK    5  A    between atoms: C_9  and  N_10
REMARK    6  A    between atoms: C_11  and  C_12
REMARK    7  A    between atoms: C_18  and  C_19
REMARK                            x       y       z     vdW  Elec       q    Type
REMARK                         _______ _______ _______ _____ _____    ______ ____
ROOT
ATOM     10  N   UNL     1      47.220   4.504  14.259  0.00  0.00    +0.000 N 
ATOM     11  C   UNL     1      46.343   4.511  13.181  0.00  0.00    +0.000 A 
ATOM     15  C   UNL     1      46.383   5.766  12.623  0.00  0.00    +0.000 A 
ATOM     16  C   UNL     1      47.301   6.548  13.356  0.00  0.00    +0.000 A 
ATOM     17  C   UNL     1      47.723   7.879  13.289  0.00  0.00    +0.000 A 
ATOM     18  C   UNL     1      48.691   8.309  14.199  0.00  0.00    +0.000 A 
ATOM     22  C   UNL     1      49.195   7.376  15.104  0.00  0.00    +0.000 A 
ATOM     23  N   UNL     1      48.834   6.067  15.200  0.00  0.00    +0.000 NA
ATOM     24  C   UNL     1      47.854   5.727  14.336  0.00  0.00    +0.000 A 
ENDROOT
BRANCH  18  19
ATOM     19  C   UNL     1      49.191   9.705  14.240  0.00  0.00    +0.000 C 
ATOM     20  N   UNL     1      48.283  10.717  14.464  0.00  0.00    +0.000 N 
ATOM     21  O   UNL     1      50.382   9.961  14.081  0.00  0.00    +0.000 OA
ATOM     28  H   UNL     1      47.299  10.597  14.616  0.00  0.00    +0.000 HD
ATOM     29  H   UNL     1      48.664  11.653  14.503  0.00  0.00    +0.000 HD
ENDBRANCH  18  19
BRANCH  11  12
ATOM     12  C   UNL     1      45.481   3.357  12.674  0.00  0.00    +0.000 C 
ATOM     13  C   UNL     1      44.765   3.558  11.352  0.00  0.00    +0.000 C 
ATOM     14  C   UNL     1      43.972   3.507  12.613  0.00  0.00    +0.000 C 
ENDBRANCH  11  12
BRANCH  10   9
ATOM      9  C   UNL     1      47.598   3.365  15.093  0.00  0.00    +0.000 C 
BRANCH   9   7
ATOM      4  C   UNL     1      49.343   4.468  19.364  0.00  0.00    +0.000 C 
ATOM      5  C   UNL     1      48.317   3.401  18.876  0.00  0.00    +0.000 C 
ATOM      6  N   UNL     1      48.425   3.177  17.429  0.00  0.00    +0.000 N 
ATOM      7  C   UNL     1      47.380   3.569  16.587  0.00  0.00    +0.000 C 
ATOM      8  O   UNL     1      46.327   4.005  17.050  0.00  0.00    +0.000 OA
ATOM     25  C   UNL     1      49.769   2.772  17.010  0.00  0.00    +0.000 C 
ATOM     26  C   UNL     1      50.819   3.780  17.516  0.00  0.00    +0.000 C 
ATOM     27  N   UNL     1      50.714   4.045  18.962  0.00  0.00    +0.000 NA
ATOM     30  H   UNL     1      51.395   4.749  19.234  0.00  0.00    +0.000 HD
BRANCH   4   2
ATOM      1  C   UNL     1      49.960   6.973  19.485  0.00  0.00    +0.000 C 
ATOM      2  C   UNL     1      48.982   5.926  18.928  0.00  0.00    +0.000 C 
ATOM      3  C   UNL     1      47.571   6.336  19.377  0.00  0.00    +0.000 C 
ENDBRANCH   4   2
ENDBRANCH   9   7
ENDBRANCH  10   9
TORSDOF 5
ENDMDL
