MODEL 1
REMARK VINA RESULT:    -7.411      0.000      0.000
REMARK INTER + INTRA:          -9.570
REMARK INTER:                  -9.144
REMARK INTRA:                  -0.426
REMARK UNBOUND:                -0.426
REMARK  Name = 
REMARK  4 active torsions:
REMARK  status: ('A' for Active; 'I' for Inactive)
REMARK    1  A    between atoms: C_2  and  C_4
REMARK    2  A    between atoms: C_11  and  C_12
REMARK    3  A    between atoms: N_15  and  C_16
REMARK    4  A    between atoms: C_16  and  C_17
REMARK                            x       y       z     vdW  Elec       q    Type
REMARK                         _______ _______ _______ _____ _____    ______ ____
ROOT
ATOM      4  C   UNL     1      46.593   2.741   7.373  0.00  0.00    +0.000 A 
ATOM      5  C   UNL     1      46.884   4.099   7.468  0.00  0.00    +0.000 A 
ATOM      6  N   UNL     1      46.342   4.977   8.357  0.00  0.00    +0.000 NA
ATOM      7  C   UNL     1      45.464   4.394   9.206  0.00  0.00    +0.000 A 
ATOM      8  C   UNL     1      45.100   3.050   9.215  0.00  0.00    +0.000 A 
ATOM      9  C   UNL     1      45.687   2.189   8.279  0.00  0.00    +0.000 A 
ATOM     10  C   UNL     1      44.143   2.884  10.239  0.00  0.00    +0.000 A 
ATOM     11  C   UNL     1      43.936   4.110  10.834  0.00  0.00    +0.000 A 
ATOM     15  N   UNL     1      44.755   5.031  10.209  0.00  0.00    +0.000 N 
ENDROOT
BRANCH   4   2
ATOM      1  N   UNL     1      47.988   2.590   5.386  0.00  0.00    +0.000 N 
ATOM      2  C   UNL     1      47.252   1.925   6.334  0.00  0.00    +0.000 C 
ATOM      3  O   UNL     1      47.175   0.704   6.331  0.00  0.00    +0.000 OA
ATOM     26  H   UNL     1      48.502   2.023   4.725  0.00  0.00    +0.000 HD
ATOM     27  H   UNL     1      48.250   3.561   5.473  0.00  0.00    +0.000 HD
ENDBRANCH   4   2
BRANCH  11  12
ATOM     12  C   UNL     1      42.983   4.362  11.997  0.00  0.00    +0.000 C 
ATOM     13  C   UNL     1      43.527   5.111  13.201  0.00  0.00    +0.000 C 
ATOM     14  C   UNL     1      43.230   3.659  13.318  0.00  0.00    +0.000 C 
ENDBRANCH  11  12
BRANCH  15  16
ATOM     16  C   UNL     1      44.740   6.480  10.396  0.00  0.00    +0.000 C 
BRANCH  16  17
ATOM     17  C   UNL     1      45.778   7.032  11.365  0.00  0.00    +0.000 C 
ATOM     18  O   UNL     1      46.739   6.374  11.762  0.00  0.00    +0.000 OA
ATOM     19  N   UNL     1      45.608   8.366  11.758  0.00  0.00    +0.000 N 
ATOM     20  C   UNL     1      46.635   9.004  12.581  0.00  0.00    +0.000 C 
ATOM     21  C   UNL     1      46.800  10.466  12.159  0.00  0.00    +0.000 C 
ATOM     22  N   UNL     1      45.540  11.180  12.186  0.00  0.00    +0.000 N 
ATOM     23  C   UNL     1      44.354  10.592  11.829  0.00  0.00    +0.000 C 
ATOM     24  O   UNL     1      43.345  11.281  11.682  0.00  0.00    +0.000 OA
ATOM     25  C   UNL     1      44.311   9.056  11.744  0.00  0.00    +0.000 C 
ATOM     28  H   UNL     1      45.532  12.194  12.170  0.00  0.00    +0.000 HD
ENDBRANCH  16  17
ENDBRANCH  15  16
TORSDOF 4
ENDMDL
MODEL 2
REMARK VINA RESULT:    -7.217      5.745      7.583
REMARK INTER + INTRA:          -9.331
REMARK INTER:                  -8.502
REMARK INTRA:                  -0.829
REMARK UNBOUND:                -0.426
REMARK  Name = 
REMARK  4 active torsions:
REMARK  status: ('A' for Active; 'I' for Inactive)
REMARK    1  A    between atoms: C_2  and  C_4
REMARK    2  A    between atoms: C_11  and  C_12
REMARK    3  A    between atoms: N_15  and  C_16
REMARK    4  A    between atoms: C_16  and  C_17
REMARK                            x       y       z     vdW  Elec       q    Type
REMARK                         _______ _______ _______ _____ _____    ______ ____
ROOT
ATOM      4  C   UNL     1      45.316   4.994  11.512  0.00  0.00    +0.000 A 
ATOM      5  C   UNL     1      44.943   4.129  12.536  0.00  0.00    +0.000 A 
ATOM      6  N   UNL     1      45.510   4.054  13.771  0.00  0.00    +0.000 NA
ATOM      7  C   UNL     1      46.506   4.952  13.950  0.00  0.00    +0.000 A 
ATOM      8  C   UNL     1      46.961   5.871  13.009  0.00  0.00    +0.000 A 
ATOM      9  C   UNL     1      46.343   5.907  11.752  0.00  0.00    +0.000 A 
ATOM     10  C   UNL     1      48.025   6.585  13.601  0.00  0.00    +0.000 A 
ATOM     11  C   UNL     1      48.205   6.099  14.879  0.00  0.00    +0.000 A 
ATOM     15  N   UNL     1      47.266   5.108  15.095  0.00  0.00    +0.000 N 
ENDROOT
BRANCH   4   2
ATOM      1  N   UNL     1      45.374   5.069   9.081  0.00  0.00    +0.000 N 
ATOM      2  C   UNL     1      44.613   4.935  10.215  0.00  0.00    +0.000 C 
ATOM      3  O   UNL     1      43.406   4.744  10.145  0.00  0.00    +0.000 OA
ATOM     26  H   UNL     1      44.901   4.948   8.196  0.00  0.00    +0.000 HD
ATOM     27  H   UNL     1      46.382   5.015   9.085  0.00  0.00    +0.000 HD
ENDBRANCH   4   2
BRANCH  11  12
ATOM     12  C   UNL     1      49.251   6.610  15.864  0.00  0.00    +0.000 C 
ATOM     13  C   UNL     1      48.784   7.559  16.954  0.00  0.00    +0.000 C 
ATOM     14  C   UNL     1      49.624   8.081  15.844  0.00  0.00    +0.000 C 
ENDBRANCH  11  12
BRANCH  15  16
ATOM     16  C   UNL     1      47.200   4.205  16.242  0.00  0.00    +0.000 C 
BRANCH  16  17
ATOM     17  C   UNL     1      48.323   3.180  16.341  0.00  0.00    +0.000 C 
ATOM     18  O   UNL     1      48.442   2.240  15.556  0.00  0.00    +0.000 OA
ATOM     19  N   UNL     1      49.258   3.387  17.364  0.00  0.00    +0.000 N 
ATOM     20  C   UNL     1      50.435   2.521  17.440  0.00  0.00    +0.000 C 
ATOM     21  C   UNL     1      51.650   3.340  17.882  0.00  0.00    +0.000 C 
ATOM     22  N   UNL     1      51.400   4.052  19.119  0.00  0.00    +0.000 N 
ATOM     23  C   UNL     1      50.178   4.599  19.418  0.00  0.00    +0.000 C 
ATOM     24  O   UNL     1      50.062   5.354  20.382  0.00  0.00    +0.000 OA
ATOM     25  C   UNL     1      48.965   4.139  18.592  0.00  0.00    +0.000 C 
ATOM     28  H   UNL     1      52.176   4.431  19.650  0.00  0.00    +0.000 HD
ENDBRANCH  16  17
ENDBRANCH  15  16
TORSDOF 4
ENDMDL
MODEL 3
REMARK VINA RESULT:    -6.943      4.490      7.085
REMARK INTER + INTRA:          -8.993
REMARK INTER:                  -8.147
REMARK INTRA:                  -0.846
REMARK UNBOUND:                -0.426
REMARK  Name = 
REMARK  4 active torsions:
REMARK  status: ('A' for Active; 'I' for Inactive)
REMARK    1  A    between atoms: C_2  and  C_4
REMARK    2  A    between atoms: C_11  and  C_12
REMARK    3  A    between atoms: N_15  and  C_16
REMARK    4  A    between atoms: C_16  and  C_17
REMARK                            x       y       z     vdW  Elec       q    Type
REMARK                         _______ _______ _______ _____ _____    ______ ____
ROOT
ATOM      4  C   UNL     1      44.365   5.656  12.299  0.00  0.00    +0.000 A 
ATOM      5  C   UNL     1      45.176   4.934  13.170  0.00  0.00    +0.000 A 
ATOM      6  N   UNL     1      46.390   5.325  13.648  0.00  0.00    +0.000 NA
ATOM      7  C   UNL     1      46.762   6.549  13.207  0.00  0.00    +0.000 A 
ATOM      8  C   UNL     1      46.035   7.366  12.345  0.00  0.00    +0.000 A 
ATOM      9  C   UNL     1      44.791   6.917  11.882  0.00  0.00    +0.000 A 
ATOM     10  C   UNL     1      46.803   8.531  12.128  0.00  0.00    +0.000 A 
ATOM     11  C   UNL     1      47.973   8.411  12.848  0.00  0.00    +0.000 A 
ATOM     15  N   UNL     1      47.940   7.203  13.518  0.00  0.00    +0.000 N 
ENDROOT
BRANCH   4   2
ATOM      1  N   UNL     1      42.009   5.932  11.759  0.00  0.00    +0.000 N 
ATOM      2  C   UNL     1      43.080   5.080  11.853  0.00  0.00    +0.000 C 
ATOM      3  O   UNL     1      42.976   3.900  11.549  0.00  0.00    +0.000 OA
ATOM     26  H   UNL     1      41.154   5.551  11.378  0.00  0.00    +0.000 HD
ATOM     27  H   UNL     1      42.100   6.938  11.794  0.00  0.00    +0.000 HD
ENDBRANCH   4   2
BRANCH  11  12
ATOM     12  C   UNL     1      49.075   9.464  12.895  0.00  0.00    +0.000 C 
ATOM     13  C   UNL     1      48.879  10.645  13.830  0.00  0.00    +0.000 C 
ATOM     14  C   UNL     1      48.789  10.855  12.360  0.00  0.00    +0.000 C 
ENDBRANCH  11  12
BRANCH  15  16
ATOM     16  C   UNL     1      49.039   6.587  14.259  0.00  0.00    +0.000 C 
BRANCH  16  17
ATOM     17  C   UNL     1      49.218   7.066  15.694  0.00  0.00    +0.000 C 
ATOM     18  O   UNL     1      49.872   8.065  15.989  0.00  0.00    +0.000 OA
ATOM     19  N   UNL     1      48.553   6.323  16.679  0.00  0.00    +0.000 N 
ATOM     20  C   UNL     1      48.571   6.797  18.062  0.00  0.00    +0.000 C 
ATOM     21  C   UNL     1      47.219   6.515  18.721  0.00  0.00    +0.000 C 
ATOM     22  N   UNL     1      46.848   5.118  18.614  0.00  0.00    +0.000 N 
ATOM     23  C   UNL     1      47.134   4.365  17.504  0.00  0.00    +0.000 C 
ATOM     24  O   UNL     1      46.636   3.247  17.375  0.00  0.00    +0.000 OA
ATOM     25  C   UNL     1      48.175   4.913  16.514  0.00  0.00    +0.000 C 
ATOM     28  H   UNL     1      46.113   4.743  19.204  0.00  0.00    +0.000 HD
ENDBRANCH  16  17
ENDBRANCH  15  16
TORSDOF 4
ENDMDL
MODEL 4
REMARK VINA RESULT:    -6.799      4.653      8.342
REMARK INTER + INTRA:          -8.815
REMARK INTER:                  -8.651
REMARK INTRA:                  -0.164
REMARK UNBOUND:                -0.426
REMARK  Name = 
REMARK  4 active torsions:
REMARK  status: ('A' for Active; 'I' for Inactive)
REMARK    1  A    between atoms: C_2  and  C_4
REMARK    2  A    between atoms: C_11  and  C_12
REMARK    3  A    between atoms: N_15  and  C_16
REMARK    4  A    between atoms: C_16  and  C_17
REMARK                            x       y       z     vdW  Elec       q    Type
REMARK                         _______ _______ _______ _____ _____    ______ ____
ROOT
ATOM      4  C   UNL     1      48.184   4.872  18.025  0.00  0.00    +0.000 A 
ATOM      5  C   UNL     1      47.510   3.791  17.465  0.00  0.00    +0.000 A 
ATOM      6  N   UNL     1      47.134   3.667  16.163  0.00  0.00    +0.000 NA
ATOM      7  C   UNL     1      47.505   4.723  15.402  0.00  0.00    +0.000 A 
ATOM      8  C   UNL     1      48.188   5.852  15.844  0.00  0.00    +0.000 A 
ATOM      9  C   UNL     1      48.552   5.931  17.195  0.00  0.00    +0.000 A 
ATOM     10  C   UNL     1      48.341   6.709  14.733  0.00  0.00    +0.000 A 
ATOM     11  C   UNL     1      47.758   6.101  13.641  0.00  0.00    +0.000 A 
ATOM     15  N   UNL     1      47.258   4.879  14.050  0.00  0.00    +0.000 N 
ENDROOT
BRANCH   4   2
ATOM      1  N   UNL     1      48.560   3.646  20.092  0.00  0.00    +0.000 N 
ATOM      2  C   UNL     1      48.502   4.866  19.467  0.00  0.00    +0.000 C 
ATOM      3  O   UNL     1      48.734   5.900  20.078  0.00  0.00    +0.000 OA
ATOM     26  H   UNL     1      48.855   3.642  21.059  0.00  0.00    +0.000 HD
ATOM     27  H   UNL     1      48.585   2.771  19.590  0.00  0.00    +0.000 HD
ENDBRANCH   4   2
BRANCH  11  12
ATOM     12  C   UNL     1      47.717   6.692  12.236  0.00  0.00    +0.000 C 
ATOM     13  C   UNL     1      48.980   7.359  11.718  0.00  0.00    +0.000 C 
ATOM     14  C   UNL     1      47.802   8.197  12.068  0.00  0.00    +0.000 C 
ENDBRANCH  11  12
BRANCH  15  16
ATOM     16  C   UNL     1      46.411   3.979  13.270  0.00  0.00    +0.000 C 
BRANCH  16  17
ATOM     17  C   UNL     1      45.161   4.606  12.666  0.00  0.00    +0.000 C 
ATOM     18  O   UNL     1      44.535   5.512  13.214  0.00  0.00    +0.000 OA
ATOM     19  N   UNL     1      44.773   4.121  11.410  0.00  0.00    +0.000 N 
ATOM     20  C   UNL     1      43.661   4.764  10.710  0.00  0.00    +0.000 C 
ATOM     21  C   UNL     1      43.951   4.800   9.207  0.00  0.00    +0.000 C 
ATOM     22  N   UNL     1      44.253   3.483   8.684  0.00  0.00    +0.000 N 
ATOM     23  C   UNL     1      44.963   2.553   9.400  0.00  0.00    +0.000 C 
ATOM     24  O   UNL     1      45.361   1.527   8.851  0.00  0.00    +0.000 OA
ATOM     25  C   UNL     1      45.126   2.784  10.912  0.00  0.00    +0.000 C 
ATOM     28  H   UNL     1      44.225   3.317   7.685  0.00  0.00    +0.000 HD
ENDBRANCH  16  17
ENDBRANCH  15  16
TORSDOF 4
ENDMDL
MODEL 5
REMARK VINA RESULT:    -6.792      4.997      7.309
REMARK INTER + INTRA:          -8.807
REMARK INTER:                  -8.018
REMARK INTRA:                  -0.789
REMARK UNBOUND:                -0.426
REMARK  Name = 
REMARK  4 active torsions:
REMARK  status: ('A' for Active; 'I' for Inactive)
REMARK    1  A    between atoms: C_2  and  C_4
REMARK    2  A    between atoms: C_11  and  C_12
REMARK    3  A    between atoms: N_15  and  C_16
REMARK    4  A    between atoms: C_16  and  C_17
REMARK                            x       y       z     vdW  Elec       q    Type
REMARK                         _______ _______ _______ _____ _____    ______ ____
ROOT
ATOM      4  C   UNL     1      49.758   8.177  12.166  0.00  0.00    +0.000 A 
ATOM      5  C   UNL     1      49.856   7.612  13.435  0.00  0.00    +0.000 A 
ATOM      6  N   UNL     1      48.962   6.760  14.005  0.00  0.00    +0.000 NA
ATOM      7  C   UNL     1      47.920   6.464  13.193  0.00  0.00    +0.000 A 
ATOM      8  C   UNL     1      47.719   6.956  11.906  0.00  0.00    +0.000 A 
ATOM      9  C   UNL     1      48.670   7.831  11.365  0.00  0.00    +0.000 A 
ATOM     10  C   UNL     1      46.502   6.415  11.438  0.00  0.00    +0.000 A 
ATOM     11  C   UNL     1      45.983   5.611  12.431  0.00  0.00    +0.000 A 
ATOM     15  N   UNL     1      46.859   5.633  13.499  0.00  0.00    +0.000 N 
ENDROOT
BRANCH   4   2
ATOM      1  N   UNL     1      52.103   8.809  12.029  0.00  0.00    +0.000 N 
ATOM      2  C   UNL     1      50.805   9.107  11.699  0.00  0.00    +0.000 C 
ATOM      3  O   UNL     1      50.537  10.089  11.020  0.00  0.00    +0.000 OA
ATOM     26  H   UNL     1      52.822   9.404  11.640  0.00  0.00    +0.000 HD
ATOM     27  H   UNL     1      52.386   7.913  12.399  0.00  0.00    +0.000 HD
ENDBRANCH   4   2
BRANCH  11  12
ATOM     12  C   UNL     1      44.679   4.828  12.322  0.00  0.00    +0.000 C 
ATOM     13  C   UNL     1      44.775   3.346  12.001  0.00  0.00    +0.000 C 
ATOM     14  C   UNL     1      44.258   4.284  10.969  0.00  0.00    +0.000 C 
ENDBRANCH  11  12
BRANCH  15  16
ATOM     16  C   UNL     1      46.628   5.066  14.827  0.00  0.00    +0.000 C 
BRANCH  16  17
ATOM     17  C   UNL     1      47.344   3.753  15.118  0.00  0.00    +0.000 C 
ATOM     18  O   UNL     1      47.469   2.859  14.282  0.00  0.00    +0.000 OA
ATOM     19  N   UNL     1      47.903   3.627  16.397  0.00  0.00    +0.000 N 
ATOM     20  C   UNL     1      48.717   2.451  16.705  0.00  0.00    +0.000 C 
ATOM     21  C   UNL     1      49.884   2.855  17.610  0.00  0.00    +0.000 C 
ATOM     22  N   UNL     1      49.430   3.548  18.799  0.00  0.00    +0.000 N 
ATOM     23  C   UNL     1      48.366   4.414  18.784  0.00  0.00    +0.000 C 
ATOM     24  O   UNL     1      48.136   5.122  19.763  0.00  0.00    +0.000 OA
ATOM     25  C   UNL     1      47.423   4.371  17.569  0.00  0.00    +0.000 C 
ATOM     28  H   UNL     1      50.054   3.656  19.590  0.00  0.00    +0.000 HD
ENDBRANCH  16  17
ENDBRANCH  15  16
TORSDOF 4
ENDMDL
MODEL 6
REMARK VINA RESULT:    -6.685      4.674      8.198
REMARK INTER + INTRA:          -8.675
REMARK INTER:                  -7.905
REMARK INTRA:                  -0.770
REMARK UNBOUND:                -0.426
REMARK  Name = 
REMARK  4 active torsions:
REMARK  status: ('A' for Active; 'I' for Inactive)
REMARK    1  A    between atoms: C_2  and  C_4
REMARK    2  A    between atoms: C_11  and  C_12
REMARK    3  A    between atoms: N_15  and  C_16
REMARK    4  A    between atoms: C_16  and  C_17
REMARK                            x       y       z     vdW  Elec       q    Type
REMARK                         _______ _______ _______ _____ _____    ______ ____
ROOT
ATOM      4  C   UNL     1      48.551   4.992  17.606  0.00  0.00    +0.000 A 
ATOM      5  C   UNL     1      47.727   4.299  16.724  0.00  0.00    +0.000 A 
ATOM      6  N   UNL     1      47.493   4.621  15.422  0.00  0.00    +0.000 NA
ATOM      7  C   UNL     1      48.178   5.715  15.017  0.00  0.00    +0.000 A 
ATOM      8  C   UNL     1      49.036   6.483  15.801  0.00  0.00    +0.000 A 
ATOM      9  C   UNL     1      49.243   6.108  17.135  0.00  0.00    +0.000 A 
ATOM     10  C   UNL     1      49.509   7.538  14.991  0.00  0.00    +0.000 A 
ATOM     11  C   UNL     1      48.942   7.404  13.741  0.00  0.00    +0.000 A 
ATOM     15  N   UNL     1      48.137   6.281  13.755  0.00  0.00    +0.000 N 
ENDROOT
BRANCH   4   2
ATOM      1  N   UNL     1      48.356   3.218  19.259  0.00  0.00    +0.000 N 
ATOM      2  C   UNL     1      48.683   4.525  19.001  0.00  0.00    +0.000 C 
ATOM      3  O   UNL     1      49.094   5.260  19.888  0.00  0.00    +0.000 OA
ATOM     26  H   UNL     1      48.524   2.882  20.198  0.00  0.00    +0.000 HD
ATOM     27  H   UNL     1      48.220   2.530  18.533  0.00  0.00    +0.000 HD
ENDBRANCH   4   2
BRANCH  11  12
ATOM     12  C   UNL     1      49.203   8.338  12.565  0.00  0.00    +0.000 C 
ATOM     13  C   UNL     1      50.117   7.836  11.460  0.00  0.00    +0.000 C 
ATOM     14  C   UNL     1      50.596   8.909  12.372  0.00  0.00    +0.000 C 
ENDBRANCH  11  12
BRANCH  15  16
ATOM     16  C   UNL     1      47.213   5.857  12.706  0.00  0.00    +0.000 C 
BRANCH  16  17
ATOM     17  C   UNL     1      45.861   6.559  12.694  0.00  0.00    +0.000 C 
ATOM     18  O   UNL     1      45.741   7.782  12.754  0.00  0.00    +0.000 OA
ATOM     19  N   UNL     1      44.738   5.730  12.565  0.00  0.00    +0.000 N 
ATOM     20  C   UNL     1      43.417   6.340  12.415  0.00  0.00    +0.000 C 
ATOM     21  C   UNL     1      42.575   5.510  11.442  0.00  0.00    +0.000 C 
ATOM     22  N   UNL     1      42.506   4.119  11.839  0.00  0.00    +0.000 N 
ATOM     23  C   UNL     1      43.568   3.464  12.408  0.00  0.00    +0.000 C 
ATOM     24  O   UNL     1      43.532   2.242  12.552  0.00  0.00    +0.000 OA
ATOM     25  C   UNL     1      44.724   4.315  12.960  0.00  0.00    +0.000 C 
ATOM     28  H   UNL     1      41.799   3.512  11.438  0.00  0.00    +0.000 HD
ENDBRANCH  16  17
ENDBRANCH  15  16
TORSDOF 4
ENDMDL
MODEL 7
REMARK VINA RESULT:    -6.622      3.175      4.801
REMARK INTER + INTRA:          -8.597
REMARK INTER:                  -7.791
REMARK INTRA:                  -0.806
REMARK UNBOUND:                -0.426
REMARK  Name = 
REMARK  4 active torsions:
REMARK  status: ('A' for Active; 'I' for Inactive)
REMARK    1  A    between atoms: C_2  and  C_4
REMARK    2  A    between atoms: C_11  and  C_12
REMARK    3  A    between atoms: N_15  and  C_16
REMARK    4  A    between atoms: C_16  and  C_17
REMARK                            x       y       z     vdW  Elec       q    Type
REMARK                         _______ _______ _______ _____ _____    ______ ____
ROOT
ATOM      4  C   UNL     1      44.422   4.181  11.460  0.00  0.00    +0.000 A 
ATOM      5  C   UNL     1      43.689   5.352  11.287  0.00  0.00    +0.000 A 
ATOM      6  N   UNL     1      44.066   6.601  11.677  0.00  0.00    +0.000 NA
ATOM      7  C   UNL     1      45.288   6.626  12.260  0.00  0.00    +0.000 A 
ATOM      8  C   UNL     1      46.115   5.528  12.478  0.00  0.00    +0.000 A 
ATOM      9  C   UNL     1      45.680   4.264  12.057  0.00  0.00    +0.000 A 
ATOM     10  C   UNL     1      47.272   6.001  13.134  0.00  0.00    +0.000 A 
ATOM     11  C   UNL     1      47.139   7.363  13.306  0.00  0.00    +0.000 A 
ATOM     15  N   UNL     1      45.929   7.745  12.759  0.00  0.00    +0.000 N 
ENDROOT
BRANCH   4   2
ATOM      1  N   UNL     1      44.454   2.304   9.913  0.00  0.00    +0.000 N 
ATOM      2  C   UNL     1      43.861   2.895  11.000  0.00  0.00    +0.000 C 
ATOM      3  O   UNL     1      42.925   2.359  11.577  0.00  0.00    +0.000 OA
ATOM     26  H   UNL     1      44.118   1.387   9.652  0.00  0.00    +0.000 HD
ATOM     27  H   UNL     1      45.347   2.599   9.545  0.00  0.00    +0.000 HD
ENDBRANCH   4   2
BRANCH  11  12
ATOM     12  C   UNL     1      48.179   8.261  13.965  0.00  0.00    +0.000 C 
ATOM     13  C   UNL     1      49.339   8.739  13.107  0.00  0.00    +0.000 C 
ATOM     14  C   UNL     1      49.586   7.730  14.172  0.00  0.00    +0.000 C 
ENDBRANCH  11  12
BRANCH  15  16
ATOM     16  C   UNL     1      45.300   9.060  12.868  0.00  0.00    +0.000 C 
BRANCH  16  17
ATOM     17  C   UNL     1      45.638  10.048  11.759  0.00  0.00    +0.000 C 
ATOM     18  O   UNL     1      46.781  10.451  11.547  0.00  0.00    +0.000 OA
ATOM     19  N   UNL     1      44.570  10.453  10.947  0.00  0.00    +0.000 N 
ATOM     20  C   UNL     1      44.839  11.296   9.782  0.00  0.00    +0.000 C 
ATOM     21  C   UNL     1      43.918  10.892   8.629  0.00  0.00    +0.000 C 
ATOM     22  N   UNL     1      42.523  10.911   9.021  0.00  0.00    +0.000 N 
ATOM     23  C   UNL     1      42.106  10.532  10.272  0.00  0.00    +0.000 C 
ATOM     24  O   UNL     1      40.907  10.379  10.500  0.00  0.00    +0.000 OA
ATOM     25  C   UNL     1      43.166  10.430  11.381  0.00  0.00    +0.000 C 
ATOM     28  H   UNL     1      41.798  10.905   8.313  0.00  0.00    +0.000 HD
ENDBRANCH  16  17
ENDBRANCH  15  16
TORSDOF 4
ENDMDL
MODEL 8
REMARK VINA RESULT:    -6.348      4.049      7.632
REMARK INTER + INTRA:          -8.258
REMARK INTER:                  -7.730
REMARK INTRA:                  -0.528
REMARK UNBOUND:                -0.426
REMARK  Name = 
REMARK  4 active torsions:
REMARK  status: ('A' for Active; 'I' for Inactive)
REMARK    1  A    between atoms: C_2  and  C_4
REMARK    2  A    between atoms: C_11  and  C_12
REMARK    3  A    between atoms: N_15  and  C_16
REMARK    4  A    between atoms: C_16  and  C_17
REMARK                            x       y       z     vdW  Elec       q    Type
REMARK                         _______ _______ _______ _____ _____    ______ ____
ROOT
ATOM      4  C   UNL     1      48.258   4.126  16.503  0.00  0.00    +0.000 A 
ATOM      5  C   UNL     1      47.189   3.669  15.737  0.00  0.00    +0.000 A 
ATOM      6  N   UNL     1      46.588   4.339  14.716  0.00  0.00    +0.000 NA
ATOM      7  C   UNL     1      47.154   5.543  14.469  0.00  0.00    +0.000 A 
ATOM      8  C   UNL     1      48.228   6.102  15.157  0.00  0.00    +0.000 A 
ATOM      9  C   UNL     1      48.810   5.371  16.200  0.00  0.00    +0.000 A 
ATOM     10  C   UNL     1      48.470   7.373  14.592  0.00  0.00    +0.000 A 
ATOM     11  C   UNL     1      47.554   7.572  13.581  0.00  0.00    +0.000 A 
ATOM     15  N   UNL     1      46.757   6.446  13.499  0.00  0.00    +0.000 N 
ENDROOT
BRANCH   4   2
ATOM      1  N   UNL     1      48.198   3.420  18.830  0.00  0.00    +0.000 N 
ATOM      2  C   UNL     1      48.783   3.285  17.597  0.00  0.00    +0.000 C 
ATOM      3  O   UNL     1      49.683   2.477  17.411  0.00  0.00    +0.000 OA
ATOM     26  H   UNL     1      48.507   2.786  19.555  0.00  0.00    +0.000 HD
ATOM     27  H   UNL     1      47.327   3.910  18.976  0.00  0.00    +0.000 HD
ENDBRANCH   4   2
BRANCH  11  12
ATOM     12  C   UNL     1      47.482   8.820  12.708  0.00  0.00    +0.000 C 
ATOM     13  C   UNL     1      48.637   9.080  11.757  0.00  0.00    +0.000 C 
ATOM     14  C   UNL     1      48.467   9.948  12.952  0.00  0.00    +0.000 C 
ENDBRANCH  11  12
BRANCH  15  16
ATOM     16  C   UNL     1      45.551   6.289  12.689  0.00  0.00    +0.000 C 
BRANCH  16  17
ATOM     17  C   UNL     1      45.779   5.935  11.225  0.00  0.00    +0.000 C 
ATOM     18  O   UNL     1      46.484   6.610  10.476  0.00  0.00    +0.000 OA
ATOM     19  N   UNL     1      45.170   4.757  10.773  0.00  0.00    +0.000 N 
ATOM     20  C   UNL     1      45.450   4.284   9.418  0.00  0.00    +0.000 C 
ATOM     21  C   UNL     1      45.527   2.756   9.411  0.00  0.00    +0.000 C 
ATOM     22  N   UNL     1      44.337   2.153   9.978  0.00  0.00    +0.000 N 
ATOM     23  C   UNL     1      43.668   2.707  11.039  0.00  0.00    +0.000 C 
ATOM     24  O   UNL     1      42.783   2.069  11.608  0.00  0.00    +0.000 OA
ATOM     25  C   UNL     1      43.976   4.170  11.398  0.00  0.00    +0.000 C 
ATOM     28  H   UNL     1      44.143   1.171   9.819  0.00  0.00    +0.000 HD
ENDBRANCH  16  17
ENDBRANCH  15  16
TORSDOF 4
ENDMDL
MODEL 9
REMARK VINA RESULT:    -6.189      3.348      5.704
REMARK INTER + INTRA:          -8.063
REMARK INTER:                  -7.557
REMARK INTRA:                  -0.506
REMARK UNBOUND:                -0.426
REMARK  Name = 
REMARK  4 active torsions:
REMARK  status: ('A' for Active; 'I' for Inactive)
REMARK    1  A    between atoms: C_2  and  C_4
REMARK    2  A    between atoms: C_11  and  C_12
REMARK    3  A    between atoms: N_15  and  C_16
REMARK    4  A    between atoms: C_16  and  C_17
REMARK                            x       y       z     vdW  Elec       q    Type
REMARK                         _______ _______ _______ _____ _____    ______ ____
ROOT
ATOM      4  C   UNL     1      44.379   4.346  11.588  0.00  0.00    +0.000 A 
ATOM      5  C   UNL     1      45.328   4.518  12.592  0.00  0.00    +0.000 A 
ATOM      6  N   UNL     1      45.829   5.705  13.030  0.00  0.00    +0.000 NA
ATOM      7  C   UNL     1      45.287   6.773  12.397  0.00  0.00    +0.000 A 
ATOM      8  C   UNL     1      44.328   6.729  11.389  0.00  0.00    +0.000 A 
ATOM      9  C   UNL     1      43.846   5.480  10.975  0.00  0.00    +0.000 A 
ATOM     10  C   UNL     1      44.072   8.061  10.998  0.00  0.00    +0.000 A 
ATOM     11  C   UNL     1      44.867   8.890  11.761  0.00  0.00    +0.000 A 
ATOM     15  N   UNL     1      45.601   8.100  12.625  0.00  0.00    +0.000 N 
ENDROOT
BRANCH   4   2
ATOM      1  N   UNL     1      44.692   2.339  10.250  0.00  0.00    +0.000 N 
ATOM      2  C   UNL     1      43.954   2.984  11.211  0.00  0.00    +0.000 C 
ATOM      3  O   UNL     1      43.003   2.434  11.750  0.00  0.00    +0.000 OA
ATOM     26  H   UNL     1      44.447   1.378  10.053  0.00  0.00    +0.000 HD
ATOM     27  H   UNL     1      45.596   2.665   9.938  0.00  0.00    +0.000 HD
ENDBRANCH   4   2
BRANCH  11  12
ATOM     12  C   UNL     1      44.886  10.411  11.659  0.00  0.00    +0.000 C 
ATOM     13  C   UNL     1      43.548  11.124  11.561  0.00  0.00    +0.000 C 
ATOM     14  C   UNL     1      44.435  11.068  10.368  0.00  0.00    +0.000 C 
ENDBRANCH  11  12
BRANCH  15  16
ATOM     16  C   UNL     1      46.694   8.538  13.491  0.00  0.00    +0.000 C 
BRANCH  16  17
ATOM     17  C   UNL     1      48.065   8.627  12.832  0.00  0.00    +0.000 C 
ATOM     18  O   UNL     1      48.254   9.193  11.756  0.00  0.00    +0.000 OA
ATOM     19  N   UNL     1      49.129   8.059  13.544  0.00  0.00    +0.000 N 
ATOM     20  C   UNL     1      50.492   8.220  13.037  0.00  0.00    +0.000 C 
ATOM     21  C   UNL     1      51.459   8.407  14.209  0.00  0.00    +0.000 C 
ATOM     22  N   UNL     1      51.346   7.335  15.177  0.00  0.00    +0.000 N 
ATOM     23  C   UNL     1      50.146   6.749  15.489  0.00  0.00    +0.000 C 
ATOM     24  O   UNL     1      50.067   5.982  16.447  0.00  0.00    +0.000 OA
ATOM     25  C   UNL     1      48.962   6.988  14.536  0.00  0.00    +0.000 C 
ATOM     28  H   UNL     1      52.077   7.196  15.865  0.00  0.00    +0.000 HD
ENDBRANCH  16  17
ENDBRANCH  15  16
TORSDOF 4
ENDMDL
