MODEL 1
REMARK VINA RESULT:    -7.774      0.000      0.000
REMARK INTER + INTRA:         -10.471
REMARK INTER:                 -10.273
REMARK INTRA:                  -0.198
REMARK UNBOUND:                -0.198
REMARK  Name = 
REMARK  6 active torsions:
REMARK  status: ('A' for Active; 'I' for Inactive)
REMARK    1  A    between atoms: N_1  and  C_2
REMARK    2  A    between atoms: C_2  and  C_3
REMARK    3  A    between atoms: C_6  and  C_7
REMARK    4  A    between atoms: C_7  and  N_8
REMARK    5  A    between atoms: C_9  and  C_10
REMARK    6  A    between atoms: C_16  and  C_17
REMARK                            x       y       z     vdW  Elec       q    Type
REMARK                         _______ _______ _______ _____ _____    ______ ____
ROOT
ATOM      8  N   UNL     1      44.555   4.756  10.236  0.00  0.00    +0.000 N 
ATOM      9  C   UNL     1      43.951   3.705  10.904  0.00  0.00    +0.000 A 
ATOM     13  C   UNL     1      44.346   2.535  10.286  0.00  0.00    +0.000 A 
ATOM     14  C   UNL     1      45.227   2.870   9.234  0.00  0.00    +0.000 A 
ATOM     15  C   UNL     1      45.942   2.133   8.277  0.00  0.00    +0.000 A 
ATOM     16  C   UNL     1      46.723   2.842   7.362  0.00  0.00    +0.000 A 
ATOM     20  C   UNL     1      46.761   4.233   7.462  0.00  0.00    +0.000 A 
ATOM     21  N   UNL     1      46.086   4.989   8.367  0.00  0.00    +0.000 NA
ATOM     22  C   UNL     1      45.342   4.255   9.220  0.00  0.00    +0.000 A 
ENDROOT
BRANCH  16  17
ATOM     17  C   UNL     1      47.501   2.191   6.282  0.00  0.00    +0.000 C 
ATOM     18  N   UNL     1      47.797   2.913   5.159  0.00  0.00    +0.000 N 
ATOM     19  O   UNL     1      47.887   1.034   6.388  0.00  0.00    +0.000 OA
ATOM     27  H   UNL     1      47.535   3.868   4.988  0.00  0.00    +0.000 HD
ATOM     28  H   UNL     1      48.345   2.440   4.448  0.00  0.00    +0.000 HD
ENDBRANCH  16  17
BRANCH   9  10
ATOM     10  C   UNL     1      43.031   3.781  12.121  0.00  0.00    +0.000 C 
ATOM     11  C   UNL     1      42.660   5.161  12.641  0.00  0.00    +0.000 C 
ATOM     12  C   UNL     1      43.588   4.306  13.432  0.00  0.00    +0.000 C 
ENDBRANCH   9  10
BRANCH   8   7
ATOM      7  C   UNL     1      44.349   6.185  10.454  0.00  0.00    +0.000 C 
BRANCH   7   6
ATOM      3  C   UNL     1      47.112   8.218  13.131  0.00  0.00    +0.000 A 
ATOM      4  C   UNL     1      47.387   6.914  12.700  0.00  0.00    +0.000 A 
ATOM      5  C   UNL     1      46.524   6.245  11.826  0.00  0.00    +0.000 A 
ATOM      6  C   UNL     1      45.353   6.860  11.365  0.00  0.00    +0.000 A 
ATOM     23  C   UNL     1      45.097   8.181  11.774  0.00  0.00    +0.000 A 
ATOM     24  C   UNL     1      45.963   8.852  12.645  0.00  0.00    +0.000 A 
BRANCH   3   2
ATOM      2  C   UNL     1      48.013   8.898  14.130  0.00  0.00    +0.000 C 
BRANCH   2   1
ATOM      1  N   UNL     1      47.425   8.933  15.464  0.00  0.00    +0.000 NA
ATOM     25  H   UNL     1      47.554   9.861  15.860  0.00  0.00    +0.000 HD
ATOM     26  H   UNL     1      47.937   8.288  16.064  0.00  0.00    +0.000 HD
ENDBRANCH   2   1
ENDBRANCH   3   2
ENDBRANCH   7   6
ENDBRANCH   8   7
TORSDOF 6
ENDMDL
MODEL 2
REMARK VINA RESULT:    -7.279      2.676      6.446
REMARK INTER + INTRA:          -9.817
REMARK INTER:                  -9.764
REMARK INTRA:                  -0.052
REMARK UNBOUND:                -0.198
REMARK  Name = 
REMARK  6 active torsions:
REMARK  status: ('A' for Active; 'I' for Inactive)
REMARK    1  A    between atoms: N_1  and  C_2
REMARK    2  A    between atoms: C_2  and  C_3
REMARK    3  A    between atoms: C_6  and  C_7
REMARK    4  A    between atoms: C_7  and  N_8
REMARK    5  A    between atoms: C_9  and  C_10
REMARK    6  A    between atoms: C_16  and  C_17
REMARK                            x       y       z     vdW  Elec       q    Type
REMARK                         _______ _______ _______ _____ _____    ______ ____
ROOT
ATOM      8  N   UNL     1      45.407   5.508  11.624  0.00  0.00    +0.000 N 
ATOM      9  C   UNL     1      44.961   4.869  12.769  0.00  0.00    +0.000 A 
ATOM     13  C   UNL     1      45.896   5.092  13.761  0.00  0.00    +0.000 A 
ATOM     14  C   UNL     1      46.921   5.901  13.225  0.00  0.00    +0.000 A 
ATOM     15  C   UNL     1      48.108   6.451  13.734  0.00  0.00    +0.000 A 
ATOM     16  C   UNL     1      48.897   7.209  12.867  0.00  0.00    +0.000 A 
ATOM     20  C   UNL     1      48.455   7.389  11.556  0.00  0.00    +0.000 A 
ATOM     21  N   UNL     1      47.317   6.876  11.017  0.00  0.00    +0.000 NA
ATOM     22  C   UNL     1      46.599   6.147  11.896  0.00  0.00    +0.000 A 
ENDROOT
BRANCH  16  17
ATOM     17  C   UNL     1      50.188   7.819  13.266  0.00  0.00    +0.000 C 
ATOM     18  N   UNL     1      50.745   7.453  14.459  0.00  0.00    +0.000 N 
ATOM     19  O   UNL     1      50.758   8.626  12.543  0.00  0.00    +0.000 OA
ATOM     27  H   UNL     1      50.359   6.792  15.111  0.00  0.00    +0.000 HD
ATOM     28  H   UNL     1      51.637   7.878  14.692  0.00  0.00    +0.000 HD
ENDBRANCH  16  17
BRANCH   9  10
ATOM     10  C   UNL     1      43.668   4.077  12.949  0.00  0.00    +0.000 C 
ATOM     11  C   UNL     1      43.571   2.718  12.272  0.00  0.00    +0.000 C 
ATOM     12  C   UNL     1      42.767   3.856  11.748  0.00  0.00    +0.000 C 
ENDBRANCH   9  10
BRANCH   8   7
ATOM      7  C   UNL     1      44.813   5.461  10.290  0.00  0.00    +0.000 C 
BRANCH   7   6
ATOM      3  C   UNL     1      46.503   2.485   7.604  0.00  0.00    +0.000 A 
ATOM      4  C   UNL     1      45.699   2.083   8.677  0.00  0.00    +0.000 A 
ATOM      5  C   UNL     1      45.130   3.020   9.545  0.00  0.00    +0.000 A 
ATOM      6  C   UNL     1      45.358   4.391   9.369  0.00  0.00    +0.000 A 
ATOM     23  C   UNL     1      46.140   4.793   8.270  0.00  0.00    +0.000 A 
ATOM     24  C   UNL     1      46.705   3.855   7.399  0.00  0.00    +0.000 A 
BRANCH   3   2
ATOM      2  C   UNL     1      47.169   1.461   6.721  0.00  0.00    +0.000 C 
BRANCH   2   1
ATOM      1  N   UNL     1      48.463   1.917   6.229  0.00  0.00    +0.000 NA
ATOM     25  H   UNL     1      48.954   1.134   5.807  0.00  0.00    +0.000 HD
ATOM     26  H   UNL     1      49.027   2.219   7.023  0.00  0.00    +0.000 HD
ENDBRANCH   2   1
ENDBRANCH   3   2
ENDBRANCH   7   6
ENDBRANCH   8   7
TORSDOF 6
ENDMDL
MODEL 3
REMARK VINA RESULT:    -7.250      2.868      6.769
REMARK INTER + INTRA:          -9.779
REMARK INTER:                  -9.382
REMARK INTRA:                  -0.397
REMARK UNBOUND:                -0.198
REMARK  Name = 
REMARK  6 active torsions:
REMARK  status: ('A' for Active; 'I' for Inactive)
REMARK    1  A    between atoms: N_1  and  C_2
REMARK    2  A    between atoms: C_2  and  C_3
REMARK    3  A    between atoms: C_6  and  C_7
REMARK    4  A    between atoms: C_7  and  N_8
REMARK    5  A    between atoms: C_9  and  C_10
REMARK    6  A    between atoms: C_16  and  C_17
REMARK                            x       y       z     vdW  Elec       q    Type
REMARK                         _______ _______ _______ _____ _____    ______ ____
ROOT
ATOM      8  N   UNL     1      45.054   5.602  11.577  0.00  0.00    +0.000 N 
ATOM      9  C   UNL     1      45.243   6.968  11.703  0.00  0.00    +0.000 A 
ATOM     13  C   UNL     1      46.031   7.179  12.817  0.00  0.00    +0.000 A 
ATOM     14  C   UNL     1      46.351   5.921  13.373  0.00  0.00    +0.000 A 
ATOM     15  C   UNL     1      47.106   5.498  14.479  0.00  0.00    +0.000 A 
ATOM     16  C   UNL     1      47.182   4.126  14.725  0.00  0.00    +0.000 A 
ATOM     20  C   UNL     1      46.523   3.258  13.854  0.00  0.00    +0.000 A 
ATOM     21  N   UNL     1      45.781   3.620  12.774  0.00  0.00    +0.000 NA
ATOM     22  C   UNL     1      45.734   4.955  12.588  0.00  0.00    +0.000 A 
ENDROOT
BRANCH  16  17
ATOM     17  C   UNL     1      47.918   3.546  15.875  0.00  0.00    +0.000 C 
ATOM     18  N   UNL     1      47.871   4.195  17.077  0.00  0.00    +0.000 N 
ATOM     19  O   UNL     1      48.548   2.503  15.763  0.00  0.00    +0.000 OA
ATOM     27  H   UNL     1      47.371   5.046  17.268  0.00  0.00    +0.000 HD
ATOM     28  H   UNL     1      48.372   3.760  17.846  0.00  0.00    +0.000 HD
ENDBRANCH  16  17
BRANCH   9  10
ATOM     10  C   UNL     1      44.717   8.069  10.785  0.00  0.00    +0.000 C 
ATOM     11  C   UNL     1      44.502   9.449  11.387  0.00  0.00    +0.000 C 
ATOM     12  C   UNL     1      43.322   8.619  11.020  0.00  0.00    +0.000 C 
ENDBRANCH   9  10
BRANCH   8   7
ATOM      7  C   UNL     1      44.200   4.906  10.619  0.00  0.00    +0.000 C 
BRANCH   7   6
ATOM      3  C   UNL     1      46.387   2.574   7.668  0.00  0.00    +0.000 A 
ATOM      4  C   UNL     1      45.603   1.926   8.629  0.00  0.00    +0.000 A 
ATOM      5  C   UNL     1      44.876   2.653   9.578  0.00  0.00    +0.000 A 
ATOM      6  C   UNL     1      44.922   4.053   9.598  0.00  0.00    +0.000 A 
ATOM     23  C   UNL     1      45.686   4.701   8.610  0.00  0.00    +0.000 A 
ATOM     24  C   UNL     1      46.409   3.973   7.658  0.00  0.00    +0.000 A 
BRANCH   3   2
ATOM      2  C   UNL     1      47.222   1.776   6.699  0.00  0.00    +0.000 C 
BRANCH   2   1
ATOM      1  N   UNL     1      48.482   2.439   6.385  0.00  0.00    +0.000 NA
ATOM     25  H   UNL     1      48.398   3.430   6.594  0.00  0.00    +0.000 HD
ATOM     26  H   UNL     1      48.650   2.366   5.382  0.00  0.00    +0.000 HD
ENDBRANCH   2   1
ENDBRANCH   3   2
ENDBRANCH   7   6
ENDBRANCH   8   7
TORSDOF 6
ENDMDL
MODEL 4
REMARK VINA RESULT:    -6.967      4.825      6.938
REMARK INTER + INTRA:          -9.405
REMARK INTER:                  -8.743
REMARK INTRA:                  -0.662
REMARK UNBOUND:                -0.198
REMARK  Name = 
REMARK  6 active torsions:
REMARK  status: ('A' for Active; 'I' for Inactive)
REMARK    1  A    between atoms: N_1  and  C_2
REMARK    2  A    between atoms: C_2  and  C_3
REMARK    3  A    between atoms: C_6  and  C_7
REMARK    4  A    between atoms: C_7  and  N_8
REMARK    5  A    between atoms: C_9  and  C_10
REMARK    6  A    between atoms: C_16  and  C_17
REMARK                            x       y       z     vdW  Elec       q    Type
REMARK                         _______ _______ _______ _____ _____    ______ ____
ROOT
ATOM      8  N   UNL     1      47.404   5.403  15.117  0.00  0.00    +0.000 N 
ATOM      9  C   UNL     1      48.313   6.402  14.812  0.00  0.00    +0.000 A 
ATOM     13  C   UNL     1      48.129   6.744  13.487  0.00  0.00    +0.000 A 
ATOM     14  C   UNL     1      47.074   5.958  12.973  0.00  0.00    +0.000 A 
ATOM     15  C   UNL     1      46.440   5.857  11.725  0.00  0.00    +0.000 A 
ATOM     16  C   UNL     1      45.410   4.923  11.593  0.00  0.00    +0.000 A 
ATOM     20  C   UNL     1      45.062   4.160  12.708  0.00  0.00    +0.000 A 
ATOM     21  N   UNL     1      45.647   4.220  13.934  0.00  0.00    +0.000 NA
ATOM     22  C   UNL     1      46.638   5.132  14.002  0.00  0.00    +0.000 A 
ENDROOT
BRANCH  16  17
ATOM     17  C   UNL     1      44.680   4.693  10.324  0.00  0.00    +0.000 C 
ATOM     18  N   UNL     1      45.292   5.020   9.147  0.00  0.00    +0.000 N 
ATOM     19  O   UNL     1      43.556   4.209  10.319  0.00  0.00    +0.000 OA
ATOM     27  H   UNL     1      46.214   5.408   9.051  0.00  0.00    +0.000 HD
ATOM     28  H   UNL     1      44.769   4.833   8.297  0.00  0.00    +0.000 HD
ENDBRANCH  16  17
BRANCH   9  10
ATOM     10  C   UNL     1      49.330   7.053  15.748  0.00  0.00    +0.000 C 
ATOM     11  C   UNL     1      48.817   8.081  16.744  0.00  0.00    +0.000 C 
ATOM     12  C   UNL     1      49.639   8.530  15.586  0.00  0.00    +0.000 C 
ENDBRANCH   9  10
BRANCH   8   7
ATOM      7  C   UNL     1      47.296   4.647  16.362  0.00  0.00    +0.000 C 
BRANCH   7   6
ATOM      3  C   UNL     1      50.799   2.262  17.347  0.00  0.00    +0.000 A 
ATOM      4  C   UNL     1      50.700   3.581  17.804  0.00  0.00    +0.000 A 
ATOM      5  C   UNL     1      49.577   4.363  17.516  0.00  0.00    +0.000 A 
ATOM      6  C   UNL     1      48.523   3.849  16.751  0.00  0.00    +0.000 A 
ATOM     23  C   UNL     1      48.611   2.513  16.320  0.00  0.00    +0.000 A 
ATOM     24  C   UNL     1      49.733   1.729  16.613  0.00  0.00    +0.000 A 
BRANCH   3   2
ATOM      2  C   UNL     1      52.047   1.456  17.603  0.00  0.00    +0.000 C 
BRANCH   2   1
ATOM      1  N   UNL     1      51.746   0.136  18.144  0.00  0.00    +0.000 NA
ATOM     25  H   UNL     1      52.618  -0.349  18.342  0.00  0.00    +0.000 HD
ATOM     26  H   UNL     1      51.267  -0.410  17.428  0.00  0.00    +0.000 HD
ENDBRANCH   2   1
ENDBRANCH   3   2
ENDBRANCH   7   6
ENDBRANCH   8   7
TORSDOF 6
ENDMDL
MODEL 5
REMARK VINA RESULT:    -6.555      3.555      5.411
REMARK INTER + INTRA:          -8.861
REMARK INTER:                  -7.777
REMARK INTRA:                  -1.083
REMARK UNBOUND:                -0.198
REMARK  Name = 
REMARK  6 active torsions:
REMARK  status: ('A' for Active; 'I' for Inactive)
REMARK    1  A    between atoms: N_1  and  C_2
REMARK    2  A    between atoms: C_2  and  C_3
REMARK    3  A    between atoms: C_6  and  C_7
REMARK    4  A    between atoms: C_7  and  N_8
REMARK    5  A    between atoms: C_9  and  C_10
REMARK    6  A    between atoms: C_16  and  C_17
REMARK                            x       y       z     vdW  Elec       q    Type
REMARK                         _______ _______ _______ _____ _____    ______ ____
ROOT
ATOM      8  N   UNL     1      47.264   7.085  12.826  0.00  0.00    +0.000 N 
ATOM      9  C   UNL     1      47.652   6.622  14.071  0.00  0.00    +0.000 A 
ATOM     13  C   UNL     1      47.092   5.372  14.245  0.00  0.00    +0.000 A 
ATOM     14  C   UNL     1      46.366   5.051  13.077  0.00  0.00    +0.000 A 
ATOM     15  C   UNL     1      45.605   3.945  12.665  0.00  0.00    +0.000 A 
ATOM     16  C   UNL     1      45.008   4.002  11.405  0.00  0.00    +0.000 A 
ATOM     20  C   UNL     1      45.214   5.140  10.624  0.00  0.00    +0.000 A 
ATOM     21  N   UNL     1      45.938   6.234  10.980  0.00  0.00    +0.000 NA
ATOM     22  C   UNL     1      46.485   6.129  12.209  0.00  0.00    +0.000 A 
ENDROOT
BRANCH  16  17
ATOM     17  C   UNL     1      44.154   2.919  10.861  0.00  0.00    +0.000 C 
ATOM     18  N   UNL     1      44.631   2.166   9.825  0.00  0.00    +0.000 N 
ATOM     19  O   UNL     1      43.047   2.688  11.330  0.00  0.00    +0.000 OA
ATOM     27  H   UNL     1      45.528   2.272   9.384  0.00  0.00    +0.000 HD
ATOM     28  H   UNL     1      44.026   1.423   9.489  0.00  0.00    +0.000 HD
ENDBRANCH  16  17
BRANCH   9  10
ATOM     10  C   UNL     1      48.555   7.323  15.085  0.00  0.00    +0.000 C 
ATOM     11  C   UNL     1      50.050   7.058  15.002  0.00  0.00    +0.000 C 
ATOM     12  C   UNL     1      49.269   6.489  16.133  0.00  0.00    +0.000 C 
ENDBRANCH   9  10
BRANCH   8   7
ATOM      7  C   UNL     1      47.516   8.403  12.247  0.00  0.00    +0.000 C 
BRANCH   7   6
ATOM      3  C   UNL     1      51.565   9.224  10.882  0.00  0.00    +0.000 A 
ATOM      4  C   UNL     1      51.118   7.901  10.992  0.00  0.00    +0.000 A 
ATOM      5  C   UNL     1      49.816   7.611  11.412  0.00  0.00    +0.000 A 
ATOM      6  C   UNL     1      48.924   8.638  11.744  0.00  0.00    +0.000 A 
ATOM     23  C   UNL     1      49.366   9.967  11.601  0.00  0.00    +0.000 A 
ATOM     24  C   UNL     1      50.667  10.257  11.176  0.00  0.00    +0.000 A 
BRANCH   3   2
ATOM      2  C   UNL     1      52.992   9.519  10.499  0.00  0.00    +0.000 C 
BRANCH   2   1
ATOM      1  N   UNL     1      53.748   8.305  10.219  0.00  0.00    +0.000 NA
ATOM     25  H   UNL     1      53.197   7.701   9.615  0.00  0.00    +0.000 HD
ATOM     26  H   UNL     1      53.885   7.795  11.092  0.00  0.00    +0.000 HD
ENDBRANCH   2   1
ENDBRANCH   3   2
ENDBRANCH   7   6
ENDBRANCH   8   7
TORSDOF 6
ENDMDL
MODEL 6
REMARK VINA RESULT:    -6.552      3.789      7.383
REMARK INTER + INTRA:          -8.857
REMARK INTER:                  -8.595
REMARK INTRA:                  -0.261
REMARK UNBOUND:                -0.198
REMARK  Name = 
REMARK  6 active torsions:
REMARK  status: ('A' for Active; 'I' for Inactive)
REMARK    1  A    between atoms: N_1  and  C_2
REMARK    2  A    between atoms: C_2  and  C_3
REMARK    3  A    between atoms: C_6  and  C_7
REMARK    4  A    between atoms: C_7  and  N_8
REMARK    5  A    between atoms: C_9  and  C_10
REMARK    6  A    between atoms: C_16  and  C_17
REMARK                            x       y       z     vdW  Elec       q    Type
REMARK                         _______ _______ _______ _____ _____    ______ ____
ROOT
ATOM      8  N   UNL     1      46.188   5.920  13.354  0.00  0.00    +0.000 N 
ATOM      9  C   UNL     1      46.864   7.103  13.108  0.00  0.00    +0.000 A 
ATOM     13  C   UNL     1      47.899   7.189  14.019  0.00  0.00    +0.000 A 
ATOM     14  C   UNL     1      47.872   6.029  14.824  0.00  0.00    +0.000 A 
ATOM     15  C   UNL     1      48.652   5.553  15.890  0.00  0.00    +0.000 A 
ATOM     16  C   UNL     1      48.296   4.329  16.459  0.00  0.00    +0.000 A 
ATOM     20  C   UNL     1      47.202   3.645  15.928  0.00  0.00    +0.000 A 
ATOM     21  N   UNL     1      46.417   4.065  14.902  0.00  0.00    +0.000 NA
ATOM     22  C   UNL     1      46.801   5.255  14.395  0.00  0.00    +0.000 A 
ENDROOT
BRANCH  16  17
ATOM     17  C   UNL     1      49.014   3.729  17.609  0.00  0.00    +0.000 C 
ATOM     18  N   UNL     1      48.289   3.316  18.692  0.00  0.00    +0.000 N 
ATOM     19  O   UNL     1      50.230   3.589  17.594  0.00  0.00    +0.000 OA
ATOM     27  H   UNL     1      47.290   3.377  18.789  0.00  0.00    +0.000 HD
ATOM     28  H   UNL     1      48.812   2.895  19.453  0.00  0.00    +0.000 HD
ENDBRANCH  16  17
BRANCH   9  10
ATOM     10  C   UNL     1      46.570   8.135  12.022  0.00  0.00    +0.000 C 
ATOM     11  C   UNL     1      46.739   9.604  12.378  0.00  0.00    +0.000 C 
ATOM     12  C   UNL     1      45.371   9.052  12.184  0.00  0.00    +0.000 C 
ENDBRANCH   9  10
BRANCH   8   7
ATOM      7  C   UNL     1      44.957   5.450  12.723  0.00  0.00    +0.000 C 
BRANCH   7   6
ATOM      3  C   UNL     1      45.545   3.771   8.753  0.00  0.00    +0.000 A 
ATOM      4  C   UNL     1      45.061   2.964   9.789  0.00  0.00    +0.000 A 
ATOM      5  C   UNL     1      44.847   3.483  11.070  0.00  0.00    +0.000 A 
ATOM      6  C   UNL     1      45.121   4.827  11.353  0.00  0.00    +0.000 A 
ATOM     23  C   UNL     1      45.578   5.643  10.301  0.00  0.00    +0.000 A 
ATOM     24  C   UNL     1      45.787   5.124   9.019  0.00  0.00    +0.000 A 
BRANCH   3   2
ATOM      2  C   UNL     1      45.840   3.180   7.398  0.00  0.00    +0.000 C 
BRANCH   2   1
ATOM      1  N   UNL     1      46.765   4.004   6.629  0.00  0.00    +0.000 NA
ATOM     25  H   UNL     1      46.236   4.574   5.973  0.00  0.00    +0.000 HD
ATOM     26  H   UNL     1      47.360   3.394   6.070  0.00  0.00    +0.000 HD
ENDBRANCH   2   1
ENDBRANCH   3   2
ENDBRANCH   7   6
ENDBRANCH   8   7
TORSDOF 6
ENDMDL
MODEL 7
REMARK VINA RESULT:    -6.363      3.169      5.355
REMARK INTER + INTRA:          -8.607
REMARK INTER:                  -7.841
REMARK INTRA:                  -0.767
REMARK UNBOUND:                -0.198
REMARK  Name = 
REMARK  6 active torsions:
REMARK  status: ('A' for Active; 'I' for Inactive)
REMARK    1  A    between atoms: N_1  and  C_2
REMARK    2  A    between atoms: C_2  and  C_3
REMARK    3  A    between atoms: C_6  and  C_7
REMARK    4  A    between atoms: C_7  and  N_8
REMARK    5  A    between atoms: C_9  and  C_10
REMARK    6  A    between atoms: C_16  and  C_17
REMARK                            x       y       z     vdW  Elec       q    Type
REMARK                         _______ _______ _______ _____ _____    ______ ____
ROOT
ATOM      8  N   UNL     1      46.046   7.832  12.799  0.00  0.00    +0.000 N 
ATOM      9  C   UNL     1      45.311   8.756  12.077  0.00  0.00    +0.000 A 
ATOM     13  C   UNL     1      44.428   8.054  11.279  0.00  0.00    +0.000 A 
ATOM     14  C   UNL     1      44.608   6.677  11.532  0.00  0.00    +0.000 A 
ATOM     15  C   UNL     1      44.015   5.501  11.045  0.00  0.00    +0.000 A 
ATOM     16  C   UNL     1      44.485   4.283  11.540  0.00  0.00    +0.000 A 
ATOM     20  C   UNL     1      45.499   4.305  12.497  0.00  0.00    +0.000 A 
ATOM     21  N   UNL     1      46.105   5.414  12.996  0.00  0.00    +0.000 NA
ATOM     22  C   UNL     1      45.618   6.561  12.479  0.00  0.00    +0.000 A 
ENDROOT
BRANCH  16  17
ATOM     17  C   UNL     1      43.969   2.969  11.087  0.00  0.00    +0.000 C 
ATOM     18  N   UNL     1      44.630   2.314  10.087  0.00  0.00    +0.000 N 
ATOM     19  O   UNL     1      42.978   2.467  11.601  0.00  0.00    +0.000 OA
ATOM     27  H   UNL     1      45.456   2.640   9.616  0.00  0.00    +0.000 HD
ATOM     28  H   UNL     1      44.259   1.410   9.815  0.00  0.00    +0.000 HD
ENDBRANCH  16  17
BRANCH   9  10
ATOM     10  C   UNL     1      45.408  10.279  12.141  0.00  0.00    +0.000 C 
ATOM     11  C   UNL     1      45.289  11.050  10.836  0.00  0.00    +0.000 C 
ATOM     12  C   UNL     1      46.609  10.966  11.518  0.00  0.00    +0.000 C 
ENDBRANCH   9  10
BRANCH   8   7
ATOM      7  C   UNL     1      47.175   8.092  13.689  0.00  0.00    +0.000 C 
BRANCH   7   6
ATOM      3  C   UNL     1      51.138   8.356  11.912  0.00  0.00    +0.000 A 
ATOM      4  C   UNL     1      50.089   7.765  11.198  0.00  0.00    +0.000 A 
ATOM      5  C   UNL     1      48.802   7.683  11.739  0.00  0.00    +0.000 A 
ATOM      6  C   UNL     1      48.530   8.183  13.019  0.00  0.00    +0.000 A 
ATOM     23  C   UNL     1      49.579   8.805  13.721  0.00  0.00    +0.000 A 
ATOM     24  C   UNL     1      50.865   8.891  13.176  0.00  0.00    +0.000 A 
BRANCH   3   2
ATOM      2  C   UNL     1      52.535   8.370  11.346  0.00  0.00    +0.000 C 
BRANCH   2   1
ATOM      1  N   UNL     1      52.974   7.043  10.934  0.00  0.00    +0.000 NA
ATOM     25  H   UNL     1      53.642   6.687  11.613  0.00  0.00    +0.000 HD
ATOM     26  H   UNL     1      53.475   7.124  10.049  0.00  0.00    +0.000 HD
ENDBRANCH   2   1
ENDBRANCH   3   2
ENDBRANCH   7   6
ENDBRANCH   8   7
TORSDOF 6
ENDMDL
MODEL 8
REMARK VINA RESULT:    -6.295      4.819      8.634
REMARK INTER + INTRA:          -8.517
REMARK INTER:                  -7.556
REMARK INTRA:                  -0.961
REMARK UNBOUND:                -0.198
REMARK  Name = 
REMARK  6 active torsions:
REMARK  status: ('A' for Active; 'I' for Inactive)
REMARK    1  A    between atoms: N_1  and  C_2
REMARK    2  A    between atoms: C_2  and  C_3
REMARK    3  A    between atoms: C_6  and  C_7
REMARK    4  A    between atoms: C_7  and  N_8
REMARK    5  A    between atoms: C_9  and  C_10
REMARK    6  A    between atoms: C_16  and  C_17
REMARK                            x       y       z     vdW  Elec       q    Type
REMARK                         _______ _______ _______ _____ _____    ______ ____
ROOT
ATOM      8  N   UNL     1      48.610   7.023  14.610  0.00  0.00    +0.000 N 
ATOM      9  C   UNL     1      48.599   8.391  14.818  0.00  0.00    +0.000 A 
ATOM     13  C   UNL     1      48.629   8.606  16.182  0.00  0.00    +0.000 A 
ATOM     14  C   UNL     1      48.681   7.348  16.823  0.00  0.00    +0.000 A 
ATOM     15  C   UNL     1      48.733   6.928  18.161  0.00  0.00    +0.000 A 
ATOM     16  C   UNL     1      48.761   5.554  18.409  0.00  0.00    +0.000 A 
ATOM     20  C   UNL     1      48.753   4.684  17.319  0.00  0.00    +0.000 A 
ATOM     21  N   UNL     1      48.701   5.043  16.009  0.00  0.00    +0.000 NA
ATOM     22  C   UNL     1      48.668   6.379  15.828  0.00  0.00    +0.000 A 
ENDROOT
BRANCH  16  17
ATOM     17  C   UNL     1      48.785   4.976  19.774  0.00  0.00    +0.000 C 
ATOM     18  N   UNL     1      48.564   3.635  19.921  0.00  0.00    +0.000 N 
ATOM     19  O   UNL     1      49.007   5.673  20.755  0.00  0.00    +0.000 OA
ATOM     27  H   UNL     1      48.387   2.982  19.178  0.00  0.00    +0.000 HD
ATOM     28  H   UNL     1      48.604   3.271  20.868  0.00  0.00    +0.000 HD
ENDBRANCH  16  17
BRANCH   9  10
ATOM     10  C   UNL     1      48.586   9.494  13.761  0.00  0.00    +0.000 C 
ATOM     11  C   UNL     1      49.894   9.812  13.055  0.00  0.00    +0.000 C 
ATOM     12  C   UNL     1      49.337  10.784  14.035  0.00  0.00    +0.000 C 
ENDBRANCH   9  10
BRANCH   8   7
ATOM      7  C   UNL     1      48.475   6.315  13.339  0.00  0.00    +0.000 C 
BRANCH   7   6
ATOM      3  C   UNL     1      44.433   5.604  11.892  0.00  0.00    +0.000 A 
ATOM      4  C   UNL     1      44.951   4.824  12.933  0.00  0.00    +0.000 A 
ATOM      5  C   UNL     1      46.241   5.043  13.428  0.00  0.00    +0.000 A 
ATOM      6  C   UNL     1      47.055   6.046  12.887  0.00  0.00    +0.000 A 
ATOM     23  C   UNL     1      46.520   6.849  11.863  0.00  0.00    +0.000 A 
ATOM     24  C   UNL     1      45.227   6.633  11.372  0.00  0.00    +0.000 A 
BRANCH   3   2
ATOM      2  C   UNL     1      43.071   5.308  11.320  0.00  0.00    +0.000 C 
BRANCH   2   1
ATOM      1  N   UNL     1      42.080   6.301  11.718  0.00  0.00    +0.000 NA
ATOM     25  H   UNL     1      41.362   5.850  12.279  0.00  0.00    +0.000 HD
ATOM     26  H   UNL     1      41.616   6.655  10.882  0.00  0.00    +0.000 HD
ENDBRANCH   2   1
ENDBRANCH   3   2
ENDBRANCH   7   6
ENDBRANCH   8   7
TORSDOF 6
ENDMDL
MODEL 9
REMARK VINA RESULT:    -6.234      3.542      6.277
REMARK INTER + INTRA:          -8.436
REMARK INTER:                  -7.439
REMARK INTRA:                  -0.997
REMARK UNBOUND:                -0.198
REMARK  Name = 
REMARK  6 active torsions:
REMARK  status: ('A' for Active; 'I' for Inactive)
REMARK    1  A    between atoms: N_1  and  C_2
REMARK    2  A    between atoms: C_2  and  C_3
REMARK    3  A    between atoms: C_6  and  C_7
REMARK    4  A    between atoms: C_7  and  N_8
REMARK    5  A    between atoms: C_9  and  C_10
REMARK    6  A    between atoms: C_16  and  C_17
REMARK                            x       y       z     vdW  Elec       q    Type
REMARK                         _______ _______ _______ _____ _____    ______ ____
ROOT
ATOM      8  N   UNL     1      48.416   7.086  13.667  0.00  0.00    +0.000 N 
ATOM      9  C   UNL     1      48.323   8.024  12.652  0.00  0.00    +0.000 A 
ATOM     13  C   UNL     1      47.379   7.571  11.752  0.00  0.00    +0.000 A 
ATOM     14  C   UNL     1      46.866   6.346  12.232  0.00  0.00    +0.000 A 
ATOM     15  C   UNL     1      45.904   5.434  11.770  0.00  0.00    +0.000 A 
ATOM     16  C   UNL     1      45.673   4.291  12.536  0.00  0.00    +0.000 A 
ATOM     20  C   UNL     1      46.395   4.129  13.719  0.00  0.00    +0.000 A 
ATOM     21  N   UNL     1      47.336   4.980  14.205  0.00  0.00    +0.000 NA
ATOM     22  C   UNL     1      47.525   6.063  13.422  0.00  0.00    +0.000 A 
ENDROOT
BRANCH  16  17
ATOM     17  C   UNL     1      44.709   3.234  12.148  0.00  0.00    +0.000 C 
ATOM     18  N   UNL     1      44.841   2.644  10.922  0.00  0.00    +0.000 N 
ATOM     19  O   UNL     1      43.816   2.880  12.907  0.00  0.00    +0.000 OA
ATOM     27  H   UNL     1      45.546   2.857  10.240  0.00  0.00    +0.000 HD
ATOM     28  H   UNL     1      44.173   1.913  10.697  0.00  0.00    +0.000 HD
ENDBRANCH  16  17
BRANCH   9  10
ATOM     10  C   UNL     1      49.086   9.341  12.529  0.00  0.00    +0.000 C 
ATOM     11  C   UNL     1      48.384  10.610  12.987  0.00  0.00    +0.000 C 
ATOM     12  C   UNL     1      48.604  10.380  11.533  0.00  0.00    +0.000 C 
ENDBRANCH   9  10
BRANCH   8   7
ATOM      7  C   UNL     1      49.359   7.072  14.782  0.00  0.00    +0.000 C 
BRANCH   7   6
ATOM      3  C   UNL     1      47.907   8.453  18.644  0.00  0.00    +0.000 A 
ATOM      4  C   UNL     1      47.954   9.335  17.558  0.00  0.00    +0.000 A 
ATOM      5  C   UNL     1      48.401   8.912  16.302  0.00  0.00    +0.000 A 
ATOM      6  C   UNL     1      48.823   7.592  16.099  0.00  0.00    +0.000 A 
ATOM     23  C   UNL     1      48.743   6.700  17.184  0.00  0.00    +0.000 A 
ATOM     24  C   UNL     1      48.292   7.123  18.440  0.00  0.00    +0.000 A 
BRANCH   3   2
ATOM      2  C   UNL     1      47.493   8.942  20.009  0.00  0.00    +0.000 C 
BRANCH   2   1
ATOM      1  N   UNL     1      46.667  10.140  19.936  0.00  0.00    +0.000 NA
ATOM     25  H   UNL     1      45.694   9.868  19.827  0.00  0.00    +0.000 HD
ATOM     26  H   UNL     1      46.918  10.661  19.096  0.00  0.00    +0.000 HD
ENDBRANCH   2   1
ENDBRANCH   3   2
ENDBRANCH   7   6
ENDBRANCH   8   7
TORSDOF 6
ENDMDL
