MODEL 1
REMARK VINA RESULT:    -8.702      0.000      0.000
REMARK INTER + INTRA:         -12.072
REMARK INTER:                 -11.245
REMARK INTRA:                  -0.827
REMARK UNBOUND:                -0.827
REMARK  Name = 
REMARK  7 active torsions:
REMARK  status: ('A' for Active; 'I' for Inactive)
REMARK    1  A    between atoms: C_1  and  C_2
REMARK    2  A    between atoms: C_2  and  C_3
REMARK    3  A    between atoms: C_2  and  C_4
REMARK    4  A    between atoms: C_2  and  C_15
REMARK    5  A    between atoms: C_4  and  N_5
REMARK    6  A    between atoms: C_9  and  C_10
REMARK    7  A    between atoms: C_19  and  N_20
REMARK                            x       y       z     vdW  Elec       q    Type
REMARK                         _______ _______ _______ _____ _____    ______ ____
ROOT
ATOM      1  C   UNL     1      42.751   6.169  11.716  0.00  0.00    +0.000 C 
ATOM      2  C   UNL     1      43.594   4.952  12.155  0.00  0.00    +0.000 C 
ATOM      3  C   UNL     1      43.021   4.370  13.471  0.00  0.00    +0.000 C 
ENDROOT
BRANCH   2  15
ATOM     15  C   UNL     1      45.048   5.413  12.423  0.00  0.00    +0.000 A 
ATOM     16  C   UNL     1      45.650   6.365  11.583  0.00  0.00    +0.000 A 
ATOM     17  C   UNL     1      46.930   6.846  11.843  0.00  0.00    +0.000 A 
ATOM     18  C   UNL     1      47.622   6.405  12.968  0.00  0.00    +0.000 A 
ATOM     19  C   UNL     1      47.072   5.467  13.846  0.00  0.00    +0.000 A 
ATOM     26  C   UNL     1      45.801   4.960  13.529  0.00  0.00    +0.000 A 
BRANCH  19  20
ATOM     20  N   UNL     1      47.728   5.081  14.994  0.00  0.00    +0.000 N 
ATOM     21  C   UNL     1      47.480   3.778  15.621  0.00  0.00    +0.000 C 
ATOM     22  C   UNL     1      47.074   3.968  17.096  0.00  0.00    +0.000 C 
ATOM     23  N   UNL     1      48.055   4.762  17.870  0.00  0.00    +0.000 NA
ATOM     24  C   UNL     1      48.243   6.068  17.197  0.00  0.00    +0.000 C 
ATOM     25  C   UNL     1      48.662   5.959  15.709  0.00  0.00    +0.000 C 
ATOM     30  H   UNL     1      48.946   4.267  17.842  0.00  0.00    +0.000 HD
ENDBRANCH  19  20
ENDBRANCH   2  15
BRANCH   2   4
ATOM      4  C   UNL     1      43.520   3.844  11.053  0.00  0.00    +0.000 C 
BRANCH   4   5
ATOM      5  N   UNL     1      43.814   4.337   9.714  0.00  0.00    +0.000 N 
ATOM      6  C   UNL     1      44.821   3.759   8.967  0.00  0.00    +0.000 A 
ATOM      7  C   UNL     1      45.167   2.415   9.046  0.00  0.00    +0.000 A 
ATOM      8  C   UNL     1      46.150   1.908   8.193  0.00  0.00    +0.000 A 
ATOM      9  C   UNL     1      46.754   2.745   7.258  0.00  0.00    +0.000 A 
ATOM     13  C   UNL     1      46.350   4.067   7.249  0.00  0.00    +0.000 A 
ATOM     14  N   UNL     1      45.413   4.586   8.085  0.00  0.00    +0.000 NA
ATOM     27  H   UNL     1      43.904   5.344   9.599  0.00  0.00    +0.000 HD
BRANCH   9  10
ATOM     10  C   UNL     1      47.760   2.176   6.331  0.00  0.00    +0.000 C 
ATOM     11  N   UNL     1      48.054   2.843   5.175  0.00  0.00    +0.000 N 
ATOM     12  O   UNL     1      48.326   1.117   6.583  0.00  0.00    +0.000 OA
ATOM     28  H   UNL     1      47.629   3.702   4.857  0.00  0.00    +0.000 HD
ATOM     29  H   UNL     1      48.729   2.404   4.563  0.00  0.00    +0.000 HD
ENDBRANCH   9  10
ENDBRANCH   4   5
ENDBRANCH   2   4
TORSDOF 5
ENDMDL
MODEL 2
REMARK VINA RESULT:    -8.497      2.143      2.717
REMARK INTER + INTRA:         -11.807
REMARK INTER:                 -11.160
REMARK INTRA:                  -0.647
REMARK UNBOUND:                -0.827
REMARK  Name = 
REMARK  7 active torsions:
REMARK  status: ('A' for Active; 'I' for Inactive)
REMARK    1  A    between atoms: C_1  and  C_2
REMARK    2  A    between atoms: C_2  and  C_3
REMARK    3  A    between atoms: C_2  and  C_4
REMARK    4  A    between atoms: C_2  and  C_15
REMARK    5  A    between atoms: C_4  and  N_5
REMARK    6  A    between atoms: C_9  and  C_10
REMARK    7  A    between atoms: C_19  and  N_20
REMARK                            x       y       z     vdW  Elec       q    Type
REMARK                         _______ _______ _______ _____ _____    ______ ____
ROOT
ATOM      1  C   UNL     1      43.159   4.876  13.395  0.00  0.00    +0.000 C 
ATOM      2  C   UNL     1      44.070   4.738  12.156  0.00  0.00    +0.000 C 
ATOM      3  C   UNL     1      45.007   3.517  12.333  0.00  0.00    +0.000 C 
ENDROOT
BRANCH   2  15
ATOM     15  C   UNL     1      44.948   6.007  12.028  0.00  0.00    +0.000 A 
ATOM     16  C   UNL     1      44.347   7.260  11.819  0.00  0.00    +0.000 A 
ATOM     17  C   UNL     1      45.110   8.423  11.769  0.00  0.00    +0.000 A 
ATOM     18  C   UNL     1      46.488   8.359  11.956  0.00  0.00    +0.000 A 
ATOM     19  C   UNL     1      47.141   7.143  12.177  0.00  0.00    +0.000 A 
ATOM     26  C   UNL     1      46.353   5.980  12.170  0.00  0.00    +0.000 A 
BRANCH  19  20
ATOM     20  N   UNL     1      48.495   7.086  12.430  0.00  0.00    +0.000 N 
ATOM     21  C   UNL     1      49.018   6.603  13.712  0.00  0.00    +0.000 C 
ATOM     22  C   UNL     1      49.946   7.663  14.339  0.00  0.00    +0.000 C 
ATOM     23  N   UNL     1      51.039   8.085  13.434  0.00  0.00    +0.000 NA
ATOM     24  C   UNL     1      50.443   8.579  12.171  0.00  0.00    +0.000 C 
ATOM     25  C   UNL     1      49.502   7.564  11.475  0.00  0.00    +0.000 C 
ATOM     30  H   UNL     1      51.595   7.260  13.212  0.00  0.00    +0.000 HD
ENDBRANCH  19  20
ENDBRANCH   2  15
BRANCH   2   4
ATOM      4  C   UNL     1      43.187   4.500  10.887  0.00  0.00    +0.000 C 
BRANCH   4   5
ATOM      5  N   UNL     1      43.825   4.921   9.647  0.00  0.00    +0.000 N 
ATOM      6  C   UNL     1      44.757   4.108   9.035  0.00  0.00    +0.000 A 
ATOM      7  C   UNL     1      44.720   2.719   9.082  0.00  0.00    +0.000 A 
ATOM      8  C   UNL     1      45.667   1.982   8.366  0.00  0.00    +0.000 A 
ATOM      9  C   UNL     1      46.620   2.643   7.597  0.00  0.00    +0.000 A 
ATOM     13  C   UNL     1      46.585   4.026   7.609  0.00  0.00    +0.000 A 
ATOM     14  N   UNL     1      45.688   4.762   8.316  0.00  0.00    +0.000 NA
ATOM     27  H   UNL     1      44.195   5.869   9.614  0.00  0.00    +0.000 HD
BRANCH   9  10
ATOM     10  C   UNL     1      47.586   1.842   6.808  0.00  0.00    +0.000 C 
ATOM     11  N   UNL     1      48.684   2.457   6.276  0.00  0.00    +0.000 N 
ATOM     12  O   UNL     1      47.410   0.643   6.621  0.00  0.00    +0.000 OA
ATOM     28  H   UNL     1      48.910   3.439   6.343  0.00  0.00    +0.000 HD
ATOM     29  H   UNL     1      49.302   1.875   5.725  0.00  0.00    +0.000 HD
ENDBRANCH   9  10
ENDBRANCH   4   5
ENDBRANCH   2   4
TORSDOF 5
ENDMDL
MODEL 3
REMARK VINA RESULT:    -8.479      2.044      3.161
REMARK INTER + INTRA:         -11.784
REMARK INTER:                 -10.806
REMARK INTRA:                  -0.978
REMARK UNBOUND:                -0.827
REMARK  Name = 
REMARK  7 active torsions:
REMARK  status: ('A' for Active; 'I' for Inactive)
REMARK    1  A    between atoms: C_1  and  C_2
REMARK    2  A    between atoms: C_2  and  C_3
REMARK    3  A    between atoms: C_2  and  C_4
REMARK    4  A    between atoms: C_2  and  C_15
REMARK    5  A    between atoms: C_4  and  N_5
REMARK    6  A    between atoms: C_9  and  C_10
REMARK    7  A    between atoms: C_19  and  N_20
REMARK                            x       y       z     vdW  Elec       q    Type
REMARK                         _______ _______ _______ _____ _____    ______ ____
ROOT
ATOM      1  C   UNL     1      43.026   6.720  11.464  0.00  0.00    +0.000 C 
ATOM      2  C   UNL     1      43.587   5.385  12.002  0.00  0.00    +0.000 C 
ATOM      3  C   UNL     1      42.756   4.928  13.227  0.00  0.00    +0.000 C 
ENDROOT
BRANCH   2  15
ATOM     15  C   UNL     1      45.050   5.600  12.464  0.00  0.00    +0.000 A 
ATOM     16  C   UNL     1      45.721   4.585  13.168  0.00  0.00    +0.000 A 
ATOM     17  C   UNL     1      47.056   4.727  13.534  0.00  0.00    +0.000 A 
ATOM     18  C   UNL     1      47.756   5.877  13.176  0.00  0.00    +0.000 A 
ATOM     19  C   UNL     1      47.145   6.916  12.468  0.00  0.00    +0.000 A 
ATOM     26  C   UNL     1      45.783   6.768  12.159  0.00  0.00    +0.000 A 
BRANCH  19  20
ATOM     20  N   UNL     1      47.854   8.023  12.056  0.00  0.00    +0.000 N 
ATOM     21  C   UNL     1      49.229   7.913  11.556  0.00  0.00    +0.000 C 
ATOM     22  C   UNL     1      50.162   8.839  12.362  0.00  0.00    +0.000 C 
ATOM     23  N   UNL     1      49.705  10.247  12.382  0.00  0.00    +0.000 NA
ATOM     24  C   UNL     1      48.324  10.289  12.915  0.00  0.00    +0.000 C 
ATOM     25  C   UNL     1      47.322   9.388  12.149  0.00  0.00    +0.000 C 
ATOM     30  H   UNL     1      49.676  10.578  11.419  0.00  0.00    +0.000 HD
ENDBRANCH  19  20
ENDBRANCH   2  15
BRANCH   2   4
ATOM      4  C   UNL     1      43.473   4.290  10.892  0.00  0.00    +0.000 C 
BRANCH   4   5
ATOM      5  N   UNL     1      43.942   4.734   9.586  0.00  0.00    +0.000 N 
ATOM      6  C   UNL     1      44.914   4.017   8.917  0.00  0.00    +0.000 A 
ATOM      7  C   UNL     1      45.058   2.638   9.010  0.00  0.00    +0.000 A 
ATOM      8  C   UNL     1      46.025   1.995   8.233  0.00  0.00    +0.000 A 
ATOM      9  C   UNL     1      46.816   2.736   7.360  0.00  0.00    +0.000 A 
ATOM     13  C   UNL     1      46.606   4.103   7.332  0.00  0.00    +0.000 A 
ATOM     14  N   UNL     1      45.688   4.751   8.096  0.00  0.00    +0.000 NA
ATOM     27  H   UNL     1      44.184   5.718   9.491  0.00  0.00    +0.000 HD
BRANCH   9  10
ATOM     10  C   UNL     1      47.803   2.029   6.511  0.00  0.00    +0.000 C 
ATOM     11  N   UNL     1      48.173   2.581   5.317  0.00  0.00    +0.000 N 
ATOM     12  O   UNL     1      48.286   0.957   6.861  0.00  0.00    +0.000 OA
ATOM     28  H   UNL     1      47.818   3.439   4.921  0.00  0.00    +0.000 HD
ATOM     29  H   UNL     1      48.831   2.050   4.762  0.00  0.00    +0.000 HD
ENDBRANCH   9  10
ENDBRANCH   4   5
ENDBRANCH   2   4
TORSDOF 5
ENDMDL
MODEL 4
REMARK VINA RESULT:    -8.239      2.710      4.432
REMARK INTER + INTRA:         -11.474
REMARK INTER:                 -10.856
REMARK INTRA:                  -0.617
REMARK UNBOUND:                -0.827
REMARK  Name = 
REMARK  7 active torsions:
REMARK  status: ('A' for Active; 'I' for Inactive)
REMARK    1  A    between atoms: C_1  and  C_2
REMARK    2  A    between atoms: C_2  and  C_3
REMARK    3  A    between atoms: C_2  and  C_4
REMARK    4  A    between atoms: C_2  and  C_15
REMARK    5  A    between atoms: C_4  and  N_5
REMARK    6  A    between atoms: C_9  and  C_10
REMARK    7  A    between atoms: C_19  and  N_20
REMARK                            x       y       z     vdW  Elec       q    Type
REMARK                         _______ _______ _______ _____ _____    ______ ____
ROOT
ATOM      1  C   UNL     1      43.181   4.369  13.430  0.00  0.00    +0.000 C 
ATOM      2  C   UNL     1      44.143   4.420  12.222  0.00  0.00    +0.000 C 
ATOM      3  C   UNL     1      45.076   3.184  12.249  0.00  0.00    +0.000 C 
ENDROOT
BRANCH   2  15
ATOM     15  C   UNL     1      45.021   5.691  12.327  0.00  0.00    +0.000 A 
ATOM     16  C   UNL     1      46.381   5.580  12.661  0.00  0.00    +0.000 A 
ATOM     17  C   UNL     1      47.207   6.700  12.695  0.00  0.00    +0.000 A 
ATOM     18  C   UNL     1      46.693   7.951  12.366  0.00  0.00    +0.000 A 
ATOM     19  C   UNL     1      45.350   8.123  12.017  0.00  0.00    +0.000 A 
ATOM     26  C   UNL     1      44.529   6.984  12.043  0.00  0.00    +0.000 A 
BRANCH  19  20
ATOM     20  N   UNL     1      44.857   9.350  11.627  0.00  0.00    +0.000 N 
ATOM     21  C   UNL     1      43.536   9.483  11.002  0.00  0.00    +0.000 C 
ATOM     22  C   UNL     1      43.662  10.208   9.646  0.00  0.00    +0.000 C 
ATOM     23  N   UNL     1      44.347  11.516   9.749  0.00  0.00    +0.000 NA
ATOM     24  C   UNL     1      45.677  11.307  10.366  0.00  0.00    +0.000 C 
ATOM     25  C   UNL     1      45.632  10.591  11.740  0.00  0.00    +0.000 C 
ATOM     30  H   UNL     1      43.802  12.103  10.379  0.00  0.00    +0.000 HD
ENDBRANCH  19  20
ENDBRANCH   2  15
BRANCH   2   4
ATOM      4  C   UNL     1      43.313   4.382  10.897  0.00  0.00    +0.000 C 
BRANCH   4   5
ATOM      5  N   UNL     1      44.005   4.977   9.761  0.00  0.00    +0.000 N 
ATOM      6  C   UNL     1      44.892   4.224   9.017  0.00  0.00    +0.000 A 
ATOM      7  C   UNL     1      44.757   2.857   8.806  0.00  0.00    +0.000 A 
ATOM      8  C   UNL     1      45.665   2.198   7.974  0.00  0.00    +0.000 A 
ATOM      9  C   UNL     1      46.678   2.919   7.347  0.00  0.00    +0.000 A 
ATOM     13  C   UNL     1      46.739   4.275   7.614  0.00  0.00    +0.000 A 
ATOM     14  N   UNL     1      45.880   4.931   8.438  0.00  0.00    +0.000 NA
ATOM     27  H   UNL     1      44.440   5.885   9.907  0.00  0.00    +0.000 HD
BRANCH   9  10
ATOM     10  C   UNL     1      47.602   2.209   6.432  0.00  0.00    +0.000 C 
ATOM     11  N   UNL     1      48.017   2.832   5.288  0.00  0.00    +0.000 N 
ATOM     12  O   UNL     1      47.993   1.074   6.682  0.00  0.00    +0.000 OA
ATOM     28  H   UNL     1      47.735   3.749   4.972  0.00  0.00    +0.000 HD
ATOM     29  H   UNL     1      48.627   2.299   4.683  0.00  0.00    +0.000 HD
ENDBRANCH   9  10
ENDBRANCH   4   5
ENDBRANCH   2   4
TORSDOF 5
ENDMDL
MODEL 5
REMARK VINA RESULT:    -7.223      2.664      7.943
REMARK INTER + INTRA:         -10.161
REMARK INTER:                  -9.280
REMARK INTRA:                  -0.881
REMARK UNBOUND:                -0.827
REMARK  Name = 
REMARK  7 active torsions:
REMARK  status: ('A' for Active; 'I' for Inactive)
REMARK    1  A    between atoms: C_1  and  C_2
REMARK    2  A    between atoms: C_2  and  C_3
REMARK    3  A    between atoms: C_2  and  C_4
REMARK    4  A    between atoms: C_2  and  C_15
REMARK    5  A    between atoms: C_4  and  N_5
REMARK    6  A    between atoms: C_9  and  C_10
REMARK    7  A    between atoms: C_19  and  N_20
REMARK                            x       y       z     vdW  Elec       q    Type
REMARK                         _______ _______ _______ _____ _____    ______ ____
ROOT
ATOM      1  C   UNL     1      44.589   7.452  11.280  0.00  0.00    +0.000 C 
ATOM      2  C   UNL     1      45.590   6.370  11.741  0.00  0.00    +0.000 C 
ATOM      3  C   UNL     1      46.973   6.632  11.096  0.00  0.00    +0.000 C 
ENDROOT
BRANCH   2  15
ATOM     15  C   UNL     1      45.091   4.983  11.266  0.00  0.00    +0.000 A 
ATOM     16  C   UNL     1      44.064   4.327  11.966  0.00  0.00    +0.000 A 
ATOM     17  C   UNL     1      43.551   3.113  11.519  0.00  0.00    +0.000 A 
ATOM     18  C   UNL     1      44.038   2.543  10.345  0.00  0.00    +0.000 A 
ATOM     19  C   UNL     1      45.052   3.152   9.601  0.00  0.00    +0.000 A 
ATOM     26  C   UNL     1      45.586   4.350  10.104  0.00  0.00    +0.000 A 
BRANCH  19  20
ATOM     20  N   UNL     1      45.487   2.624   8.405  0.00  0.00    +0.000 N 
ATOM     21  C   UNL     1      45.534   1.175   8.176  0.00  0.00    +0.000 C 
ATOM     22  C   UNL     1      46.953   0.752   7.746  0.00  0.00    +0.000 C 
ATOM     23  N   UNL     1      47.451   1.502   6.570  0.00  0.00    +0.000 NA
ATOM     24  C   UNL     1      47.396   2.951   6.875  0.00  0.00    +0.000 C 
ATOM     25  C   UNL     1      45.996   3.455   7.307  0.00  0.00    +0.000 C 
ATOM     30  H   UNL     1      46.812   1.324   5.796  0.00  0.00    +0.000 HD
ENDBRANCH  19  20
ENDBRANCH   2  15
BRANCH   2   4
ATOM      4  C   UNL     1      45.750   6.439  13.295  0.00  0.00    +0.000 C 
BRANCH   4   5
ATOM      5  N   UNL     1      47.138   6.438  13.738  0.00  0.00    +0.000 N 
ATOM      6  C   UNL     1      47.523   5.662  14.812  0.00  0.00    +0.000 A 
ATOM      7  C   UNL     1      46.941   4.441  15.132  0.00  0.00    +0.000 A 
ATOM      8  C   UNL     1      47.453   3.694  16.195  0.00  0.00    +0.000 A 
ATOM      9  C   UNL     1      48.553   4.166  16.906  0.00  0.00    +0.000 A 
ATOM     13  C   UNL     1      49.069   5.390  16.521  0.00  0.00    +0.000 A 
ATOM     14  N   UNL     1      48.572   6.143  15.505  0.00  0.00    +0.000 NA
ATOM     27  H   UNL     1      47.589   7.343  13.852  0.00  0.00    +0.000 HD
BRANCH   9  10
ATOM     10  C   UNL     1      49.110   3.335  17.999  0.00  0.00    +0.000 C 
ATOM     11  N   UNL     1      48.374   3.147  19.135  0.00  0.00    +0.000 N 
ATOM     12  O   UNL     1      50.220   2.821  17.902  0.00  0.00    +0.000 OA
ATOM     28  H   UNL     1      47.467   3.546  19.332  0.00  0.00    +0.000 HD
ATOM     29  H   UNL     1      48.806   2.593  19.863  0.00  0.00    +0.000 HD
ENDBRANCH   9  10
ENDBRANCH   4   5
ENDBRANCH   2   4
TORSDOF 5
ENDMDL
MODEL 6
REMARK VINA RESULT:    -6.969      3.386      7.786
REMARK INTER + INTRA:          -9.832
REMARK INTER:                  -8.761
REMARK INTRA:                  -1.071
REMARK UNBOUND:                -0.827
REMARK  Name = 
REMARK  7 active torsions:
REMARK  status: ('A' for Active; 'I' for Inactive)
REMARK    1  A    between atoms: C_1  and  C_2
REMARK    2  A    between atoms: C_2  and  C_3
REMARK    3  A    between atoms: C_2  and  C_4
REMARK    4  A    between atoms: C_2  and  C_15
REMARK    5  A    between atoms: C_4  and  N_5
REMARK    6  A    between atoms: C_9  and  C_10
REMARK    7  A    between atoms: C_19  and  N_20
REMARK                            x       y       z     vdW  Elec       q    Type
REMARK                         _______ _______ _______ _____ _____    ______ ____
ROOT
ATOM      1  C   UNL     1      49.314   9.804  11.771  0.00  0.00    +0.000 C 
ATOM      2  C   UNL     1      49.008   8.481  12.507  0.00  0.00    +0.000 C 
ATOM      3  C   UNL     1      49.909   7.353  11.945  0.00  0.00    +0.000 C 
ENDROOT
BRANCH   2  15
ATOM     15  C   UNL     1      47.531   8.091  12.254  0.00  0.00    +0.000 A 
ATOM     16  C   UNL     1      46.543   9.088  12.179  0.00  0.00    +0.000 A 
ATOM     17  C   UNL     1      45.221   8.769  11.885  0.00  0.00    +0.000 A 
ATOM     18  C   UNL     1      44.866   7.446  11.631  0.00  0.00    +0.000 A 
ATOM     19  C   UNL     1      45.805   6.413  11.682  0.00  0.00    +0.000 A 
ATOM     26  C   UNL     1      47.121   6.758  12.033  0.00  0.00    +0.000 A 
BRANCH  19  20
ATOM     20  N   UNL     1      45.468   5.114  11.366  0.00  0.00    +0.000 N 
ATOM     21  C   UNL     1      45.204   4.705   9.982  0.00  0.00    +0.000 C 
ATOM     22  C   UNL     1      43.813   4.046   9.880  0.00  0.00    +0.000 C 
ATOM     23  N   UNL     1      43.634   2.918  10.822  0.00  0.00    +0.000 NA
ATOM     24  C   UNL     1      43.895   3.404  12.197  0.00  0.00    +0.000 C 
ATOM     25  C   UNL     1      45.281   4.071  12.381  0.00  0.00    +0.000 C 
ATOM     30  H   UNL     1      44.340   2.216  10.603  0.00  0.00    +0.000 HD
ENDBRANCH  19  20
ENDBRANCH   2  15
BRANCH   2   4
ATOM      4  C   UNL     1      49.322   8.650  14.030  0.00  0.00    +0.000 C 
BRANCH   4   5
ATOM      5  N   UNL     1      50.069   7.535  14.596  0.00  0.00    +0.000 N 
ATOM      6  C   UNL     1      49.432   6.610  15.398  0.00  0.00    +0.000 A 
ATOM      7  C   UNL     1      48.103   6.236  15.241  0.00  0.00    +0.000 A 
ATOM      8  C   UNL     1      47.571   5.233  16.055  0.00  0.00    +0.000 A 
ATOM      9  C   UNL     1      48.381   4.603  16.995  0.00  0.00    +0.000 A 
ATOM     13  C   UNL     1      49.691   5.037  17.085  0.00  0.00    +0.000 A 
ATOM     14  N   UNL     1      50.222   6.026  16.320  0.00  0.00    +0.000 NA
ATOM     27  H   UNL     1      50.956   7.752  15.045  0.00  0.00    +0.000 HD
BRANCH   9  10
ATOM     10  C   UNL     1      47.809   3.509  17.816  0.00  0.00    +0.000 C 
ATOM     11  N   UNL     1      48.421   3.167  18.989  0.00  0.00    +0.000 N 
ATOM     12  O   UNL     1      46.804   2.906  17.455  0.00  0.00    +0.000 OA
ATOM     28  H   UNL     1      49.265   3.575  19.364  0.00  0.00    +0.000 HD
ATOM     29  H   UNL     1      48.008   2.398  19.502  0.00  0.00    +0.000 HD
ENDBRANCH   9  10
ENDBRANCH   4   5
ENDBRANCH   2   4
TORSDOF 5
ENDMDL
MODEL 7
REMARK VINA RESULT:    -6.870      3.000      4.950
REMARK INTER + INTRA:          -9.704
REMARK INTER:                  -8.861
REMARK INTRA:                  -0.843
REMARK UNBOUND:                -0.827
REMARK  Name = 
REMARK  7 active torsions:
REMARK  status: ('A' for Active; 'I' for Inactive)
REMARK    1  A    between atoms: C_1  and  C_2
REMARK    2  A    between atoms: C_2  and  C_3
REMARK    3  A    between atoms: C_2  and  C_4
REMARK    4  A    between atoms: C_2  and  C_15
REMARK    5  A    between atoms: C_4  and  N_5
REMARK    6  A    between atoms: C_9  and  C_10
REMARK    7  A    between atoms: C_19  and  N_20
REMARK                            x       y       z     vdW  Elec       q    Type
REMARK                         _______ _______ _______ _____ _____    ______ ____
ROOT
ATOM      1  C   UNL     1      49.005   7.750  12.004  0.00  0.00    +0.000 C 
ATOM      2  C   UNL     1      48.188   8.713  12.893  0.00  0.00    +0.000 C 
ATOM      3  C   UNL     1      48.647  10.170  12.640  0.00  0.00    +0.000 C 
ENDROOT
BRANCH   2  15
ATOM     15  C   UNL     1      48.451   8.375  14.382  0.00  0.00    +0.000 A 
ATOM     16  C   UNL     1      48.507   9.404  15.337  0.00  0.00    +0.000 A 
ATOM     17  C   UNL     1      48.674   9.120  16.689  0.00  0.00    +0.000 A 
ATOM     18  C   UNL     1      48.760   7.797  17.116  0.00  0.00    +0.000 A 
ATOM     19  C   UNL     1      48.703   6.731  16.214  0.00  0.00    +0.000 A 
ATOM     26  C   UNL     1      48.586   7.049  14.851  0.00  0.00    +0.000 A 
BRANCH  19  20
ATOM     20  N   UNL     1      48.720   5.421  16.642  0.00  0.00    +0.000 N 
ATOM     21  C   UNL     1      47.732   4.445  16.170  0.00  0.00    +0.000 C 
ATOM     22  C   UNL     1      47.016   3.793  17.370  0.00  0.00    +0.000 C 
ATOM     23  N   UNL     1      47.951   3.188  18.345  0.00  0.00    +0.000 NA
ATOM     24  C   UNL     1      48.905   4.228  18.795  0.00  0.00    +0.000 C 
ATOM     25  C   UNL     1      49.672   4.925  17.643  0.00  0.00    +0.000 C 
ATOM     30  H   UNL     1      48.484   2.469  17.858  0.00  0.00    +0.000 HD
ENDBRANCH  19  20
ENDBRANCH   2  15
BRANCH   2   4
ATOM      4  C   UNL     1      46.672   8.602  12.522  0.00  0.00    +0.000 C 
BRANCH   4   5
ATOM      5  N   UNL     1      45.960   7.586  13.284  0.00  0.00    +0.000 N 
ATOM      6  C   UNL     1      45.455   6.469  12.650  0.00  0.00    +0.000 A 
ATOM      7  C   UNL     1      46.047   5.876  11.541  0.00  0.00    +0.000 A 
ATOM      8  C   UNL     1      45.502   4.702  11.017  0.00  0.00    +0.000 A 
ATOM      9  C   UNL     1      44.389   4.125  11.622  0.00  0.00    +0.000 A 
ATOM     13  C   UNL     1      43.863   4.782  12.720  0.00  0.00    +0.000 A 
ATOM     14  N   UNL     1      44.364   5.936  13.232  0.00  0.00    +0.000 NA
ATOM     27  H   UNL     1      45.241   7.908  13.928  0.00  0.00    +0.000 HD
BRANCH   9  10
ATOM     10  C   UNL     1      43.855   2.854  11.078  0.00  0.00    +0.000 C 
ATOM     11  N   UNL     1      44.426   2.316   9.960  0.00  0.00    +0.000 N 
ATOM     12  O   UNL     1      42.908   2.286  11.612  0.00  0.00    +0.000 OA
ATOM     28  H   UNL     1      45.185   2.713   9.427  0.00  0.00    +0.000 HD
ATOM     29  H   UNL     1      44.011   1.461   9.612  0.00  0.00    +0.000 HD
ENDBRANCH   9  10
ENDBRANCH   4   5
ENDBRANCH   2   4
TORSDOF 5
ENDMDL
MODEL 8
REMARK VINA RESULT:    -6.860      2.947      4.940
REMARK INTER + INTRA:          -9.692
REMARK INTER:                  -8.777
REMARK INTRA:                  -0.915
REMARK UNBOUND:                -0.827
REMARK  Name = 
REMARK  7 active torsions:
REMARK  status: ('A' for Active; 'I' for Inactive)
REMARK    1  A    between atoms: C_1  and  C_2
REMARK    2  A    between atoms: C_2  and  C_3
REMARK    3  A    between atoms: C_2  and  C_4
REMARK    4  A    between atoms: C_2  and  C_15
REMARK    5  A    between atoms: C_4  and  N_5
REMARK    6  A    between atoms: C_9  and  C_10
REMARK    7  A    between atoms: C_19  and  N_20
REMARK                            x       y       z     vdW  Elec       q    Type
REMARK                         _______ _______ _______ _____ _____    ______ ____
ROOT
ATOM      1  C   UNL     1      48.883   7.981  11.847  0.00  0.00    +0.000 C 
ATOM      2  C   UNL     1      48.394   8.463  13.230  0.00  0.00    +0.000 C 
ATOM      3  C   UNL     1      48.684   9.977  13.385  0.00  0.00    +0.000 C 
ENDROOT
BRANCH   2  15
ATOM     15  C   UNL     1      49.174   7.708  14.335  0.00  0.00    +0.000 A 
ATOM     16  C   UNL     1      50.547   7.944  14.514  0.00  0.00    +0.000 A 
ATOM     17  C   UNL     1      51.254   7.329  15.542  0.00  0.00    +0.000 A 
ATOM     18  C   UNL     1      50.593   6.486  16.432  0.00  0.00    +0.000 A 
ATOM     19  C   UNL     1      49.227   6.219  16.310  0.00  0.00    +0.000 A 
ATOM     26  C   UNL     1      48.550   6.812  15.232  0.00  0.00    +0.000 A 
BRANCH  19  20
ATOM     20  N   UNL     1      48.559   5.438  17.229  0.00  0.00    +0.000 N 
ATOM     21  C   UNL     1      48.688   5.670  18.672  0.00  0.00    +0.000 C 
ATOM     22  C   UNL     1      49.142   4.375  19.378  0.00  0.00    +0.000 C 
ATOM     23  N   UNL     1      48.262   3.219  19.092  0.00  0.00    +0.000 NA
ATOM     24  C   UNL     1      48.193   3.030  17.624  0.00  0.00    +0.000 C 
ATOM     25  C   UNL     1      47.733   4.288  16.844  0.00  0.00    +0.000 C 
ATOM     30  H   UNL     1      47.325   3.454  19.419  0.00  0.00    +0.000 HD
ENDBRANCH  19  20
ENDBRANCH   2  15
BRANCH   2   4
ATOM      4  C   UNL     1      46.850   8.243  13.340  0.00  0.00    +0.000 C 
BRANCH   4   5
ATOM      5  N   UNL     1      46.222   7.883  12.076  0.00  0.00    +0.000 N 
ATOM      6  C   UNL     1      45.713   6.613  11.890  0.00  0.00    +0.000 A 
ATOM      7  C   UNL     1      45.161   5.846  12.909  0.00  0.00    +0.000 A 
ATOM      8  C   UNL     1      44.603   4.602  12.606  0.00  0.00    +0.000 A 
ATOM      9  C   UNL     1      44.582   4.155  11.288  0.00  0.00    +0.000 A 
ATOM     13  C   UNL     1      45.153   4.982  10.338  0.00  0.00    +0.000 A 
ATOM     14  N   UNL     1      45.723   6.184  10.614  0.00  0.00    +0.000 NA
ATOM     27  H   UNL     1      46.723   8.126  11.224  0.00  0.00    +0.000 HD
BRANCH   9  10
ATOM     10  C   UNL     1      43.942   2.854  10.982  0.00  0.00    +0.000 C 
ATOM     11  N   UNL     1      44.436   2.093   9.960  0.00  0.00    +0.000 N 
ATOM     12  O   UNL     1      42.977   2.457  11.625  0.00  0.00    +0.000 OA
ATOM     28  H   UNL     1      45.203   2.336   9.350  0.00  0.00    +0.000 HD
ATOM     29  H   UNL     1      43.951   1.225   9.773  0.00  0.00    +0.000 HD
ENDBRANCH   9  10
ENDBRANCH   4   5
ENDBRANCH   2   4
TORSDOF 5
ENDMDL
MODEL 9
REMARK VINA RESULT:    -6.776      2.739      5.432
REMARK INTER + INTRA:          -9.584
REMARK INTER:                  -8.785
REMARK INTRA:                  -0.799
REMARK UNBOUND:                -0.827
REMARK  Name = 
REMARK  7 active torsions:
REMARK  status: ('A' for Active; 'I' for Inactive)
REMARK    1  A    between atoms: C_1  and  C_2
REMARK    2  A    between atoms: C_2  and  C_3
REMARK    3  A    between atoms: C_2  and  C_4
REMARK    4  A    between atoms: C_2  and  C_15
REMARK    5  A    between atoms: C_4  and  N_5
REMARK    6  A    between atoms: C_9  and  C_10
REMARK    7  A    between atoms: C_19  and  N_20
REMARK                            x       y       z     vdW  Elec       q    Type
REMARK                         _______ _______ _______ _____ _____    ______ ____
ROOT
ATOM      1  C   UNL     1      49.887   7.902  13.819  0.00  0.00    +0.000 C 
ATOM      2  C   UNL     1      48.722   8.742  14.387  0.00  0.00    +0.000 C 
ATOM      3  C   UNL     1      49.004  10.247  14.152  0.00  0.00    +0.000 C 
ENDROOT
BRANCH   2  15
ATOM     15  C   UNL     1      48.622   8.502  15.914  0.00  0.00    +0.000 A 
ATOM     16  C   UNL     1      48.039   9.477  16.742  0.00  0.00    +0.000 A 
ATOM     17  C   UNL     1      47.875   9.256  18.106  0.00  0.00    +0.000 A 
ATOM     18  C   UNL     1      48.266   8.042  18.665  0.00  0.00    +0.000 A 
ATOM     19  C   UNL     1      48.844   7.031  17.891  0.00  0.00    +0.000 A 
ATOM     26  C   UNL     1      49.044   7.302  16.527  0.00  0.00    +0.000 A 
BRANCH  19  20
ATOM     20  N   UNL     1      49.168   5.805  18.430  0.00  0.00    +0.000 N 
ATOM     21  C   UNL     1      49.155   4.581  17.621  0.00  0.00    +0.000 C 
ATOM     22  C   UNL     1      48.244   3.523  18.276  0.00  0.00    +0.000 C 
ATOM     23  N   UNL     1      48.606   3.237  19.683  0.00  0.00    +0.000 NA
ATOM     24  C   UNL     1      48.580   4.507  20.445  0.00  0.00    +0.000 C 
ATOM     25  C   UNL     1      49.481   5.620  19.853  0.00  0.00    +0.000 C 
ATOM     30  H   UNL     1      49.564   2.889  19.692  0.00  0.00    +0.000 HD
ENDBRANCH  19  20
ENDBRANCH   2  15
BRANCH   2   4
ATOM      4  C   UNL     1      47.400   8.365  13.642  0.00  0.00    +0.000 C 
BRANCH   4   5
ATOM      5  N   UNL     1      46.991   6.982  13.846  0.00  0.00    +0.000 N 
ATOM      6  C   UNL     1      46.276   6.318  12.870  0.00  0.00    +0.000 A 
ATOM      7  C   UNL     1      46.425   6.554  11.508  0.00  0.00    +0.000 A 
ATOM      8  C   UNL     1      45.711   5.775  10.594  0.00  0.00    +0.000 A 
ATOM      9  C   UNL     1      44.879   4.758  11.054  0.00  0.00    +0.000 A 
ATOM     13  C   UNL     1      44.789   4.594  12.424  0.00  0.00    +0.000 A 
ATOM     14  N   UNL     1      45.457   5.354  13.330  0.00  0.00    +0.000 NA
ATOM     27  H   UNL     1      46.554   6.754  14.737  0.00  0.00    +0.000 HD
BRANCH   9  10
ATOM     10  C   UNL     1      44.166   3.914  10.066  0.00  0.00    +0.000 C 
ATOM     11  N   UNL     1      44.092   4.328   8.766  0.00  0.00    +0.000 N 
ATOM     12  O   UNL     1      43.641   2.857  10.399  0.00  0.00    +0.000 OA
ATOM     28  H   UNL     1      44.461   5.190   8.391  0.00  0.00    +0.000 HD
ATOM     29  H   UNL     1      43.575   3.730   8.134  0.00  0.00    +0.000 HD
ENDBRANCH   9  10
ENDBRANCH   4   5
ENDBRANCH   2   4
TORSDOF 5
ENDMDL
