MODEL 1
REMARK VINA RESULT:    -7.141      0.000      0.000
REMARK INTER + INTRA:         -12.414
REMARK INTER:                 -11.524
REMARK INTRA:                  -0.890
REMARK UNBOUND:                -0.890
REMARK  Name = 
REMARK  11 active torsions:
REMARK  status: ('A' for Active; 'I' for Inactive)
REMARK    1  A    between atoms: C_2  and  C_19
REMARK    2  A    between atoms: N_3  and  C_4
REMARK    3  A    between atoms: C_4  and  C_5
REMARK    4  A    between atoms: C_8  and  C_9
REMARK    5  A    between atoms: C_9  and  N_10
REMARK    6  A    between atoms: N_10  and  C_11
REMARK    7  A    between atoms: C_11  and  C_12
REMARK    8  A    between atoms: C_12  and  O_13
REMARK    9  A    between atoms: O_13  and  C_14
REMARK   10  A    between atoms: C_14  and  C_15
REMARK   11  A    between atoms: C_15  and  O_16
REMARK                            x       y       z     vdW  Elec       q    Type
REMARK                         _______ _______ _______ _____ _____    ______ ____
ROOT
ATOM      4  C   UNL     1      47.934   6.801  13.366  0.00  0.00    +0.000 C 
ENDROOT
BRANCH   4   5
ATOM      5  C   UNL     1      46.853   5.961  12.736  0.00  0.00    +0.000 A 
ATOM      6  C   UNL     1      46.355   6.281  11.466  0.00  0.00    +0.000 A 
ATOM      7  C   UNL     1      45.360   5.497  10.872  0.00  0.00    +0.000 A 
ATOM      8  C   UNL     1      44.830   4.383  11.540  0.00  0.00    +0.000 A 
ATOM     17  C   UNL     1      45.301   4.089  12.827  0.00  0.00    +0.000 A 
ATOM     18  C   UNL     1      46.297   4.874  13.421  0.00  0.00    +0.000 A 
BRANCH   8   9
ATOM      9  C   UNL     1      43.761   3.529  10.892  0.00  0.00    +0.000 C 
BRANCH   9  10
ATOM     10  N   UNL     1      44.010   3.363   9.459  0.00  0.00    +0.000 NA
ATOM     30  H   UNL     1      44.642   4.106   9.155  0.00  0.00    +0.000 HD
BRANCH  10  11
ATOM     11  C   UNL     1      44.604   2.056   9.163  0.00  0.00    +0.000 C 
BRANCH  11  12
ATOM     12  C   UNL     1      45.889   2.216   8.339  0.00  0.00    +0.000 C 
BRANCH  12  13
ATOM     13  O   UNL     1      45.717   3.237   7.348  0.00  0.00    +0.000 OA
BRANCH  13  14
ATOM     14  C   UNL     1      46.665   3.066   6.282  0.00  0.00    +0.000 C 
BRANCH  14  15
ATOM     15  C   UNL     1      47.813   2.185   6.767  0.00  0.00    +0.000 C 
BRANCH  15  16
ATOM     16  O   UNL     1      48.592   1.739   5.659  0.00  0.00    +0.000 OA
ATOM     31  H   UNL     1      48.418   2.384   4.946  0.00  0.00    +0.000 HD
ENDBRANCH  15  16
ENDBRANCH  14  15
ENDBRANCH  13  14
ENDBRANCH  12  13
ENDBRANCH  11  12
ENDBRANCH  10  11
ENDBRANCH   9  10
ENDBRANCH   8   9
ENDBRANCH   4   5
BRANCH   4   3
ATOM      1  O   UNL     1      50.120   6.775  15.107  0.00  0.00    +0.000 OA
ATOM      2  C   UNL     1      48.988   6.802  15.583  0.00  0.00    +0.000 C 
ATOM      3  N   UNL     1      47.862   6.736  14.803  0.00  0.00    +0.000 N 
ATOM     29  H   UNL     1      46.965   6.970  15.213  0.00  0.00    +0.000 HD
BRANCH   2  19
ATOM     19  C   UNL     1      48.762   6.851  17.032  0.00  0.00    +0.000 A 
ATOM     20  C   UNL     1      48.410   8.046  17.646  0.00  0.00    +0.000 A 
ATOM     21  S   UNL     1      48.224   7.916  19.338  0.00  0.00    +0.000 S 
ATOM     22  C   UNL     1      48.557   6.247  19.300  0.00  0.00    +0.000 A 
ATOM     23  N   UNL     1      48.540   5.502  20.440  0.00  0.00    +0.000 NA
ATOM     24  C   UNL     1      48.777   4.246  20.259  0.00  0.00    +0.000 A 
ATOM     25  N   UNL     1      49.033   3.664  19.044  0.00  0.00    +0.000 N 
ATOM     26  C   UNL     1      49.090   4.382  17.875  0.00  0.00    +0.000 A 
ATOM     27  O   UNL     1      49.370   3.836  16.812  0.00  0.00    +0.000 OA
ATOM     28  C   UNL     1      48.822   5.797  18.021  0.00  0.00    +0.000 A 
ATOM     32  H   UNL     1      49.222   2.676  18.971  0.00  0.00    +0.000 HD
ENDBRANCH   2  19
ENDBRANCH   4   3
TORSDOF 11
ENDMDL
MODEL 2
REMARK VINA RESULT:    -6.845      1.449      2.287
REMARK INTER + INTRA:         -11.937
REMARK INTER:                 -11.146
REMARK INTRA:                  -0.791
REMARK UNBOUND:                -0.890
REMARK  Name = 
REMARK  11 active torsions:
REMARK  status: ('A' for Active; 'I' for Inactive)
REMARK    1  A    between atoms: C_2  and  C_19
REMARK    2  A    between atoms: N_3  and  C_4
REMARK    3  A    between atoms: C_4  and  C_5
REMARK    4  A    between atoms: C_8  and  C_9
REMARK    5  A    between atoms: C_9  and  N_10
REMARK    6  A    between atoms: N_10  and  C_11
REMARK    7  A    between atoms: C_11  and  C_12
REMARK    8  A    between atoms: C_12  and  O_13
REMARK    9  A    between atoms: O_13  and  C_14
REMARK   10  A    between atoms: C_14  and  C_15
REMARK   11  A    between atoms: C_15  and  O_16
REMARK                            x       y       z     vdW  Elec       q    Type
REMARK                         _______ _______ _______ _____ _____    ______ ____
ROOT
ATOM      4  C   UNL     1      47.926   6.749  13.800  0.00  0.00    +0.000 C 
ENDROOT
BRANCH   4   5
ATOM      5  C   UNL     1      46.944   5.989  12.947  0.00  0.00    +0.000 A 
ATOM      6  C   UNL     1      46.473   4.733  13.352  0.00  0.00    +0.000 A 
ATOM      7  C   UNL     1      45.553   4.029  12.569  0.00  0.00    +0.000 A 
ATOM      8  C   UNL     1      45.090   4.559  11.355  0.00  0.00    +0.000 A 
ATOM     17  C   UNL     1      45.593   5.797  10.932  0.00  0.00    +0.000 A 
ATOM     18  C   UNL     1      46.514   6.501  11.716  0.00  0.00    +0.000 A 
BRANCH   8   9
ATOM      9  C   UNL     1      44.085   3.801  10.513  0.00  0.00    +0.000 C 
BRANCH   9  10
ATOM     10  N   UNL     1      44.548   2.441  10.231  0.00  0.00    +0.000 NA
ATOM     30  H   UNL     1      43.734   1.827  10.193  0.00  0.00    +0.000 HD
BRANCH  10  11
ATOM     11  C   UNL     1      45.279   2.374   8.961  0.00  0.00    +0.000 C 
BRANCH  11  12
ATOM     12  C   UNL     1      44.868   3.528   8.036  0.00  0.00    +0.000 C 
BRANCH  12  13
ATOM     13  O   UNL     1      45.893   3.772   7.065  0.00  0.00    +0.000 OA
BRANCH  13  14
ATOM     14  C   UNL     1      46.862   2.712   7.081  0.00  0.00    +0.000 C 
BRANCH  14  15
ATOM     15  C   UNL     1      47.400   2.500   5.669  0.00  0.00    +0.000 C 
BRANCH  15  16
ATOM     16  O   UNL     1      48.589   1.716   5.708  0.00  0.00    +0.000 OA
ATOM     31  H   UNL     1      48.624   1.345   6.611  0.00  0.00    +0.000 HD
ENDBRANCH  15  16
ENDBRANCH  14  15
ENDBRANCH  13  14
ENDBRANCH  12  13
ENDBRANCH  11  12
ENDBRANCH  10  11
ENDBRANCH   9  10
ENDBRANCH   8   9
ENDBRANCH   4   5
BRANCH   4   3
ATOM      1  O   UNL     1      50.112   6.599  15.536  0.00  0.00    +0.000 OA
ATOM      2  C   UNL     1      48.995   6.320  15.967  0.00  0.00    +0.000 C 
ATOM      3  N   UNL     1      47.884   6.291  15.164  0.00  0.00    +0.000 N 
ATOM     29  H   UNL     1      46.966   6.264  15.595  0.00  0.00    +0.000 HD
BRANCH   2  19
ATOM     19  C   UNL     1      48.783   5.944  17.370  0.00  0.00    +0.000 A 
ATOM     20  C   UNL     1      49.063   4.652  17.797  0.00  0.00    +0.000 A 
ATOM     21  S   UNL     1      48.723   4.391  19.449  0.00  0.00    +0.000 S 
ATOM     22  C   UNL     1      48.241   6.010  19.662  0.00  0.00    +0.000 A 
ATOM     23  N   UNL     1      47.839   6.469  20.879  0.00  0.00    +0.000 NA
ATOM     24  C   UNL     1      47.533   7.723  20.901  0.00  0.00    +0.000 A 
ATOM     25  N   UNL     1      47.590   8.562  19.818  0.00  0.00    +0.000 N 
ATOM     26  C   UNL     1      47.959   8.135  18.567  0.00  0.00    +0.000 A 
ATOM     27  O   UNL     1      47.951   8.903  17.610  0.00  0.00    +0.000 OA
ATOM     28  C   UNL     1      48.321   6.735  18.488  0.00  0.00    +0.000 A 
ATOM     32  H   UNL     1      47.327   9.532  19.899  0.00  0.00    +0.000 HD
ENDBRANCH   2  19
ENDBRANCH   4   3
TORSDOF 11
ENDMDL
MODEL 3
REMARK VINA RESULT:    -6.697      4.251      9.660
REMARK INTER + INTRA:         -11.699
REMARK INTER:                 -10.532
REMARK INTRA:                  -1.167
REMARK UNBOUND:                -0.890
REMARK  Name = 
REMARK  11 active torsions:
REMARK  status: ('A' for Active; 'I' for Inactive)
REMARK    1  A    between atoms: C_2  and  C_19
REMARK    2  A    between atoms: N_3  and  C_4
REMARK    3  A    between atoms: C_4  and  C_5
REMARK    4  A    between atoms: C_8  and  C_9
REMARK    5  A    between atoms: C_9  and  N_10
REMARK    6  A    between atoms: N_10  and  C_11
REMARK    7  A    between atoms: C_11  and  C_12
REMARK    8  A    between atoms: C_12  and  O_13
REMARK    9  A    between atoms: O_13  and  C_14
REMARK   10  A    between atoms: C_14  and  C_15
REMARK   11  A    between atoms: C_15  and  O_16
REMARK                            x       y       z     vdW  Elec       q    Type
REMARK                         _______ _______ _______ _____ _____    ______ ____
ROOT
ATOM      4  C   UNL     1      47.152   3.394  16.806  0.00  0.00    +0.000 C 
ENDROOT
BRANCH   4   5
ATOM      5  C   UNL     1      48.624   3.381  17.127  0.00  0.00    +0.000 A 
ATOM      6  C   UNL     1      49.371   2.204  16.991  0.00  0.00    +0.000 A 
ATOM      7  C   UNL     1      50.740   2.189  17.278  0.00  0.00    +0.000 A 
ATOM      8  C   UNL     1      51.392   3.350  17.720  0.00  0.00    +0.000 A 
ATOM     17  C   UNL     1      50.635   4.516  17.896  0.00  0.00    +0.000 A 
ATOM     18  C   UNL     1      49.265   4.530  17.609  0.00  0.00    +0.000 A 
BRANCH   8   9
ATOM      9  C   UNL     1      52.876   3.337  18.020  0.00  0.00    +0.000 C 
BRANCH   9  10
ATOM     10  N   UNL     1      53.178   2.480  19.168  0.00  0.00    +0.000 NA
ATOM     30  H   UNL     1      53.288   1.522  18.833  0.00  0.00    +0.000 HD
BRANCH  10  11
ATOM     11  C   UNL     1      54.400   2.909  19.854  0.00  0.00    +0.000 C 
BRANCH  11  12
ATOM     12  C   UNL     1      55.412   1.757  19.933  0.00  0.00    +0.000 C 
BRANCH  12  13
ATOM     13  O   UNL     1      54.727   0.500  19.996  0.00  0.00    +0.000 OA
BRANCH  13  14
ATOM     14  C   UNL     1      55.317  -0.439  19.084  0.00  0.00    +0.000 C 
BRANCH  14  15
ATOM     15  C   UNL     1      54.275  -0.862  18.053  0.00  0.00    +0.000 C 
BRANCH  15  16
ATOM     16  O   UNL     1      52.978  -0.436  18.463  0.00  0.00    +0.000 OA
ATOM     31  H   UNL     1      52.804  -0.908  19.301  0.00  0.00    +0.000 HD
ENDBRANCH  15  16
ENDBRANCH  14  15
ENDBRANCH  13  14
ENDBRANCH  12  13
ENDBRANCH  11  12
ENDBRANCH  10  11
ENDBRANCH   9  10
ENDBRANCH   8   9
ENDBRANCH   4   5
BRANCH   4   3
ATOM      1  O   UNL     1      47.228   3.037  14.035  0.00  0.00    +0.000 OA
ATOM      2  C   UNL     1      46.843   4.116  14.480  0.00  0.00    +0.000 C 
ATOM      3  N   UNL     1      46.850   4.401  15.822  0.00  0.00    +0.000 N 
ATOM     29  H   UNL     1      46.336   5.208  16.155  0.00  0.00    +0.000 HD
BRANCH   2  19
ATOM     19  C   UNL     1      46.398   5.199  13.596  0.00  0.00    +0.000 A 
ATOM     20  C   UNL     1      47.249   6.256  13.301  0.00  0.00    +0.000 A 
ATOM     21  S   UNL     1      46.547   7.435  12.286  0.00  0.00    +0.000 S 
ATOM     22  C   UNL     1      45.100   6.547  12.164  0.00  0.00    +0.000 A 
ATOM     23  N   UNL     1      44.062   6.997  11.407  0.00  0.00    +0.000 NA
ATOM     24  C   UNL     1      43.041   6.207  11.379  0.00  0.00    +0.000 A 
ATOM     25  N   UNL     1      42.959   5.009  12.041  0.00  0.00    +0.000 N 
ATOM     26  C   UNL     1      43.970   4.532  12.840  0.00  0.00    +0.000 A 
ATOM     27  O   UNL     1      43.842   3.478  13.456  0.00  0.00    +0.000 OA
ATOM     28  C   UNL     1      45.144   5.377  12.899  0.00  0.00    +0.000 A 
ATOM     32  H   UNL     1      42.127   4.442  11.987  0.00  0.00    +0.000 HD
ENDBRANCH   2  19
ENDBRANCH   4   3
TORSDOF 11
ENDMDL
MODEL 4
REMARK VINA RESULT:    -6.511      1.809      2.589
REMARK INTER + INTRA:         -11.398
REMARK INTER:                 -10.427
REMARK INTRA:                  -0.971
REMARK UNBOUND:                -0.890
REMARK  Name = 
REMARK  11 active torsions:
REMARK  status: ('A' for Active; 'I' for Inactive)
REMARK    1  A    between atoms: C_2  and  C_19
REMARK    2  A    between atoms: N_3  and  C_4
REMARK    3  A    between atoms: C_4  and  C_5
REMARK    4  A    between atoms: C_8  and  C_9
REMARK    5  A    between atoms: C_9  and  N_10
REMARK    6  A    between atoms: N_10  and  C_11
REMARK    7  A    between atoms: C_11  and  C_12
REMARK    8  A    between atoms: C_12  and  O_13
REMARK    9  A    between atoms: O_13  and  C_14
REMARK   10  A    between atoms: C_14  and  C_15
REMARK   11  A    between atoms: C_15  and  O_16
REMARK                            x       y       z     vdW  Elec       q    Type
REMARK                         _______ _______ _______ _____ _____    ______ ____
ROOT
ATOM      4  C   UNL     1      48.291   6.140  14.202  0.00  0.00    +0.000 C 
ENDROOT
BRANCH   4   5
ATOM      5  C   UNL     1      47.118   5.636  13.402  0.00  0.00    +0.000 A 
ATOM      6  C   UNL     1      46.388   6.509  12.584  0.00  0.00    +0.000 A 
ATOM      7  C   UNL     1      45.305   6.043  11.831  0.00  0.00    +0.000 A 
ATOM      8  C   UNL     1      44.919   4.696  11.887  0.00  0.00    +0.000 A 
ATOM     17  C   UNL     1      45.625   3.833  12.737  0.00  0.00    +0.000 A 
ATOM     18  C   UNL     1      46.708   4.300  13.491  0.00  0.00    +0.000 A 
BRANCH   8   9
ATOM      9  C   UNL     1      43.754   4.190  11.063  0.00  0.00    +0.000 C 
BRANCH   9  10
ATOM     10  N   UNL     1      43.740   4.800   9.733  0.00  0.00    +0.000 NA
ATOM     30  H   UNL     1      44.059   5.766   9.820  0.00  0.00    +0.000 HD
BRANCH  10  11
ATOM     11  C   UNL     1      44.607   4.074   8.799  0.00  0.00    +0.000 C 
BRANCH  11  12
ATOM     12  C   UNL     1      44.511   2.560   9.033  0.00  0.00    +0.000 C 
BRANCH  12  13
ATOM     13  O   UNL     1      45.782   1.941   8.798  0.00  0.00    +0.000 OA
BRANCH  13  14
ATOM     14  C   UNL     1      46.412   2.515   7.642  0.00  0.00    +0.000 C 
BRANCH  14  15
ATOM     15  C   UNL     1      47.444   1.534   7.093  0.00  0.00    +0.000 C 
BRANCH  15  16
ATOM     16  O   UNL     1      48.558   2.242   6.556  0.00  0.00    +0.000 OA
ATOM     31  H   UNL     1      48.830   1.734   5.767  0.00  0.00    +0.000 HD
ENDBRANCH  15  16
ENDBRANCH  14  15
ENDBRANCH  13  14
ENDBRANCH  12  13
ENDBRANCH  11  12
ENDBRANCH  10  11
ENDBRANCH   9  10
ENDBRANCH   8   9
ENDBRANCH   4   5
BRANCH   4   3
ATOM      1  O   UNL     1      49.938   5.541  16.380  0.00  0.00    +0.000 OA
ATOM      2  C   UNL     1      48.837   6.045  16.593  0.00  0.00    +0.000 C 
ATOM      3  N   UNL     1      47.938   6.296  15.589  0.00  0.00    +0.000 N 
ATOM     29  H   UNL     1      47.142   6.895  15.780  0.00  0.00    +0.000 HD
BRANCH   2  19
ATOM     19  C   UNL     1      48.387   6.363  17.953  0.00  0.00    +0.000 A 
ATOM     20  C   UNL     1      48.294   5.363  18.912  0.00  0.00    +0.000 A 
ATOM     21  S   UNL     1      47.721   5.915  20.422  0.00  0.00    +0.000 S 
ATOM     22  C   UNL     1      47.628   7.520  19.860  0.00  0.00    +0.000 A 
ATOM     23  N   UNL     1      47.218   8.527  20.679  0.00  0.00    +0.000 NA
ATOM     24  C   UNL     1      47.227   9.696  20.132  0.00  0.00    +0.000 A 
ATOM     25  N   UNL     1      47.605   9.952  18.839  0.00  0.00    +0.000 N 
ATOM     26  C   UNL     1      47.995   8.963  17.970  0.00  0.00    +0.000 A 
ATOM     27  O   UNL     1      48.280   9.223  16.805  0.00  0.00    +0.000 OA
ATOM     28  C   UNL     1      48.011   7.631  18.538  0.00  0.00    +0.000 A 
ATOM     32  H   UNL     1      47.579  10.889  18.466  0.00  0.00    +0.000 HD
ENDBRANCH   2  19
ENDBRANCH   4   3
TORSDOF 11
ENDMDL
MODEL 5
REMARK VINA RESULT:    -6.507      2.686      4.419
REMARK INTER + INTRA:         -11.392
REMARK INTER:                 -10.278
REMARK INTRA:                  -1.114
REMARK UNBOUND:                -0.890
REMARK  Name = 
REMARK  11 active torsions:
REMARK  status: ('A' for Active; 'I' for Inactive)
REMARK    1  A    between atoms: C_2  and  C_19
REMARK    2  A    between atoms: N_3  and  C_4
REMARK    3  A    between atoms: C_4  and  C_5
REMARK    4  A    between atoms: C_8  and  C_9
REMARK    5  A    between atoms: C_9  and  N_10
REMARK    6  A    between atoms: N_10  and  C_11
REMARK    7  A    between atoms: C_11  and  C_12
REMARK    8  A    between atoms: C_12  and  O_13
REMARK    9  A    between atoms: O_13  and  C_14
REMARK   10  A    between atoms: C_14  and  C_15
REMARK   11  A    between atoms: C_15  and  O_16
REMARK                            x       y       z     vdW  Elec       q    Type
REMARK                         _______ _______ _______ _____ _____    ______ ____
ROOT
ATOM      4  C   UNL     1      47.358   5.080  14.842  0.00  0.00    +0.000 C 
ENDROOT
BRANCH   4   5
ATOM      5  C   UNL     1      46.394   4.757  13.730  0.00  0.00    +0.000 A 
ATOM      6  C   UNL     1      46.292   3.450  13.234  0.00  0.00    +0.000 A 
ATOM      7  C   UNL     1      45.392   3.144  12.209  0.00  0.00    +0.000 A 
ATOM      8  C   UNL     1      44.579   4.139  11.647  0.00  0.00    +0.000 A 
ATOM     17  C   UNL     1      44.712   5.453  12.115  0.00  0.00    +0.000 A 
ATOM     18  C   UNL     1      45.614   5.760  13.141  0.00  0.00    +0.000 A 
BRANCH   8   9
ATOM      9  C   UNL     1      43.596   3.804  10.545  0.00  0.00    +0.000 C 
BRANCH   9  10
ATOM     10  N   UNL     1      43.815   4.644   9.365  0.00  0.00    +0.000 NA
ATOM     30  H   UNL     1      44.348   5.465   9.651  0.00  0.00    +0.000 HD
BRANCH  10  11
ATOM     11  C   UNL     1      44.542   3.920   8.317  0.00  0.00    +0.000 C 
BRANCH  11  12
ATOM     12  C   UNL     1      46.012   4.363   8.272  0.00  0.00    +0.000 C 
BRANCH  12  13
ATOM     13  O   UNL     1      46.519   4.258   6.935  0.00  0.00    +0.000 OA
BRANCH  13  14
ATOM     14  C   UNL     1      46.563   2.883   6.522  0.00  0.00    +0.000 C 
BRANCH  14  15
ATOM     15  C   UNL     1      47.960   2.325   6.782  0.00  0.00    +0.000 C 
BRANCH  15  16
ATOM     16  O   UNL     1      48.501   1.777   5.583  0.00  0.00    +0.000 OA
ATOM     31  H   UNL     1      48.091   2.288   4.858  0.00  0.00    +0.000 HD
ENDBRANCH  15  16
ENDBRANCH  14  15
ENDBRANCH  13  14
ENDBRANCH  12  13
ENDBRANCH  11  12
ENDBRANCH  10  11
ENDBRANCH   9  10
ENDBRANCH   8   9
ENDBRANCH   4   5
BRANCH   4   3
ATOM      1  O   UNL     1      49.780   6.064  15.831  0.00  0.00    +0.000 OA
ATOM      2  C   UNL     1      49.048   6.824  15.200  0.00  0.00    +0.000 C 
ATOM      3  N   UNL     1      47.809   6.444  14.750  0.00  0.00    +0.000 N 
ATOM     29  H   UNL     1      47.336   7.023  14.065  0.00  0.00    +0.000 HD
BRANCH   2  19
ATOM     19  C   UNL     1      49.430   8.215  14.932  0.00  0.00    +0.000 A 
ATOM     20  C   UNL     1      49.924   9.014  15.955  0.00  0.00    +0.000 A 
ATOM     21  S   UNL     1      50.281  10.609  15.463  0.00  0.00    +0.000 S 
ATOM     22  C   UNL     1      49.837  10.270  13.855  0.00  0.00    +0.000 A 
ATOM     23  N   UNL     1      49.926  11.223  12.886  0.00  0.00    +0.000 NA
ATOM     24  C   UNL     1      49.588  10.818  11.708  0.00  0.00    +0.000 A 
ATOM     25  N   UNL     1      49.165   9.549  11.407  0.00  0.00    +0.000 N 
ATOM     26  C   UNL     1      49.031   8.567  12.357  0.00  0.00    +0.000 A 
ATOM     27  O   UNL     1      48.604   7.456  12.060  0.00  0.00    +0.000 OA
ATOM     28  C   UNL     1      49.407   8.967  13.697  0.00  0.00    +0.000 A 
ATOM     32  H   UNL     1      48.905   9.298  10.466  0.00  0.00    +0.000 HD
ENDBRANCH   2  19
ENDBRANCH   4   3
TORSDOF 11
ENDMDL
MODEL 6
REMARK VINA RESULT:    -6.378      3.850      8.366
REMARK INTER + INTRA:         -11.182
REMARK INTER:                  -9.637
REMARK INTRA:                  -1.546
REMARK UNBOUND:                -0.890
REMARK  Name = 
REMARK  11 active torsions:
REMARK  status: ('A' for Active; 'I' for Inactive)
REMARK    1  A    between atoms: C_2  and  C_19
REMARK    2  A    between atoms: N_3  and  C_4
REMARK    3  A    between atoms: C_4  and  C_5
REMARK    4  A    between atoms: C_8  and  C_9
REMARK    5  A    between atoms: C_9  and  N_10
REMARK    6  A    between atoms: N_10  and  C_11
REMARK    7  A    between atoms: C_11  and  C_12
REMARK    8  A    between atoms: C_12  and  O_13
REMARK    9  A    between atoms: O_13  and  C_14
REMARK   10  A    between atoms: C_14  and  C_15
REMARK   11  A    between atoms: C_15  and  O_16
REMARK                            x       y       z     vdW  Elec       q    Type
REMARK                         _______ _______ _______ _____ _____    ______ ____
ROOT
ATOM      4  C   UNL     1      48.363   7.994  12.037  0.00  0.00    +0.000 C 
ENDROOT
BRANCH   4   5
ATOM      5  C   UNL     1      49.057   7.658  13.331  0.00  0.00    +0.000 A 
ATOM      6  C   UNL     1      48.381   6.959  14.340  0.00  0.00    +0.000 A 
ATOM      7  C   UNL     1      49.025   6.635  15.538  0.00  0.00    +0.000 A 
ATOM      8  C   UNL     1      50.357   7.013  15.762  0.00  0.00    +0.000 A 
ATOM     17  C   UNL     1      51.018   7.748  14.769  0.00  0.00    +0.000 A 
ATOM     18  C   UNL     1      50.374   8.072  13.569  0.00  0.00    +0.000 A 
BRANCH   8   9
ATOM      9  C   UNL     1      51.056   6.653  17.056  0.00  0.00    +0.000 C 
BRANCH   9  10
ATOM     10  N   UNL     1      51.613   5.300  16.999  0.00  0.00    +0.000 NA
ATOM     30  H   UNL     1      52.630   5.374  16.941  0.00  0.00    +0.000 HD
BRANCH  10  11
ATOM     11  C   UNL     1      51.239   4.513  18.178  0.00  0.00    +0.000 C 
BRANCH  11  12
ATOM     12  C   UNL     1      49.807   3.976  18.042  0.00  0.00    +0.000 C 
BRANCH  12  13
ATOM     13  O   UNL     1      49.654   3.287  16.795  0.00  0.00    +0.000 OA
BRANCH  13  14
ATOM     14  C   UNL     1      48.382   2.621  16.743  0.00  0.00    +0.000 C 
BRANCH  14  15
ATOM     15  C   UNL     1      47.268   3.654  16.885  0.00  0.00    +0.000 C 
BRANCH  15  16
ATOM     16  O   UNL     1      46.723   3.969  15.606  0.00  0.00    +0.000 OA
ATOM     31  H   UNL     1      45.755   3.894  15.713  0.00  0.00    +0.000 HD
ENDBRANCH  15  16
ENDBRANCH  14  15
ENDBRANCH  13  14
ENDBRANCH  12  13
ENDBRANCH  11  12
ENDBRANCH  10  11
ENDBRANCH   9  10
ENDBRANCH   8   9
ENDBRANCH   4   5
BRANCH   4   3
ATOM      1  O   UNL     1      45.579   7.844  11.841  0.00  0.00    +0.000 OA
ATOM      2  C   UNL     1      46.252   6.907  11.417  0.00  0.00    +0.000 C 
ATOM      3  N   UNL     1      47.617   6.866  11.546  0.00  0.00    +0.000 N 
ATOM     29  H   UNL     1      48.141   6.188  11.004  0.00  0.00    +0.000 HD
BRANCH   2  19
ATOM     19  C   UNL     1      45.630   5.736  10.787  0.00  0.00    +0.000 A 
ATOM     20  C   UNL     1      45.792   5.504   9.428  0.00  0.00    +0.000 A 
ATOM     21  S   UNL     1      44.970   4.116   8.870  0.00  0.00    +0.000 S 
ATOM     22  C   UNL     1      44.414   3.749  10.437  0.00  0.00    +0.000 A 
ATOM     23  N   UNL     1      43.651   2.646  10.670  0.00  0.00    +0.000 NA
ATOM     24  C   UNL     1      43.329   2.473  11.909  0.00  0.00    +0.000 A 
ATOM     25  N   UNL     1      43.696   3.304  12.936  0.00  0.00    +0.000 N 
ATOM     26  C   UNL     1      44.437   4.443  12.741  0.00  0.00    +0.000 A 
ATOM     27  O   UNL     1      44.706   5.189  13.678  0.00  0.00    +0.000 OA
ATOM     28  C   UNL     1      44.834   4.679  11.369  0.00  0.00    +0.000 A 
ATOM     32  H   UNL     1      43.401   3.119  13.883  0.00  0.00    +0.000 HD
ENDBRANCH   2  19
ENDBRANCH   4   3
TORSDOF 11
ENDMDL
MODEL 7
REMARK VINA RESULT:    -6.310      1.865      2.073
REMARK INTER + INTRA:         -11.073
REMARK INTER:                 -10.125
REMARK INTRA:                  -0.948
REMARK UNBOUND:                -0.890
REMARK  Name = 
REMARK  11 active torsions:
REMARK  status: ('A' for Active; 'I' for Inactive)
REMARK    1  A    between atoms: C_2  and  C_19
REMARK    2  A    between atoms: N_3  and  C_4
REMARK    3  A    between atoms: C_4  and  C_5
REMARK    4  A    between atoms: C_8  and  C_9
REMARK    5  A    between atoms: C_9  and  N_10
REMARK    6  A    between atoms: N_10  and  C_11
REMARK    7  A    between atoms: C_11  and  C_12
REMARK    8  A    between atoms: C_12  and  O_13
REMARK    9  A    between atoms: O_13  and  C_14
REMARK   10  A    between atoms: C_14  and  C_15
REMARK   11  A    between atoms: C_15  and  O_16
REMARK                            x       y       z     vdW  Elec       q    Type
REMARK                         _______ _______ _______ _____ _____    ______ ____
ROOT
ATOM      4  C   UNL     1      47.138   7.388  13.283  0.00  0.00    +0.000 C 
ENDROOT
BRANCH   4   5
ATOM      5  C   UNL     1      46.135   6.365  12.817  0.00  0.00    +0.000 A 
ATOM      6  C   UNL     1      46.353   5.000  13.043  0.00  0.00    +0.000 A 
ATOM      7  C   UNL     1      45.419   4.048  12.621  0.00  0.00    +0.000 A 
ATOM      8  C   UNL     1      44.250   4.438  11.952  0.00  0.00    +0.000 A 
ATOM     17  C   UNL     1      44.053   5.801  11.690  0.00  0.00    +0.000 A 
ATOM     18  C   UNL     1      44.988   6.753  12.112  0.00  0.00    +0.000 A 
BRANCH   8   9
ATOM      9  C   UNL     1      43.234   3.408  11.505  0.00  0.00    +0.000 C 
BRANCH   9  10
ATOM     10  N   UNL     1      43.866   2.344  10.723  0.00  0.00    +0.000 NA
ATOM     30  H   UNL     1      43.163   1.631  10.526  0.00  0.00    +0.000 HD
BRANCH  10  11
ATOM     11  C   UNL     1      44.421   2.855   9.466  0.00  0.00    +0.000 C 
BRANCH  11  12
ATOM     12  C   UNL     1      45.458   1.880   8.893  0.00  0.00    +0.000 C 
BRANCH  12  13
ATOM     13  O   UNL     1      46.097   2.455   7.746  0.00  0.00    +0.000 OA
BRANCH  13  14
ATOM     14  C   UNL     1      47.122   1.578   7.251  0.00  0.00    +0.000 C 
BRANCH  14  15
ATOM     15  C   UNL     1      48.249   2.412   6.649  0.00  0.00    +0.000 C 
BRANCH  15  16
ATOM     16  O   UNL     1      47.921   2.790   5.314  0.00  0.00    +0.000 OA
ATOM     31  H   UNL     1      48.325   3.672   5.190  0.00  0.00    +0.000 HD
ENDBRANCH  15  16
ENDBRANCH  14  15
ENDBRANCH  13  14
ENDBRANCH  12  13
ENDBRANCH  11  12
ENDBRANCH  10  11
ENDBRANCH   9  10
ENDBRANCH   8   9
ENDBRANCH   4   5
BRANCH   4   3
ATOM      1  O   UNL     1      48.408   8.549  15.486  0.00  0.00    +0.000 OA
ATOM      2  C   UNL     1      48.685   7.388  15.189  0.00  0.00    +0.000 C 
ATOM      3  N   UNL     1      48.168   6.772  14.079  0.00  0.00    +0.000 N 
ATOM     29  H   UNL     1      48.255   5.766  13.990  0.00  0.00    +0.000 HD
BRANCH   2  19
ATOM     19  C   UNL     1      49.636   6.597  15.979  0.00  0.00    +0.000 A 
ATOM     20  C   UNL     1      50.924   7.068  16.199  0.00  0.00    +0.000 A 
ATOM     21  S   UNL     1      51.896   5.999  17.107  0.00  0.00    +0.000 S 
ATOM     22  C   UNL     1      50.612   4.894  17.281  0.00  0.00    +0.000 A 
ATOM     23  N   UNL     1      50.770   3.741  17.987  0.00  0.00    +0.000 NA
ATOM     24  C   UNL     1      49.705   3.014  18.065  0.00  0.00    +0.000 A 
ATOM     25  N   UNL     1      48.497   3.332  17.500  0.00  0.00    +0.000 N 
ATOM     26  C   UNL     1      48.303   4.469  16.755  0.00  0.00    +0.000 A 
ATOM     27  O   UNL     1      47.220   4.697  16.223  0.00  0.00    +0.000 OA
ATOM     28  C   UNL     1      49.465   5.325  16.643  0.00  0.00    +0.000 A 
ATOM     32  H   UNL     1      47.705   2.715  17.589  0.00  0.00    +0.000 HD
ENDBRANCH   2  19
ENDBRANCH   4   3
TORSDOF 11
ENDMDL
MODEL 8
REMARK VINA RESULT:    -6.291      3.162      3.774
REMARK INTER + INTRA:         -11.043
REMARK INTER:                  -9.165
REMARK INTRA:                  -1.878
REMARK UNBOUND:                -0.890
REMARK  Name = 
REMARK  11 active torsions:
REMARK  status: ('A' for Active; 'I' for Inactive)
REMARK    1  A    between atoms: C_2  and  C_19
REMARK    2  A    between atoms: N_3  and  C_4
REMARK    3  A    between atoms: C_4  and  C_5
REMARK    4  A    between atoms: C_8  and  C_9
REMARK    5  A    between atoms: C_9  and  N_10
REMARK    6  A    between atoms: N_10  and  C_11
REMARK    7  A    between atoms: C_11  and  C_12
REMARK    8  A    between atoms: C_12  and  O_13
REMARK    9  A    between atoms: O_13  and  C_14
REMARK   10  A    between atoms: C_14  and  C_15
REMARK   11  A    between atoms: C_15  and  O_16
REMARK                            x       y       z     vdW  Elec       q    Type
REMARK                         _______ _______ _______ _____ _____    ______ ____
ROOT
ATOM      4  C   UNL     1      48.881   8.240  13.476  0.00  0.00    +0.000 C 
ENDROOT
BRANCH   4   5
ATOM      5  C   UNL     1      47.596   7.894  12.771  0.00  0.00    +0.000 A 
ATOM      6  C   UNL     1      47.551   6.839  11.850  0.00  0.00    +0.000 A 
ATOM      7  C   UNL     1      46.357   6.508  11.201  0.00  0.00    +0.000 A 
ATOM      8  C   UNL     1      45.181   7.233  11.449  0.00  0.00    +0.000 A 
ATOM     17  C   UNL     1      45.238   8.314  12.339  0.00  0.00    +0.000 A 
ATOM     18  C   UNL     1      46.433   8.645  12.988  0.00  0.00    +0.000 A 
BRANCH   8   9
ATOM      9  C   UNL     1      43.886   6.867  10.754  0.00  0.00    +0.000 C 
BRANCH   9  10
ATOM     10  N   UNL     1      42.806   6.661  11.720  0.00  0.00    +0.000 NA
ATOM     30  H   UNL     1      41.955   7.080  11.343  0.00  0.00    +0.000 HD
BRANCH  10  11
ATOM     11  C   UNL     1      42.583   5.236  11.984  0.00  0.00    +0.000 C 
BRANCH  11  12
ATOM     12  C   UNL     1      43.188   4.832  13.336  0.00  0.00    +0.000 C 
BRANCH  12  13
ATOM     13  O   UNL     1      43.433   3.421  13.366  0.00  0.00    +0.000 OA
BRANCH  13  14
ATOM     14  C   UNL     1      43.938   2.972  12.099  0.00  0.00    +0.000 C 
BRANCH  14  15
ATOM     15  C   UNL     1      45.434   3.262  12.022  0.00  0.00    +0.000 C 
BRANCH  15  16
ATOM     16  O   UNL     1      46.055   2.973  13.272  0.00  0.00    +0.000 OA
ATOM     31  H   UNL     1      46.004   3.804  13.783  0.00  0.00    +0.000 HD
ENDBRANCH  15  16
ENDBRANCH  14  15
ENDBRANCH  13  14
ENDBRANCH  12  13
ENDBRANCH  11  12
ENDBRANCH  10  11
ENDBRANCH   9  10
ENDBRANCH   8   9
ENDBRANCH   4   5
BRANCH   4   3
ATOM      1  O   UNL     1      48.299   8.816  16.148  0.00  0.00    +0.000 OA
ATOM      2  C   UNL     1      48.723   7.698  15.864  0.00  0.00    +0.000 C 
ATOM      3  N   UNL     1      49.107   7.359  14.592  0.00  0.00    +0.000 N 
ATOM     29  H   UNL     1      49.248   6.381  14.365  0.00  0.00    +0.000 HD
BRANCH   2  19
ATOM     19  C   UNL     1      48.898   6.659  16.886  0.00  0.00    +0.000 A 
ATOM     20  C   UNL     1      49.628   6.926  18.038  0.00  0.00    +0.000 A 
ATOM     21  S   UNL     1      49.753   5.590  19.092  0.00  0.00    +0.000 S 
ATOM     22  C   UNL     1      48.791   4.625  18.071  0.00  0.00    +0.000 A 
ATOM     23  N   UNL     1      48.485   3.341  18.403  0.00  0.00    +0.000 NA
ATOM     24  C   UNL     1      47.722   2.739  17.553  0.00  0.00    +0.000 A 
ATOM     25  N   UNL     1      47.238   3.300  16.399  0.00  0.00    +0.000 N 
ATOM     26  C   UNL     1      47.547   4.581  16.011  0.00  0.00    +0.000 A 
ATOM     27  O   UNL     1      47.135   5.034  14.947  0.00  0.00    +0.000 OA
ATOM     28  C   UNL     1      48.394   5.305  16.935  0.00  0.00    +0.000 A 
ATOM     32  H   UNL     1      46.654   2.772  15.770  0.00  0.00    +0.000 HD
ENDBRANCH   2  19
ENDBRANCH   4   3
TORSDOF 11
ENDMDL
MODEL 9
REMARK VINA RESULT:    -6.212      1.663      2.995
REMARK INTER + INTRA:         -10.914
REMARK INTER:                  -9.999
REMARK INTRA:                  -0.915
REMARK UNBOUND:                -0.890
REMARK  Name = 
REMARK  11 active torsions:
REMARK  status: ('A' for Active; 'I' for Inactive)
REMARK    1  A    between atoms: C_2  and  C_19
REMARK    2  A    between atoms: N_3  and  C_4
REMARK    3  A    between atoms: C_4  and  C_5
REMARK    4  A    between atoms: C_8  and  C_9
REMARK    5  A    between atoms: C_9  and  N_10
REMARK    6  A    between atoms: N_10  and  C_11
REMARK    7  A    between atoms: C_11  and  C_12
REMARK    8  A    between atoms: C_12  and  O_13
REMARK    9  A    between atoms: O_13  and  C_14
REMARK   10  A    between atoms: C_14  and  C_15
REMARK   11  A    between atoms: C_15  and  O_16
REMARK                            x       y       z     vdW  Elec       q    Type
REMARK                         _______ _______ _______ _____ _____    ______ ____
ROOT
ATOM      4  C   UNL     1      47.142   3.975  15.099  0.00  0.00    +0.000 C 
ENDROOT
BRANCH   4   5
ATOM      5  C   UNL     1      46.591   4.359  13.750  0.00  0.00    +0.000 A 
ATOM      6  C   UNL     1      46.916   5.595  13.174  0.00  0.00    +0.000 A 
ATOM      7  C   UNL     1      46.415   5.950  11.918  0.00  0.00    +0.000 A 
ATOM      8  C   UNL     1      45.568   5.084  11.212  0.00  0.00    +0.000 A 
ATOM     17  C   UNL     1      45.212   3.866  11.807  0.00  0.00    +0.000 A 
ATOM     18  C   UNL     1      45.713   3.510  13.065  0.00  0.00    +0.000 A 
BRANCH   8   9
ATOM      9  C   UNL     1      45.036   5.465   9.846  0.00  0.00    +0.000 C 
BRANCH   9  10
ATOM     10  N   UNL     1      44.207   4.397   9.283  0.00  0.00    +0.000 NA
ATOM     30  H   UNL     1      43.381   4.822   8.860  0.00  0.00    +0.000 HD
BRANCH  10  11
ATOM     11  C   UNL     1      44.938   3.623   8.275  0.00  0.00    +0.000 C 
BRANCH  11  12
ATOM     12  C   UNL     1      45.135   2.173   8.741  0.00  0.00    +0.000 C 
BRANCH  12  13
ATOM     13  O   UNL     1      46.301   1.611   8.126  0.00  0.00    +0.000 OA
BRANCH  13  14
ATOM     14  C   UNL     1      46.574   2.265   6.876  0.00  0.00    +0.000 C 
BRANCH  14  15
ATOM     15  C   UNL     1      48.081   2.451   6.725  0.00  0.00    +0.000 C 
BRANCH  15  16
ATOM     16  O   UNL     1      48.551   1.742   5.581  0.00  0.00    +0.000 OA
ATOM     31  H   UNL     1      49.149   2.363   5.121  0.00  0.00    +0.000 HD
ENDBRANCH  15  16
ENDBRANCH  14  15
ENDBRANCH  13  14
ENDBRANCH  12  13
ENDBRANCH  11  12
ENDBRANCH  10  11
ENDBRANCH   9  10
ENDBRANCH   8   9
ENDBRANCH   4   5
BRANCH   4   3
ATOM      1  O   UNL     1      49.188   4.061  17.002  0.00  0.00    +0.000 OA
ATOM      2  C   UNL     1      48.618   5.108  16.700  0.00  0.00    +0.000 C 
ATOM      3  N   UNL     1      47.554   5.141  15.836  0.00  0.00    +0.000 N 
ATOM     29  H   UNL     1      47.255   6.033  15.459  0.00  0.00    +0.000 HD
BRANCH   2  19
ATOM     19  C   UNL     1      49.007   6.394  17.290  0.00  0.00    +0.000 A 
ATOM     20  C   UNL     1      48.862   6.610  18.654  0.00  0.00    +0.000 A 
ATOM     21  S   UNL     1      49.334   8.173  19.152  0.00  0.00    +0.000 S 
ATOM     22  C   UNL     1      49.798   8.596  17.569  0.00  0.00    +0.000 A 
ATOM     23  N   UNL     1      50.320   9.823  17.295  0.00  0.00    +0.000 NA
ATOM     24  C   UNL     1      50.659   9.994  16.061  0.00  0.00    +0.000 A 
ATOM     25  N   UNL     1      50.520   9.053  15.073  0.00  0.00    +0.000 N 
ATOM     26  C   UNL     1      49.970   7.815  15.299  0.00  0.00    +0.000 A 
ATOM     27  O   UNL     1      49.818   7.016  14.380  0.00  0.00    +0.000 OA
ATOM     28  C   UNL     1      49.582   7.568  16.671  0.00  0.00    +0.000 A 
ATOM     32  H   UNL     1      50.794   9.253  14.123  0.00  0.00    +0.000 HD
ENDBRANCH   2  19
ENDBRANCH   4   3
TORSDOF 11
ENDMDL
