MODEL 1
REMARK VINA RESULT:    -7.308      0.000      0.000
REMARK INTER + INTRA:         -11.928
REMARK INTER:                 -10.726
REMARK INTRA:                  -1.202
REMARK UNBOUND:                -1.202
REMARK  Name = 
REMARK  9 active torsions:
REMARK  status: ('A' for Active; 'I' for Inactive)
REMARK    1  A    between atoms: C_1  and  C_2
REMARK    2  A    between atoms: C_2  and  C_3
REMARK    3  A    between atoms: C_3  and  C_4
REMARK    4  A    between atoms: C_4  and  N_5
REMARK    5  A    between atoms: N_5  and  C_6
REMARK    6  A    between atoms: C_6  and  C_7
REMARK    7  A    between atoms: C_10  and  C_11
REMARK    8  A    between atoms: C_11  and  N_12
REMARK    9  A    between atoms: C_13  and  C_15
REMARK                            x       y       z     vdW  Elec       q    Type
REMARK                         _______ _______ _______ _____ _____    ______ ____
ROOT
ATOM     12  N   UNL     1      47.006   7.164  14.019  0.00  0.00    +0.000 N 
ATOM     13  C   UNL     1      48.265   6.624  14.163  0.00  0.00    +0.000 C 
ATOM     14  O   UNL     1      49.023   6.455  13.233  0.00  0.00    +0.000 OA
ATOM     28  H   UNL     1      46.334   6.980  14.762  0.00  0.00    +0.000 HD
ENDROOT
BRANCH  13  15
ATOM     15  C   UNL     1      48.648   6.298  15.549  0.00  0.00    +0.000 A 
ATOM     16  C   UNL     1      49.529   7.111  16.251  0.00  0.00    +0.000 A 
ATOM     17  S   UNL     1      49.914   6.510  17.804  0.00  0.00    +0.000 S 
ATOM     18  C   UNL     1      48.910   5.152  17.592  0.00  0.00    +0.000 A 
ATOM     19  N   UNL     1      48.804   4.188  18.548  0.00  0.00    +0.000 NA
ATOM     20  C   UNL     1      47.996   3.226  18.248  0.00  0.00    +0.000 A 
ATOM     21  N   UNL     1      47.279   3.142  17.083  0.00  0.00    +0.000 N 
ATOM     22  C   UNL     1      47.356   4.084  16.094  0.00  0.00    +0.000 A 
ATOM     23  O   UNL     1      46.674   3.996  15.077  0.00  0.00    +0.000 OA
ATOM     24  C   UNL     1      48.265   5.178  16.370  0.00  0.00    +0.000 A 
ATOM     29  H   UNL     1      46.631   2.387  16.921  0.00  0.00    +0.000 HD
ENDBRANCH  13  15
BRANCH  12  11
ATOM     11  C   UNL     1      46.466   7.552  12.740  0.00  0.00    +0.000 C 
BRANCH  11  10
ATOM      7  C   UNL     1      44.767   4.188  10.590  0.00  0.00    +0.000 A 
ATOM      8  C   UNL     1      45.540   5.136   9.918  0.00  0.00    +0.000 A 
ATOM      9  C   UNL     1      46.063   6.235  10.595  0.00  0.00    +0.000 A 
ATOM     10  C   UNL     1      45.827   6.415  11.967  0.00  0.00    +0.000 A 
ATOM     25  C   UNL     1      45.012   5.483  12.626  0.00  0.00    +0.000 A 
ATOM     26  C   UNL     1      44.526   4.356  11.957  0.00  0.00    +0.000 A 
BRANCH   7   6
ATOM      6  C   UNL     1      44.145   3.060   9.815  0.00  0.00    +0.000 C 
BRANCH   6   5
ATOM      5  N   UNL     1      44.873   2.839   8.571  0.00  0.00    +0.000 NA
ATOM     27  H   UNL     1      44.212   2.782   7.798  0.00  0.00    +0.000 HD
BRANCH   5   4
ATOM      4  C   UNL     1      45.654   1.617   8.653  0.00  0.00    +0.000 C 
BRANCH   4   3
ATOM      3  C   UNL     1      46.777   1.654   7.625  0.00  0.00    +0.000 C 
BRANCH   3   2
ATOM      1  C   UNL     1      46.926   2.913   5.464  0.00  0.00    +0.000 C 
ATOM      2  C   UNL     1      46.843   3.032   6.974  0.00  0.00    +0.000 C 
ENDBRANCH   3   2
ENDBRANCH   4   3
ENDBRANCH   5   4
ENDBRANCH   6   5
ENDBRANCH   7   6
ENDBRANCH  11  10
ENDBRANCH  12  11
TORSDOF 8
ENDMDL
MODEL 2
REMARK VINA RESULT:    -7.060      1.677      2.509
REMARK INTER + INTRA:         -11.564
REMARK INTER:                 -10.635
REMARK INTRA:                  -0.929
REMARK UNBOUND:                -1.202
REMARK  Name = 
REMARK  9 active torsions:
REMARK  status: ('A' for Active; 'I' for Inactive)
REMARK    1  A    between atoms: C_1  and  C_2
REMARK    2  A    between atoms: C_2  and  C_3
REMARK    3  A    between atoms: C_3  and  C_4
REMARK    4  A    between atoms: C_4  and  N_5
REMARK    5  A    between atoms: N_5  and  C_6
REMARK    6  A    between atoms: C_6  and  C_7
REMARK    7  A    between atoms: C_10  and  C_11
REMARK    8  A    between atoms: C_11  and  N_12
REMARK    9  A    between atoms: C_13  and  C_15
REMARK                            x       y       z     vdW  Elec       q    Type
REMARK                         _______ _______ _______ _____ _____    ______ ____
ROOT
ATOM     12  N   UNL     1      45.387   4.893  14.023  0.00  0.00    +0.000 N 
ATOM     13  C   UNL     1      46.578   4.258  14.294  0.00  0.00    +0.000 C 
ATOM     14  O   UNL     1      46.851   3.155  13.870  0.00  0.00    +0.000 OA
ATOM     28  H   UNL     1      45.108   5.643  14.653  0.00  0.00    +0.000 HD
ENDROOT
BRANCH  13  15
ATOM     15  C   UNL     1      47.528   5.034  15.112  0.00  0.00    +0.000 A 
ATOM     16  C   UNL     1      48.214   6.113  14.570  0.00  0.00    +0.000 A 
ATOM     17  S   UNL     1      49.331   6.819  15.653  0.00  0.00    +0.000 S 
ATOM     18  C   UNL     1      48.926   5.714  16.883  0.00  0.00    +0.000 A 
ATOM     19  N   UNL     1      49.551   5.734  18.092  0.00  0.00    +0.000 NA
ATOM     20  C   UNL     1      49.128   4.842  18.926  0.00  0.00    +0.000 A 
ATOM     21  N   UNL     1      48.134   3.937  18.664  0.00  0.00    +0.000 N 
ATOM     22  C   UNL     1      47.480   3.878  17.464  0.00  0.00    +0.000 A 
ATOM     23  O   UNL     1      46.570   3.077  17.273  0.00  0.00    +0.000 OA
ATOM     24  C   UNL     1      47.929   4.846  16.483  0.00  0.00    +0.000 A 
ATOM     29  H   UNL     1      47.816   3.289  19.369  0.00  0.00    +0.000 HD
ENDBRANCH  13  15
BRANCH  12  11
ATOM     11  C   UNL     1      44.344   4.291  13.231  0.00  0.00    +0.000 C 
BRANCH  11  10
ATOM      7  C   UNL     1      45.161   4.037   8.977  0.00  0.00    +0.000 A 
ATOM      8  C   UNL     1      44.548   2.974   9.641  0.00  0.00    +0.000 A 
ATOM      9  C   UNL     1      44.310   3.036  11.013  0.00  0.00    +0.000 A 
ATOM     10  C   UNL     1      44.680   4.167  11.758  0.00  0.00    +0.000 A 
ATOM     25  C   UNL     1      45.337   5.212  11.092  0.00  0.00    +0.000 A 
ATOM     26  C   UNL     1      45.533   5.169   9.708  0.00  0.00    +0.000 A 
BRANCH   7   6
ATOM      6  C   UNL     1      45.482   3.905   7.515  0.00  0.00    +0.000 C 
BRANCH   6   5
ATOM      5  N   UNL     1      46.841   4.361   7.251  0.00  0.00    +0.000 NA
ATOM     27  H   UNL     1      46.831   5.033   6.486  0.00  0.00    +0.000 HD
BRANCH   5   4
ATOM      4  C   UNL     1      47.696   3.235   6.916  0.00  0.00    +0.000 C 
BRANCH   4   3
ATOM      3  C   UNL     1      46.975   2.314   5.940  0.00  0.00    +0.000 C 
BRANCH   3   2
ATOM      1  C   UNL     1      46.767   0.654   7.806  0.00  0.00    +0.000 C 
ATOM      2  C   UNL     1      47.167   0.859   6.357  0.00  0.00    +0.000 C 
ENDBRANCH   3   2
ENDBRANCH   4   3
ENDBRANCH   5   4
ENDBRANCH   6   5
ENDBRANCH   7   6
ENDBRANCH  11  10
ENDBRANCH  12  11
TORSDOF 8
ENDMDL
MODEL 3
REMARK VINA RESULT:    -6.759      4.018      8.096
REMARK INTER + INTRA:         -11.123
REMARK INTER:                  -9.968
REMARK INTRA:                  -1.154
REMARK UNBOUND:                -1.202
REMARK  Name = 
REMARK  9 active torsions:
REMARK  status: ('A' for Active; 'I' for Inactive)
REMARK    1  A    between atoms: C_1  and  C_2
REMARK    2  A    between atoms: C_2  and  C_3
REMARK    3  A    between atoms: C_3  and  C_4
REMARK    4  A    between atoms: C_4  and  N_5
REMARK    5  A    between atoms: N_5  and  C_6
REMARK    6  A    between atoms: C_6  and  C_7
REMARK    7  A    between atoms: C_10  and  C_11
REMARK    8  A    between atoms: C_11  and  N_12
REMARK    9  A    between atoms: C_13  and  C_15
REMARK                            x       y       z     vdW  Elec       q    Type
REMARK                         _______ _______ _______ _____ _____    ______ ____
ROOT
ATOM     12  N   UNL     1      47.798   5.824  16.025  0.00  0.00    +0.000 N 
ATOM     13  C   UNL     1      48.287   6.243  14.808  0.00  0.00    +0.000 C 
ATOM     14  O   UNL     1      49.435   6.593  14.641  0.00  0.00    +0.000 OA
ATOM     28  H   UNL     1      46.789   5.857  16.156  0.00  0.00    +0.000 HD
ENDROOT
BRANCH  13  15
ATOM     15  C   UNL     1      47.317   6.201  13.698  0.00  0.00    +0.000 A 
ATOM     16  C   UNL     1      46.955   7.363  13.028  0.00  0.00    +0.000 A 
ATOM     17  S   UNL     1      45.753   7.113  11.839  0.00  0.00    +0.000 S 
ATOM     18  C   UNL     1      45.685   5.445  12.174  0.00  0.00    +0.000 A 
ATOM     19  N   UNL     1      44.816   4.623  11.525  0.00  0.00    +0.000 NA
ATOM     20  C   UNL     1      44.889   3.383  11.879  0.00  0.00    +0.000 A 
ATOM     21  N   UNL     1      45.757   2.888  12.817  0.00  0.00    +0.000 N 
ATOM     22  C   UNL     1      46.645   3.676  13.496  0.00  0.00    +0.000 A 
ATOM     23  O   UNL     1      47.432   3.195  14.306  0.00  0.00    +0.000 OA
ATOM     24  C   UNL     1      46.592   5.082  13.151  0.00  0.00    +0.000 A 
ATOM     29  H   UNL     1      45.797   1.902  13.024  0.00  0.00    +0.000 HD
ENDBRANCH  13  15
BRANCH  12  11
ATOM     11  C   UNL     1      48.605   5.789  17.219  0.00  0.00    +0.000 C 
BRANCH  11  10
ATOM      7  C   UNL     1      51.168   2.292  17.390  0.00  0.00    +0.000 A 
ATOM      8  C   UNL     1      49.793   2.150  17.197  0.00  0.00    +0.000 A 
ATOM      9  C   UNL     1      48.960   3.266  17.171  0.00  0.00    +0.000 A 
ATOM     10  C   UNL     1      49.482   4.559  17.338  0.00  0.00    +0.000 A 
ATOM     25  C   UNL     1      50.858   4.691  17.577  0.00  0.00    +0.000 A 
ATOM     26  C   UNL     1      51.699   3.575  17.555  0.00  0.00    +0.000 A 
BRANCH   7   6
ATOM      6  C   UNL     1      52.028   1.065  17.498  0.00  0.00    +0.000 C 
BRANCH   6   5
ATOM      5  N   UNL     1      52.952   1.191  18.619  0.00  0.00    +0.000 NA
ATOM     27  H   UNL     1      53.015   2.168  18.899  0.00  0.00    +0.000 HD
BRANCH   5   4
ATOM      4  C   UNL     1      54.264   0.690  18.252  0.00  0.00    +0.000 C 
BRANCH   4   3
ATOM      3  C   UNL     1      54.828   1.516  17.103  0.00  0.00    +0.000 C 
BRANCH   3   2
ATOM      1  C   UNL     1      55.002  -0.845  16.280  0.00  0.00    +0.000 C 
ATOM      2  C   UNL     1      55.413   0.595  16.037  0.00  0.00    +0.000 C 
ENDBRANCH   3   2
ENDBRANCH   4   3
ENDBRANCH   5   4
ENDBRANCH   6   5
ENDBRANCH   7   6
ENDBRANCH  11  10
ENDBRANCH  12  11
TORSDOF 8
ENDMDL
MODEL 4
REMARK VINA RESULT:    -6.758      1.603      1.923
REMARK INTER + INTRA:         -11.120
REMARK INTER:                 -10.125
REMARK INTRA:                  -0.996
REMARK UNBOUND:                -1.202
REMARK  Name = 
REMARK  9 active torsions:
REMARK  status: ('A' for Active; 'I' for Inactive)
REMARK    1  A    between atoms: C_1  and  C_2
REMARK    2  A    between atoms: C_2  and  C_3
REMARK    3  A    between atoms: C_3  and  C_4
REMARK    4  A    between atoms: C_4  and  N_5
REMARK    5  A    between atoms: N_5  and  C_6
REMARK    6  A    between atoms: C_6  and  C_7
REMARK    7  A    between atoms: C_10  and  C_11
REMARK    8  A    between atoms: C_11  and  N_12
REMARK    9  A    between atoms: C_13  and  C_15
REMARK                            x       y       z     vdW  Elec       q    Type
REMARK                         _______ _______ _______ _____ _____    ______ ____
ROOT
ATOM     12  N   UNL     1      47.970   6.865  14.869  0.00  0.00    +0.000 N 
ATOM     13  C   UNL     1      49.050   6.782  15.719  0.00  0.00    +0.000 C 
ATOM     14  O   UNL     1      50.193   6.675  15.328  0.00  0.00    +0.000 OA
ATOM     28  H   UNL     1      47.057   6.633  15.256  0.00  0.00    +0.000 HD
ENDROOT
BRANCH  13  15
ATOM     15  C   UNL     1      48.724   6.870  17.154  0.00  0.00    +0.000 A 
ATOM     16  C   UNL     1      48.347   8.080  17.722  0.00  0.00    +0.000 A 
ATOM     17  S   UNL     1      48.101   7.989  19.411  0.00  0.00    +0.000 S 
ATOM     18  C   UNL     1      48.479   6.329  19.436  0.00  0.00    +0.000 A 
ATOM     19  N   UNL     1      48.498   5.620  20.597  0.00  0.00    +0.000 NA
ATOM     20  C   UNL     1      48.791   4.369  20.454  0.00  0.00    +0.000 A 
ATOM     21  N   UNL     1      49.061   3.763  19.256  0.00  0.00    +0.000 N 
ATOM     22  C   UNL     1      49.057   4.435  18.064  0.00  0.00    +0.000 A 
ATOM     23  O   UNL     1      49.270   3.854  17.005  0.00  0.00    +0.000 OA
ATOM     24  C   UNL     1      48.753   5.848  18.169  0.00  0.00    +0.000 A 
ATOM     29  H   UNL     1      49.244   2.772  19.200  0.00  0.00    +0.000 HD
ENDBRANCH  13  15
BRANCH  12  11
ATOM     11  C   UNL     1      48.100   6.807  13.435  0.00  0.00    +0.000 C 
BRANCH  11  10
ATOM      7  C   UNL     1      44.842   4.795  11.393  0.00  0.00    +0.000 A 
ATOM      8  C   UNL     1      45.569   5.796  10.746  0.00  0.00    +0.000 A 
ATOM      9  C   UNL     1      46.597   6.467  11.405  0.00  0.00    +0.000 A 
ATOM     10  C   UNL     1      46.926   6.154  12.733  0.00  0.00    +0.000 A 
ATOM     25  C   UNL     1      46.161   5.179  13.393  0.00  0.00    +0.000 A 
ATOM     26  C   UNL     1      45.162   4.474  12.716  0.00  0.00    +0.000 A 
BRANCH   7   6
ATOM      6  C   UNL     1      43.685   4.150  10.685  0.00  0.00    +0.000 C 
BRANCH   6   5
ATOM      5  N   UNL     1      44.090   3.700   9.358  0.00  0.00    +0.000 NA
ATOM     27  H   UNL     1      43.293   3.745   8.727  0.00  0.00    +0.000 HD
BRANCH   5   4
ATOM      4  C   UNL     1      44.603   2.342   9.420  0.00  0.00    +0.000 C 
BRANCH   4   3
ATOM      3  C   UNL     1      45.786   2.194   8.473  0.00  0.00    +0.000 C 
BRANCH   3   2
ATOM      1  C   UNL     1      46.603   3.146   6.303  0.00  0.00    +0.000 C 
ATOM      2  C   UNL     1      45.942   3.458   7.633  0.00  0.00    +0.000 C 
ENDBRANCH   3   2
ENDBRANCH   4   3
ENDBRANCH   5   4
ENDBRANCH   6   5
ENDBRANCH   7   6
ENDBRANCH  11  10
ENDBRANCH  12  11
TORSDOF 8
ENDMDL
MODEL 5
REMARK VINA RESULT:    -6.688      3.891      8.437
REMARK INTER + INTRA:         -11.018
REMARK INTER:                 -10.063
REMARK INTRA:                  -0.956
REMARK UNBOUND:                -1.202
REMARK  Name = 
REMARK  9 active torsions:
REMARK  status: ('A' for Active; 'I' for Inactive)
REMARK    1  A    between atoms: C_1  and  C_2
REMARK    2  A    between atoms: C_2  and  C_3
REMARK    3  A    between atoms: C_3  and  C_4
REMARK    4  A    between atoms: C_4  and  N_5
REMARK    5  A    between atoms: N_5  and  C_6
REMARK    6  A    between atoms: C_6  and  C_7
REMARK    7  A    between atoms: C_10  and  C_11
REMARK    8  A    between atoms: C_11  and  N_12
REMARK    9  A    between atoms: C_13  and  C_15
REMARK                            x       y       z     vdW  Elec       q    Type
REMARK                         _______ _______ _______ _____ _____    ______ ____
ROOT
ATOM     12  N   UNL     1      46.783   4.411  15.770  0.00  0.00    +0.000 N 
ATOM     13  C   UNL     1      46.874   4.094  14.433  0.00  0.00    +0.000 C 
ATOM     14  O   UNL     1      47.261   3.018  14.033  0.00  0.00    +0.000 OA
ATOM     28  H   UNL     1      46.764   5.400  16.012  0.00  0.00    +0.000 HD
ENDROOT
BRANCH  13  15
ATOM     15  C   UNL     1      46.427   5.153  13.509  0.00  0.00    +0.000 A 
ATOM     16  C   UNL     1      47.231   6.257  13.254  0.00  0.00    +0.000 A 
ATOM     17  S   UNL     1      46.494   7.410  12.230  0.00  0.00    +0.000 S 
ATOM     18  C   UNL     1      45.083   6.468  12.087  0.00  0.00    +0.000 A 
ATOM     19  N   UNL     1      44.011   6.895  11.365  0.00  0.00    +0.000 NA
ATOM     20  C   UNL     1      43.020   6.066  11.340  0.00  0.00    +0.000 A 
ATOM     21  N   UNL     1      43.006   4.847  11.965  0.00  0.00    +0.000 N 
ATOM     22  C   UNL     1      44.058   4.377  12.702  0.00  0.00    +0.000 A 
ATOM     23  O   UNL     1      44.026   3.265  13.220  0.00  0.00    +0.000 OA
ATOM     24  C   UNL     1      45.191   5.277  12.780  0.00  0.00    +0.000 A 
ATOM     29  H   UNL     1      42.218   4.223  11.876  0.00  0.00    +0.000 HD
ENDBRANCH  13  15
BRANCH  12  11
ATOM     11  C   UNL     1      47.167   3.496  16.816  0.00  0.00    +0.000 C 
BRANCH  11  10
ATOM      7  C   UNL     1      51.408   3.262  17.704  0.00  0.00    +0.000 A 
ATOM      8  C   UNL     1      50.739   4.485  17.775  0.00  0.00    +0.000 A 
ATOM      9  C   UNL     1      49.384   4.573  17.462  0.00  0.00    +0.000 A 
ATOM     10  C   UNL     1      48.660   3.437  17.069  0.00  0.00    +0.000 A 
ATOM     25  C   UNL     1      49.349   2.220  16.955  0.00  0.00    +0.000 A 
ATOM     26  C   UNL     1      50.696   2.123  17.315  0.00  0.00    +0.000 A 
BRANCH   7   6
ATOM      6  C   UNL     1      52.886   3.215  17.965  0.00  0.00    +0.000 C 
BRANCH   6   5
ATOM      5  N   UNL     1      53.204   2.131  18.887  0.00  0.00    +0.000 NA
ATOM     27  H   UNL     1      53.428   2.519  19.801  0.00  0.00    +0.000 HD
BRANCH   5   4
ATOM      4  C   UNL     1      54.324   1.353  18.386  0.00  0.00    +0.000 C 
BRANCH   4   3
ATOM      3  C   UNL     1      53.810   0.095  17.698  0.00  0.00    +0.000 C 
BRANCH   3   2
ATOM      1  C   UNL     1      55.549   0.995  16.134  0.00  0.00    +0.000 C 
ATOM      2  C   UNL     1      54.568  -0.133  16.394  0.00  0.00    +0.000 C 
ENDBRANCH   3   2
ENDBRANCH   4   3
ENDBRANCH   5   4
ENDBRANCH   6   5
ENDBRANCH   7   6
ENDBRANCH  11  10
ENDBRANCH  12  11
TORSDOF 8
ENDMDL
MODEL 6
REMARK VINA RESULT:    -6.544      2.163      2.668
REMARK INTER + INTRA:         -10.806
REMARK INTER:                  -9.882
REMARK INTRA:                  -0.924
REMARK UNBOUND:                -1.202
REMARK  Name = 
REMARK  9 active torsions:
REMARK  status: ('A' for Active; 'I' for Inactive)
REMARK    1  A    between atoms: C_1  and  C_2
REMARK    2  A    between atoms: C_2  and  C_3
REMARK    3  A    between atoms: C_3  and  C_4
REMARK    4  A    between atoms: C_4  and  N_5
REMARK    5  A    between atoms: N_5  and  C_6
REMARK    6  A    between atoms: C_6  and  C_7
REMARK    7  A    between atoms: C_10  and  C_11
REMARK    8  A    between atoms: C_11  and  N_12
REMARK    9  A    between atoms: C_13  and  C_15
REMARK                            x       y       z     vdW  Elec       q    Type
REMARK                         _______ _______ _______ _____ _____    ______ ____
ROOT
ATOM     12  N   UNL     1      47.849   6.471  14.997  0.00  0.00    +0.000 N 
ATOM     13  C   UNL     1      49.012   6.367  15.728  0.00  0.00    +0.000 C 
ATOM     14  O   UNL     1      50.105   6.628  15.273  0.00  0.00    +0.000 OA
ATOM     28  H   UNL     1      47.044   5.944  15.330  0.00  0.00    +0.000 HD
ENDROOT
BRANCH  13  15
ATOM     15  C   UNL     1      48.833   5.948  17.130  0.00  0.00    +0.000 A 
ATOM     16  C   UNL     1      49.094   4.640  17.518  0.00  0.00    +0.000 A 
ATOM     17  S   UNL     1      48.736   4.337  19.162  0.00  0.00    +0.000 S 
ATOM     18  C   UNL     1      48.231   5.944  19.409  0.00  0.00    +0.000 A 
ATOM     19  N   UNL     1      47.755   6.363  20.613  0.00  0.00    +0.000 NA
ATOM     20  C   UNL     1      47.422   7.611  20.650  0.00  0.00    +0.000 A 
ATOM     21  N   UNL     1      47.529   8.479  19.595  0.00  0.00    +0.000 N 
ATOM     22  C   UNL     1      48.000   8.103  18.367  0.00  0.00    +0.000 A 
ATOM     23  O   UNL     1      48.115   8.914  17.454  0.00  0.00    +0.000 OA
ATOM     24  C   UNL     1      48.370   6.705  18.264  0.00  0.00    +0.000 A 
ATOM     29  H   UNL     1      47.292   9.455  19.694  0.00  0.00    +0.000 HD
ENDBRANCH  13  15
BRANCH  12  11
ATOM     11  C   UNL     1      47.832   6.876  13.613  0.00  0.00    +0.000 C 
BRANCH  11  10
ATOM      7  C   UNL     1      45.071   4.622  11.138  0.00  0.00    +0.000 A 
ATOM      8  C   UNL     1      45.645   5.801  10.660  0.00  0.00    +0.000 A 
ATOM      9  C   UNL     1      46.509   6.546  11.460  0.00  0.00    +0.000 A 
ATOM     10  C   UNL     1      46.823   6.129  12.763  0.00  0.00    +0.000 A 
ATOM     25  C   UNL     1      46.207   4.968  13.253  0.00  0.00    +0.000 A 
ATOM     26  C   UNL     1      45.378   4.196  12.434  0.00  0.00    +0.000 A 
BRANCH   7   6
ATOM      6  C   UNL     1      44.078   3.887  10.283  0.00  0.00    +0.000 C 
BRANCH   6   5
ATOM      5  N   UNL     1      44.421   2.471  10.212  0.00  0.00    +0.000 NA
ATOM     27  H   UNL     1      44.835   2.178  11.095  0.00  0.00    +0.000 HD
BRANCH   5   4
ATOM      4  C   UNL     1      45.347   2.229   9.120  0.00  0.00    +0.000 C 
BRANCH   4   3
ATOM      3  C   UNL     1      45.070   3.204   7.983  0.00  0.00    +0.000 C 
BRANCH   3   2
ATOM      1  C   UNL     1      46.676   2.921   6.081  0.00  0.00    +0.000 C 
ATOM      2  C   UNL     1      46.383   3.673   7.366  0.00  0.00    +0.000 C 
ENDBRANCH   3   2
ENDBRANCH   4   3
ENDBRANCH   5   4
ENDBRANCH   6   5
ENDBRANCH   7   6
ENDBRANCH  11  10
ENDBRANCH  12  11
TORSDOF 8
ENDMDL
MODEL 7
REMARK VINA RESULT:    -6.333      3.576      8.894
REMARK INTER + INTRA:         -10.496
REMARK INTER:                  -9.454
REMARK INTRA:                  -1.042
REMARK UNBOUND:                -1.202
REMARK  Name = 
REMARK  9 active torsions:
REMARK  status: ('A' for Active; 'I' for Inactive)
REMARK    1  A    between atoms: C_1  and  C_2
REMARK    2  A    between atoms: C_2  and  C_3
REMARK    3  A    between atoms: C_3  and  C_4
REMARK    4  A    between atoms: C_4  and  N_5
REMARK    5  A    between atoms: N_5  and  C_6
REMARK    6  A    between atoms: C_6  and  C_7
REMARK    7  A    between atoms: C_10  and  C_11
REMARK    8  A    between atoms: C_11  and  N_12
REMARK    9  A    between atoms: C_13  and  C_15
REMARK                            x       y       z     vdW  Elec       q    Type
REMARK                         _______ _______ _______ _____ _____    ______ ____
ROOT
ATOM     12  N   UNL     1      46.820   4.398  15.782  0.00  0.00    +0.000 N 
ATOM     13  C   UNL     1      46.886   4.073  14.445  0.00  0.00    +0.000 C 
ATOM     14  O   UNL     1      47.237   2.984  14.045  0.00  0.00    +0.000 OA
ATOM     28  H   UNL     1      46.832   5.388  16.020  0.00  0.00    +0.000 HD
ENDROOT
BRANCH  13  15
ATOM     15  C   UNL     1      46.458   5.141  13.522  0.00  0.00    +0.000 A 
ATOM     16  C   UNL     1      47.293   6.216  13.246  0.00  0.00    +0.000 A 
ATOM     17  S   UNL     1      46.576   7.386  12.228  0.00  0.00    +0.000 S 
ATOM     18  C   UNL     1      45.133   6.490  12.115  0.00  0.00    +0.000 A 
ATOM     19  N   UNL     1      44.063   6.949  11.410  0.00  0.00    +0.000 NA
ATOM     20  C   UNL     1      43.045   6.153  11.407  0.00  0.00    +0.000 A 
ATOM     21  N   UNL     1      43.001   4.939  12.040  0.00  0.00    +0.000 N 
ATOM     22  C   UNL     1      44.050   4.439  12.762  0.00  0.00    +0.000 A 
ATOM     23  O   UNL     1      43.990   3.332  13.288  0.00  0.00    +0.000 OA
ATOM     24  C   UNL     1      45.214   5.301  12.814  0.00  0.00    +0.000 A 
ATOM     29  H   UNL     1      42.192   4.340  11.970  0.00  0.00    +0.000 HD
ENDBRANCH  13  15
BRANCH  12  11
ATOM     11  C   UNL     1      47.191   3.476  16.827  0.00  0.00    +0.000 C 
BRANCH  11  10
ATOM      7  C   UNL     1      51.433   3.118  17.665  0.00  0.00    +0.000 A 
ATOM      8  C   UNL     1      50.781   4.340  17.838  0.00  0.00    +0.000 A 
ATOM      9  C   UNL     1      49.426   4.470  17.542  0.00  0.00    +0.000 A 
ATOM     10  C   UNL     1      48.684   3.378  17.064  0.00  0.00    +0.000 A 
ATOM     25  C   UNL     1      49.356   2.165  16.849  0.00  0.00    +0.000 A 
ATOM     26  C   UNL     1      50.704   2.023  17.191  0.00  0.00    +0.000 A 
BRANCH   7   6
ATOM      6  C   UNL     1      52.912   3.031  17.910  0.00  0.00    +0.000 C 
BRANCH   6   5
ATOM      5  N   UNL     1      53.174   2.499  19.243  0.00  0.00    +0.000 NA
ATOM     27  H   UNL     1      52.292   2.367  19.734  0.00  0.00    +0.000 HD
BRANCH   5   4
ATOM      4  C   UNL     1      54.032   3.404  19.988  0.00  0.00    +0.000 C 
BRANCH   4   3
ATOM      3  C   UNL     1      54.427   4.582  19.107  0.00  0.00    +0.000 C 
BRANCH   3   2
ATOM      1  C   UNL     1      53.252   6.793  19.196  0.00  0.00    +0.000 C 
ATOM      2  C   UNL     1      54.260   5.888  19.878  0.00  0.00    +0.000 C 
ENDBRANCH   3   2
ENDBRANCH   4   3
ENDBRANCH   5   4
ENDBRANCH   6   5
ENDBRANCH   7   6
ENDBRANCH  11  10
ENDBRANCH  12  11
TORSDOF 8
ENDMDL
MODEL 8
REMARK VINA RESULT:    -6.186      2.524      3.279
REMARK INTER + INTRA:         -10.281
REMARK INTER:                  -9.573
REMARK INTRA:                  -0.708
REMARK UNBOUND:                -1.202
REMARK  Name = 
REMARK  9 active torsions:
REMARK  status: ('A' for Active; 'I' for Inactive)
REMARK    1  A    between atoms: C_1  and  C_2
REMARK    2  A    between atoms: C_2  and  C_3
REMARK    3  A    between atoms: C_3  and  C_4
REMARK    4  A    between atoms: C_4  and  N_5
REMARK    5  A    between atoms: N_5  and  C_6
REMARK    6  A    between atoms: C_6  and  C_7
REMARK    7  A    between atoms: C_10  and  C_11
REMARK    8  A    between atoms: C_11  and  N_12
REMARK    9  A    between atoms: C_13  and  C_15
REMARK                            x       y       z     vdW  Elec       q    Type
REMARK                         _______ _______ _______ _____ _____    ______ ____
ROOT
ATOM     12  N   UNL     1      47.523   5.526  15.488  0.00  0.00    +0.000 N 
ATOM     13  C   UNL     1      48.596   5.664  16.340  0.00  0.00    +0.000 C 
ATOM     14  O   UNL     1      49.316   4.741  16.653  0.00  0.00    +0.000 OA
ATOM     28  H   UNL     1      46.802   6.245  15.530  0.00  0.00    +0.000 HD
ENDROOT
BRANCH  13  15
ATOM     15  C   UNL     1      48.837   7.037  16.822  0.00  0.00    +0.000 A 
ATOM     16  C   UNL     1      49.573   7.936  16.062  0.00  0.00    +0.000 A 
ATOM     17  S   UNL     1      49.815   9.440  16.837  0.00  0.00    +0.000 S 
ATOM     18  C   UNL     1      48.937   8.942  18.207  0.00  0.00    +0.000 A 
ATOM     19  N   UNL     1      48.786   9.753  19.290  0.00  0.00    +0.000 NA
ATOM     20  C   UNL     1      48.084   9.240  20.247  0.00  0.00    +0.000 A 
ATOM     21  N   UNL     1      47.516   7.994  20.217  0.00  0.00    +0.000 N 
ATOM     22  C   UNL     1      47.643   7.144  19.153  0.00  0.00    +0.000 A 
ATOM     23  O   UNL     1      47.091   6.047  19.144  0.00  0.00    +0.000 OA
ATOM     24  C   UNL     1      48.437   7.662  18.057  0.00  0.00    +0.000 A 
ATOM     29  H   UNL     1      46.943   7.661  20.978  0.00  0.00    +0.000 HD
ENDBRANCH  13  15
BRANCH  12  11
ATOM     11  C   UNL     1      47.143   4.260  14.912  0.00  0.00    +0.000 C 
BRANCH  11  10
ATOM      7  C   UNL     1      45.011   4.648  11.153  0.00  0.00    +0.000 A 
ATOM      8  C   UNL     1      45.156   3.397  11.755  0.00  0.00    +0.000 A 
ATOM      9  C   UNL     1      45.865   3.261  12.947  0.00  0.00    +0.000 A 
ATOM     10  C   UNL     1      46.449   4.375  13.569  0.00  0.00    +0.000 A 
ATOM     25  C   UNL     1      46.339   5.621  12.935  0.00  0.00    +0.000 A 
ATOM     26  C   UNL     1      45.588   5.765  11.765  0.00  0.00    +0.000 A 
BRANCH   7   6
ATOM      6  C   UNL     1      44.315   4.750   9.825  0.00  0.00    +0.000 C 
BRANCH   6   5
ATOM      5  N   UNL     1      45.288   4.934   8.755  0.00  0.00    +0.000 NA
ATOM     27  H   UNL     1      44.970   5.674   8.132  0.00  0.00    +0.000 HD
BRANCH   5   4
ATOM      4  C   UNL     1      45.466   3.698   8.015  0.00  0.00    +0.000 C 
BRANCH   4   3
ATOM      3  C   UNL     1      46.762   3.756   7.217  0.00  0.00    +0.000 C 
BRANCH   3   2
ATOM      1  C   UNL     1      47.194   1.288   7.182  0.00  0.00    +0.000 C 
ATOM      2  C   UNL     1      46.892   2.514   6.341  0.00  0.00    +0.000 C 
ENDBRANCH   3   2
ENDBRANCH   4   3
ENDBRANCH   5   4
ENDBRANCH   6   5
ENDBRANCH   7   6
ENDBRANCH  11  10
ENDBRANCH  12  11
TORSDOF 8
ENDMDL
MODEL 9
REMARK VINA RESULT:    -6.153      2.087      2.794
REMARK INTER + INTRA:         -10.233
REMARK INTER:                  -9.476
REMARK INTRA:                  -0.757
REMARK UNBOUND:                -1.202
REMARK  Name = 
REMARK  9 active torsions:
REMARK  status: ('A' for Active; 'I' for Inactive)
REMARK    1  A    between atoms: C_1  and  C_2
REMARK    2  A    between atoms: C_2  and  C_3
REMARK    3  A    between atoms: C_3  and  C_4
REMARK    4  A    between atoms: C_4  and  N_5
REMARK    5  A    between atoms: N_5  and  C_6
REMARK    6  A    between atoms: C_6  and  C_7
REMARK    7  A    between atoms: C_10  and  C_11
REMARK    8  A    between atoms: C_11  and  N_12
REMARK    9  A    between atoms: C_13  and  C_15
REMARK                            x       y       z     vdW  Elec       q    Type
REMARK                         _______ _______ _______ _____ _____    ______ ____
ROOT
ATOM     12  N   UNL     1      48.151   6.300  14.685  0.00  0.00    +0.000 N 
ATOM     13  C   UNL     1      48.634   6.863  15.846  0.00  0.00    +0.000 C 
ATOM     14  O   UNL     1      48.569   8.050  16.083  0.00  0.00    +0.000 OA
ATOM     28  H   UNL     1      48.520   5.388  14.425  0.00  0.00    +0.000 HD
ENDROOT
BRANCH  13  15
ATOM     15  C   UNL     1      49.208   5.907  16.811  0.00  0.00    +0.000 A 
ATOM     16  C   UNL     1      48.384   5.117  17.602  0.00  0.00    +0.000 A 
ATOM     17  S   UNL     1      49.243   4.146  18.716  0.00  0.00    +0.000 S 
ATOM     18  C   UNL     1      50.741   4.742  18.170  0.00  0.00    +0.000 A 
ATOM     19  N   UNL     1      51.914   4.345  18.736  0.00  0.00    +0.000 NA
ATOM     20  C   UNL     1      52.967   4.875  18.207  0.00  0.00    +0.000 A 
ATOM     21  N   UNL     1      52.955   5.759  17.161  0.00  0.00    +0.000 N 
ATOM     22  C   UNL     1      51.802   6.188  16.563  0.00  0.00    +0.000 A 
ATOM     23  O   UNL     1      51.829   6.955  15.605  0.00  0.00    +0.000 OA
ATOM     24  C   UNL     1      50.587   5.639  17.131  0.00  0.00    +0.000 A 
ATOM     29  H   UNL     1      53.813   6.110  16.762  0.00  0.00    +0.000 HD
ENDBRANCH  13  15
BRANCH  12  11
ATOM     11  C   UNL     1      47.548   7.080  13.633  0.00  0.00    +0.000 C 
BRANCH  11  10
ATOM      7  C   UNL     1      44.977   4.705  11.069  0.00  0.00    +0.000 A 
ATOM      8  C   UNL     1      45.649   5.817  10.558  0.00  0.00    +0.000 A 
ATOM      9  C   UNL     1      46.452   6.602  11.383  0.00  0.00    +0.000 A 
ATOM     10  C   UNL     1      46.605   6.294  12.744  0.00  0.00    +0.000 A 
ATOM     25  C   UNL     1      45.891   5.203  13.260  0.00  0.00    +0.000 A 
ATOM     26  C   UNL     1      45.123   4.388  12.423  0.00  0.00    +0.000 A 
BRANCH   7   6
ATOM      6  C   UNL     1      44.051   3.929  10.176  0.00  0.00    +0.000 C 
BRANCH   6   5
ATOM      5  N   UNL     1      44.201   4.363   8.792  0.00  0.00    +0.000 NA
ATOM     27  H   UNL     1      43.287   4.600   8.410  0.00  0.00    +0.000 HD
BRANCH   5   4
ATOM      4  C   UNL     1      44.818   3.315   7.997  0.00  0.00    +0.000 C 
BRANCH   4   3
ATOM      3  C   UNL     1      46.219   3.743   7.580  0.00  0.00    +0.000 C 
BRANCH   3   2
ATOM      1  C   UNL     1      47.523   1.711   6.911  0.00  0.00    +0.000 C 
ATOM      2  C   UNL     1      46.700   2.884   6.414  0.00  0.00    +0.000 C 
ENDBRANCH   3   2
ENDBRANCH   4   3
ENDBRANCH   5   4
ENDBRANCH   6   5
ENDBRANCH   7   6
ENDBRANCH  11  10
ENDBRANCH  12  11
TORSDOF 8
ENDMDL
