MODEL 1
REMARK VINA RESULT:    -6.952      0.000      0.000
REMARK INTER + INTRA:          -9.039
REMARK INTER:                  -8.984
REMARK INTRA:                  -0.056
REMARK UNBOUND:                -0.056
REMARK  Name = 
REMARK  7 active torsions:
REMARK  status: ('A' for Active; 'I' for Inactive)
REMARK    1  A    between atoms: C_1  and  N_2
REMARK    2  A    between atoms: C_5  and  N_6
REMARK    3  A    between atoms: N_6  and  C_7
REMARK    4  A    between atoms: C_8  and  C_10
REMARK    5  A    between atoms: C_10  and  N_11
REMARK    6  A    between atoms: C_12  and  C_13
REMARK    7  A    between atoms: C_19  and  C_20
REMARK                            x       y       z     vdW  Elec       q    Type
REMARK                         _______ _______ _______ _____ _____    ______ ____
ROOT
ATOM     11  N   UNL     1      44.907   4.987  10.311  0.00  0.00    +0.000 N 
ATOM     12  C   UNL     1      44.051   4.000  10.769  0.00  0.00    +0.000 A 
ATOM     16  C   UNL     1      44.179   2.924   9.911  0.00  0.00    +0.000 A 
ATOM     17  C   UNL     1      45.129   3.242   8.917  0.00  0.00    +0.000 A 
ATOM     18  C   UNL     1      45.662   2.584   7.802  0.00  0.00    +0.000 A 
ATOM     19  C   UNL     1      46.617   3.259   7.035  0.00  0.00    +0.000 A 
ATOM     23  C   UNL     1      47.007   4.532   7.421  0.00  0.00    +0.000 A 
ATOM     24  N   UNL     1      46.521   5.195   8.497  0.00  0.00    +0.000 NA
ATOM     25  C   UNL     1      45.581   4.528   9.198  0.00  0.00    +0.000 A 
ENDROOT
BRANCH  19  20
ATOM     20  C   UNL     1      47.248   2.658   5.839  0.00  0.00    +0.000 C 
ATOM     21  N   UNL     1      48.546   2.237   5.955  0.00  0.00    +0.000 N 
ATOM     22  O   UNL     1      46.630   2.522   4.790  0.00  0.00    +0.000 OA
ATOM     28  H   UNL     1      49.013   2.142   6.845  0.00  0.00    +0.000 HD
ATOM     29  H   UNL     1      48.942   1.757   5.159  0.00  0.00    +0.000 HD
ENDBRANCH  19  20
BRANCH  12  13
ATOM     13  C   UNL     1      43.055   3.916  11.923  0.00  0.00    +0.000 C 
ATOM     14  C   UNL     1      42.689   5.127  12.743  0.00  0.00    +0.000 C 
ATOM     15  C   UNL     1      43.468   4.021  13.371  0.00  0.00    +0.000 C 
ENDBRANCH  12  13
BRANCH  11  10
ATOM     10  C   UNL     1      45.049   6.319  10.894  0.00  0.00    +0.000 C 
BRANCH  10   8
ATOM      6  N   UNL     1      46.477   7.737  12.401  0.00  0.00    +0.000 N 
ATOM      7  C   UNL     1      45.699   8.889  11.935  0.00  0.00    +0.000 C 
ATOM      8  C   UNL     1      46.098   6.446  11.980  0.00  0.00    +0.000 C 
ATOM      9  O   UNL     1      46.608   5.403  12.398  0.00  0.00    +0.000 OA
BRANCH   6   5
ATOM      1  C   UNL     1      50.657   9.182  11.301  0.00  0.00    +0.000 C 
ATOM      2  N   UNL     1      49.892   8.857  12.508  0.00  0.00    +0.000 NA
ATOM      3  C   UNL     1      48.715   9.731  12.602  0.00  0.00    +0.000 C 
ATOM      4  C   UNL     1      47.832   9.357  13.796  0.00  0.00    +0.000 C 
ATOM      5  C   UNL     1      47.332   7.908  13.626  0.00  0.00    +0.000 C 
ATOM     26  C   UNL     1      48.621   7.062  13.669  0.00  0.00    +0.000 C 
ATOM     27  C   UNL     1      49.536   7.426  12.499  0.00  0.00    +0.000 C 
ENDBRANCH   6   5
ENDBRANCH  10   8
ENDBRANCH  11  10
TORSDOF 5
ENDMDL
MODEL 2
REMARK VINA RESULT:    -6.441      3.589      8.679
REMARK INTER + INTRA:          -8.379
REMARK INTER:                  -8.199
REMARK INTRA:                  -0.181
REMARK UNBOUND:                -0.056
REMARK  Name = 
REMARK  7 active torsions:
REMARK  status: ('A' for Active; 'I' for Inactive)
REMARK    1  A    between atoms: C_1  and  N_2
REMARK    2  A    between atoms: C_5  and  N_6
REMARK    3  A    between atoms: N_6  and  C_7
REMARK    4  A    between atoms: C_8  and  C_10
REMARK    5  A    between atoms: C_10  and  N_11
REMARK    6  A    between atoms: C_12  and  C_13
REMARK    7  A    between atoms: C_19  and  C_20
REMARK                            x       y       z     vdW  Elec       q    Type
REMARK                         _______ _______ _______ _____ _____    ______ ____
ROOT
ATOM     11  N   UNL     1      48.595   6.886  14.493  0.00  0.00    +0.000 N 
ATOM     12  C   UNL     1      49.089   8.169  14.655  0.00  0.00    +0.000 A 
ATOM     16  C   UNL     1      49.304   8.351  16.008  0.00  0.00    +0.000 A 
ATOM     17  C   UNL     1      48.948   7.169  16.691  0.00  0.00    +0.000 A 
ATOM     18  C   UNL     1      48.934   6.757  18.030  0.00  0.00    +0.000 A 
ATOM     19  C   UNL     1      48.494   5.460  18.313  0.00  0.00    +0.000 A 
ATOM     23  C   UNL     1      48.113   4.638  17.264  0.00  0.00    +0.000 A 
ATOM     24  N   UNL     1      48.122   4.998  15.959  0.00  0.00    +0.000 NA
ATOM     25  C   UNL     1      48.524   6.264  15.722  0.00  0.00    +0.000 A 
ENDROOT
BRANCH  19  20
ATOM     20  C   UNL     1      48.441   4.921  19.690  0.00  0.00    +0.000 C 
ATOM     21  N   UNL     1      48.531   3.562  19.839  0.00  0.00    +0.000 N 
ATOM     22  O   UNL     1      48.342   5.658  20.664  0.00  0.00    +0.000 OA
ATOM     28  H   UNL     1      48.818   2.947  19.091  0.00  0.00    +0.000 HD
ATOM     29  H   UNL     1      48.573   3.209  20.784  0.00  0.00    +0.000 HD
ENDBRANCH  19  20
BRANCH  12  13
ATOM     13  C   UNL     1      49.374   9.322  13.696  0.00  0.00    +0.000 C 
ATOM     14  C   UNL     1      49.313  10.760  14.144  0.00  0.00    +0.000 C 
ATOM     15  C   UNL     1      48.297  10.245  13.181  0.00  0.00    +0.000 C 
ENDBRANCH  12  13
BRANCH  11  10
ATOM     10  C   UNL     1      48.179   6.296  13.222  0.00  0.00    +0.000 C 
BRANCH  10   8
ATOM      6  N   UNL     1      45.908   5.287  12.841  0.00  0.00    +0.000 N 
ATOM      7  C   UNL     1      46.468   4.022  13.326  0.00  0.00    +0.000 C 
ATOM      8  C   UNL     1      46.708   6.446  12.886  0.00  0.00    +0.000 C 
ATOM      9  O   UNL     1      46.304   7.579  12.612  0.00  0.00    +0.000 OA
BRANCH   6   5
ATOM      1  C   UNL     1      44.234   2.530   9.621  0.00  0.00    +0.000 C 
ATOM      2  N   UNL     1      43.735   3.488  10.611  0.00  0.00    +0.000 NA
ATOM      3  C   UNL     1      44.108   3.048  11.962  0.00  0.00    +0.000 C 
ATOM      4  C   UNL     1      43.694   4.074  13.020  0.00  0.00    +0.000 C 
ATOM      5  C   UNL     1      44.412   5.410  12.744  0.00  0.00    +0.000 C 
ATOM     26  C   UNL     1      43.861   5.853  11.373  0.00  0.00    +0.000 C 
ATOM     27  C   UNL     1      44.240   4.837  10.295  0.00  0.00    +0.000 C 
ENDBRANCH   6   5
ENDBRANCH  10   8
ENDBRANCH  11  10
TORSDOF 5
ENDMDL
MODEL 3
REMARK VINA RESULT:    -6.247      3.645      6.131
REMARK INTER + INTRA:          -8.128
REMARK INTER:                  -8.419
REMARK INTRA:                   0.290
REMARK UNBOUND:                -0.056
REMARK  Name = 
REMARK  7 active torsions:
REMARK  status: ('A' for Active; 'I' for Inactive)
REMARK    1  A    between atoms: C_1  and  N_2
REMARK    2  A    between atoms: C_5  and  N_6
REMARK    3  A    between atoms: N_6  and  C_7
REMARK    4  A    between atoms: C_8  and  C_10
REMARK    5  A    between atoms: C_10  and  N_11
REMARK    6  A    between atoms: C_12  and  C_13
REMARK    7  A    between atoms: C_19  and  C_20
REMARK                            x       y       z     vdW  Elec       q    Type
REMARK                         _______ _______ _______ _____ _____    ______ ____
ROOT
ATOM     11  N   UNL     1      46.131   5.729  12.297  0.00  0.00    +0.000 N 
ATOM     12  C   UNL     1      45.196   4.883  11.724  0.00  0.00    +0.000 A 
ATOM     16  C   UNL     1      44.198   5.681  11.198  0.00  0.00    +0.000 A 
ATOM     17  C   UNL     1      44.519   7.034  11.440  0.00  0.00    +0.000 A 
ATOM     18  C   UNL     1      43.912   8.266  11.165  0.00  0.00    +0.000 A 
ATOM     19  C   UNL     1      44.567   9.429  11.583  0.00  0.00    +0.000 A 
ATOM     23  C   UNL     1      45.788   9.313  12.229  0.00  0.00    +0.000 A 
ATOM     24  N   UNL     1      46.409   8.141  12.503  0.00  0.00    +0.000 NA
ATOM     25  C   UNL     1      45.738   7.038  12.112  0.00  0.00    +0.000 A 
ENDROOT
BRANCH  19  20
ATOM     20  C   UNL     1      44.018  10.782  11.344  0.00  0.00    +0.000 C 
ATOM     21  N   UNL     1      42.987  11.194  12.145  0.00  0.00    +0.000 N 
ATOM     22  O   UNL     1      44.480  11.516  10.479  0.00  0.00    +0.000 OA
ATOM     28  H   UNL     1      42.722  10.709  12.989  0.00  0.00    +0.000 HD
ATOM     29  H   UNL     1      42.671  12.146  12.026  0.00  0.00    +0.000 HD
ENDBRANCH  19  20
BRANCH  12  13
ATOM     13  C   UNL     1      45.069   3.366  11.616  0.00  0.00    +0.000 C 
ATOM     14  C   UNL     1      44.261   2.714  10.523  0.00  0.00    +0.000 C 
ATOM     15  C   UNL     1      43.793   2.626  11.936  0.00  0.00    +0.000 C 
ENDBRANCH  12  13
BRANCH  11  10
ATOM     10  C   UNL     1      47.328   5.301  13.017  0.00  0.00    +0.000 C 
BRANCH  10   8
ATOM      6  N   UNL     1      47.889   5.382  15.466  0.00  0.00    +0.000 N 
ATOM      7  C   UNL     1      48.745   6.532  15.158  0.00  0.00    +0.000 C 
ATOM      8  C   UNL     1      47.097   4.830  14.440  0.00  0.00    +0.000 C 
ATOM      9  O   UNL     1      46.261   3.939  14.612  0.00  0.00    +0.000 OA
BRANCH   6   5
ATOM      1  C   UNL     1      50.806   2.437  17.361  0.00  0.00    +0.000 C 
ATOM      2  N   UNL     1      49.637   3.228  17.754  0.00  0.00    +0.000 NA
ATOM      3  C   UNL     1      49.914   4.658  17.563  0.00  0.00    +0.000 C 
ATOM      4  C   UNL     1      48.683   5.514  17.866  0.00  0.00    +0.000 C 
ATOM      5  C   UNL     1      47.541   5.123  16.907  0.00  0.00    +0.000 C 
ATOM     26  C   UNL     1      47.235   3.656  17.270  0.00  0.00    +0.000 C 
ATOM     27  C   UNL     1      48.455   2.774  16.998  0.00  0.00    +0.000 C 
ENDBRANCH   6   5
ENDBRANCH  10   8
ENDBRANCH  11  10
TORSDOF 5
ENDMDL
MODEL 4
REMARK VINA RESULT:    -6.004      3.963      5.987
REMARK INTER + INTRA:          -7.815
REMARK INTER:                  -7.309
REMARK INTRA:                  -0.506
REMARK UNBOUND:                -0.056
REMARK  Name = 
REMARK  7 active torsions:
REMARK  status: ('A' for Active; 'I' for Inactive)
REMARK    1  A    between atoms: C_1  and  N_2
REMARK    2  A    between atoms: C_5  and  N_6
REMARK    3  A    between atoms: N_6  and  C_7
REMARK    4  A    between atoms: C_8  and  C_10
REMARK    5  A    between atoms: C_10  and  N_11
REMARK    6  A    between atoms: C_12  and  C_13
REMARK    7  A    between atoms: C_19  and  C_20
REMARK                            x       y       z     vdW  Elec       q    Type
REMARK                         _______ _______ _______ _____ _____    ______ ____
ROOT
ATOM     11  N   UNL     1      48.022   5.986  14.356  0.00  0.00    +0.000 N 
ATOM     12  C   UNL     1      47.722   5.018  15.298  0.00  0.00    +0.000 A 
ATOM     16  C   UNL     1      46.654   4.292  14.805  0.00  0.00    +0.000 A 
ATOM     17  C   UNL     1      46.294   4.809  13.543  0.00  0.00    +0.000 A 
ATOM     18  C   UNL     1      45.315   4.509  12.587  0.00  0.00    +0.000 A 
ATOM     19  C   UNL     1      45.279   5.281  11.420  0.00  0.00    +0.000 A 
ATOM     23  C   UNL     1      46.219   6.286  11.254  0.00  0.00    +0.000 A 
ATOM     24  N   UNL     1      47.183   6.598  12.152  0.00  0.00    +0.000 NA
ATOM     25  C   UNL     1      47.173   5.854  13.277  0.00  0.00    +0.000 A 
ENDROOT
BRANCH  19  20
ATOM     20  C   UNL     1      44.290   5.050  10.344  0.00  0.00    +0.000 C 
ATOM     21  N   UNL     1      44.774   4.727   9.104  0.00  0.00    +0.000 N 
ATOM     22  O   UNL     1      43.086   5.123  10.554  0.00  0.00    +0.000 OA
ATOM     28  H   UNL     1      45.733   4.457   8.943  0.00  0.00    +0.000 HD
ATOM     29  H   UNL     1      44.092   4.495   8.396  0.00  0.00    +0.000 HD
ENDBRANCH  19  20
BRANCH  12  13
ATOM     13  C   UNL     1      48.285   4.670  16.674  0.00  0.00    +0.000 C 
ATOM     14  C   UNL     1      47.566   3.732  17.611  0.00  0.00    +0.000 C 
ATOM     15  C   UNL     1      47.680   5.178  17.960  0.00  0.00    +0.000 C 
ENDBRANCH  12  13
BRANCH  11  10
ATOM     10  C   UNL     1      49.054   7.011  14.498  0.00  0.00    +0.000 C 
BRANCH  10   8
ATOM      6  N   UNL     1      49.400   8.331  16.610  0.00  0.00    +0.000 N 
ATOM      7  C   UNL     1      50.585   7.502  16.848  0.00  0.00    +0.000 C 
ATOM      8  C   UNL     1      48.694   8.176  15.399  0.00  0.00    +0.000 C 
ATOM      9  O   UNL     1      47.756   8.895  15.046  0.00  0.00    +0.000 OA
BRANCH   6   5
ATOM      1  C   UNL     1      47.896   7.419  20.814  0.00  0.00    +0.000 C 
ATOM      2  N   UNL     1      48.295   8.585  20.023  0.00  0.00    +0.000 NA
ATOM      3  C   UNL     1      49.694   8.444  19.597  0.00  0.00    +0.000 C 
ATOM      4  C   UNL     1      50.122   9.593  18.681  0.00  0.00    +0.000 C 
ATOM      5  C   UNL     1      49.242   9.592  17.416  0.00  0.00    +0.000 C 
ATOM     26  C   UNL     1      47.822   9.875  17.948  0.00  0.00    +0.000 C 
ATOM     27  C   UNL     1      47.372   8.753  18.885  0.00  0.00    +0.000 C 
ENDBRANCH   6   5
ENDBRANCH  10   8
ENDBRANCH  11  10
TORSDOF 5
ENDMDL
MODEL 5
REMARK VINA RESULT:    -5.991      4.057      6.455
REMARK INTER + INTRA:          -7.798
REMARK INTER:                  -7.743
REMARK INTRA:                  -0.055
REMARK UNBOUND:                -0.056
REMARK  Name = 
REMARK  7 active torsions:
REMARK  status: ('A' for Active; 'I' for Inactive)
REMARK    1  A    between atoms: C_1  and  N_2
REMARK    2  A    between atoms: C_5  and  N_6
REMARK    3  A    between atoms: N_6  and  C_7
REMARK    4  A    between atoms: C_8  and  C_10
REMARK    5  A    between atoms: C_10  and  N_11
REMARK    6  A    between atoms: C_12  and  C_13
REMARK    7  A    between atoms: C_19  and  C_20
REMARK                            x       y       z     vdW  Elec       q    Type
REMARK                         _______ _______ _______ _____ _____    ______ ____
ROOT
ATOM     11  N   UNL     1      46.575   5.393  13.679  0.00  0.00    +0.000 N 
ATOM     12  C   UNL     1      45.802   5.326  12.532  0.00  0.00    +0.000 A 
ATOM     16  C   UNL     1      46.430   6.103  11.576  0.00  0.00    +0.000 A 
ATOM     17  C   UNL     1      47.606   6.650  12.132  0.00  0.00    +0.000 A 
ATOM     18  C   UNL     1      48.622   7.497  11.674  0.00  0.00    +0.000 A 
ATOM     19  C   UNL     1      49.656   7.821  12.559  0.00  0.00    +0.000 A 
ATOM     23  C   UNL     1      49.639   7.277  13.834  0.00  0.00    +0.000 A 
ATOM     24  N   UNL     1      48.680   6.448  14.308  0.00  0.00    +0.000 NA
ATOM     25  C   UNL     1      47.683   6.178  13.439  0.00  0.00    +0.000 A 
ENDROOT
BRANCH  19  20
ATOM     20  C   UNL     1      50.780   8.705  12.181  0.00  0.00    +0.000 C 
ATOM     21  N   UNL     1      52.013   8.126  12.030  0.00  0.00    +0.000 N 
ATOM     22  O   UNL     1      50.617   9.903  11.989  0.00  0.00    +0.000 OA
ATOM     28  H   UNL     1      52.145   7.127  11.976  0.00  0.00    +0.000 HD
ATOM     29  H   UNL     1      52.757   8.722  11.696  0.00  0.00    +0.000 HD
ENDBRANCH  19  20
BRANCH  12  13
ATOM     13  C   UNL     1      44.483   4.641  12.184  0.00  0.00    +0.000 C 
ATOM     14  C   UNL     1      43.502   5.255  11.218  0.00  0.00    +0.000 C 
ATOM     15  C   UNL     1      43.144   5.151  12.662  0.00  0.00    +0.000 C 
ENDBRANCH  12  13
BRANCH  11  10
ATOM     10  C   UNL     1      46.249   4.759  14.955  0.00  0.00    +0.000 C 
BRANCH  10   8
ATOM      6  N   UNL     1      47.766   3.990  16.806  0.00  0.00    +0.000 N 
ATOM      7  C   UNL     1      47.083   4.957  17.670  0.00  0.00    +0.000 C 
ATOM      8  C   UNL     1      47.294   3.801  15.491  0.00  0.00    +0.000 C 
ATOM      9  O   UNL     1      47.718   2.937  14.719  0.00  0.00    +0.000 OA
BRANCH   6   5
ATOM      1  C   UNL     1      51.112   5.868  19.265  0.00  0.00    +0.000 C 
ATOM      2  N   UNL     1      50.608   4.531  18.942  0.00  0.00    +0.000 NA
ATOM      3  C   UNL     1      49.220   4.396  19.403  0.00  0.00    +0.000 C 
ATOM      4  C   UNL     1      48.620   3.048  18.994  0.00  0.00    +0.000 C 
ATOM      5  C   UNL     1      48.619   2.936  17.457  0.00  0.00    +0.000 C 
ATOM     26  C   UNL     1      50.115   2.956  17.080  0.00  0.00    +0.000 C 
ATOM     27  C   UNL     1      50.750   4.284  17.495  0.00  0.00    +0.000 C 
ENDBRANCH   6   5
ENDBRANCH  10   8
ENDBRANCH  11  10
TORSDOF 5
ENDMDL
MODEL 6
REMARK VINA RESULT:    -5.978      4.224      6.313
REMARK INTER + INTRA:          -7.781
REMARK INTER:                  -8.068
REMARK INTRA:                   0.287
REMARK UNBOUND:                -0.056
REMARK  Name = 
REMARK  7 active torsions:
REMARK  status: ('A' for Active; 'I' for Inactive)
REMARK    1  A    between atoms: C_1  and  N_2
REMARK    2  A    between atoms: C_5  and  N_6
REMARK    3  A    between atoms: N_6  and  C_7
REMARK    4  A    between atoms: C_8  and  C_10
REMARK    5  A    between atoms: C_10  and  N_11
REMARK    6  A    between atoms: C_12  and  C_13
REMARK    7  A    between atoms: C_19  and  C_20
REMARK                            x       y       z     vdW  Elec       q    Type
REMARK                         _______ _______ _______ _____ _____    ______ ____
ROOT
ATOM     11  N   UNL     1      47.502   4.682  14.575  0.00  0.00    +0.000 N 
ATOM     12  C   UNL     1      47.891   6.010  14.548  0.00  0.00    +0.000 A 
ATOM     16  C   UNL     1      47.244   6.600  13.479  0.00  0.00    +0.000 A 
ATOM     17  C   UNL     1      46.439   5.632  12.841  0.00  0.00    +0.000 A 
ATOM     18  C   UNL     1      45.583   5.621  11.733  0.00  0.00    +0.000 A 
ATOM     19  C   UNL     1      44.945   4.420  11.407  0.00  0.00    +0.000 A 
ATOM     23  C   UNL     1      45.170   3.307  12.201  0.00  0.00    +0.000 A 
ATOM     24  N   UNL     1      45.982   3.281  13.284  0.00  0.00    +0.000 NA
ATOM     25  C   UNL     1      46.604   4.447  13.554  0.00  0.00    +0.000 A 
ENDROOT
BRANCH  19  20
ATOM     20  C   UNL     1      44.019   4.297  10.259  0.00  0.00    +0.000 C 
ATOM     21  N   UNL     1      44.229   3.260   9.389  0.00  0.00    +0.000 N 
ATOM     22  O   UNL     1      43.087   5.076  10.102  0.00  0.00    +0.000 OA
ATOM     28  H   UNL     1      44.847   2.489   9.595  0.00  0.00    +0.000 HD
ATOM     29  H   UNL     1      43.547   3.137   8.655  0.00  0.00    +0.000 HD
ENDBRANCH  19  20
BRANCH  12  13
ATOM     13  C   UNL     1      48.851   6.848  15.390  0.00  0.00    +0.000 C 
ATOM     14  C   UNL     1      49.067   8.316  15.121  0.00  0.00    +0.000 C 
ATOM     15  C   UNL     1      50.175   7.350  14.867  0.00  0.00    +0.000 C 
ENDBRANCH  12  13
BRANCH  11  10
ATOM     10  C   UNL     1      47.992   3.677  15.515  0.00  0.00    +0.000 C 
BRANCH  10   8
ATOM      6  N   UNL     1      48.598   4.086  17.921  0.00  0.00    +0.000 N 
ATOM      7  C   UNL     1      49.974   4.299  17.463  0.00  0.00    +0.000 C 
ATOM      8  C   UNL     1      47.586   3.885  16.961  0.00  0.00    +0.000 C 
ATOM      9  O   UNL     1      46.383   3.809  17.226  0.00  0.00    +0.000 OA
BRANCH   6   5
ATOM      1  C   UNL     1      50.080   8.316  18.743  0.00  0.00    +0.000 C 
ATOM      2  N   UNL     1      49.330   7.264  19.434  0.00  0.00    +0.000 NA
ATOM      3  C   UNL     1      48.107   6.949  18.684  0.00  0.00    +0.000 C 
ATOM      4  C   UNL     1      47.345   5.783  19.318  0.00  0.00    +0.000 C 
ATOM      5  C   UNL     1      48.238   4.526  19.313  0.00  0.00    +0.000 C 
ATOM     26  C   UNL     1      49.422   4.907  20.225  0.00  0.00    +0.000 C 
ATOM     27  C   UNL     1      50.195   6.085  19.629  0.00  0.00    +0.000 C 
ENDBRANCH   6   5
ENDBRANCH  10   8
ENDBRANCH  11  10
TORSDOF 5
ENDMDL
MODEL 7
REMARK VINA RESULT:    -5.934      3.913      6.682
REMARK INTER + INTRA:          -7.724
REMARK INTER:                  -7.576
REMARK INTRA:                  -0.148
REMARK UNBOUND:                -0.056
REMARK  Name = 
REMARK  7 active torsions:
REMARK  status: ('A' for Active; 'I' for Inactive)
REMARK    1  A    between atoms: C_1  and  N_2
REMARK    2  A    between atoms: C_5  and  N_6
REMARK    3  A    between atoms: N_6  and  C_7
REMARK    4  A    between atoms: C_8  and  C_10
REMARK    5  A    between atoms: C_10  and  N_11
REMARK    6  A    between atoms: C_12  and  C_13
REMARK    7  A    between atoms: C_19  and  C_20
REMARK                            x       y       z     vdW  Elec       q    Type
REMARK                         _______ _______ _______ _____ _____    ______ ____
ROOT
ATOM     11  N   UNL     1      48.343   7.217  13.564  0.00  0.00    +0.000 N 
ATOM     12  C   UNL     1      47.975   8.290  12.769  0.00  0.00    +0.000 A 
ATOM     16  C   UNL     1      46.893   7.880  12.013  0.00  0.00    +0.000 A 
ATOM     17  C   UNL     1      46.582   6.545  12.345  0.00  0.00    +0.000 A 
ATOM     18  C   UNL     1      45.628   5.610  11.924  0.00  0.00    +0.000 A 
ATOM     19  C   UNL     1      45.646   4.342  12.514  0.00  0.00    +0.000 A 
ATOM     23  C   UNL     1      46.585   4.075  13.498  0.00  0.00    +0.000 A 
ATOM     24  N   UNL     1      47.515   4.956  13.937  0.00  0.00    +0.000 NA
ATOM     25  C   UNL     1      47.490   6.159  13.327  0.00  0.00    +0.000 A 
ENDROOT
BRANCH  19  20
ATOM     20  C   UNL     1      44.684   3.279  12.147  0.00  0.00    +0.000 C 
ATOM     21  N   UNL     1      44.840   2.684  10.924  0.00  0.00    +0.000 N 
ATOM     22  O   UNL     1      43.795   2.928  12.913  0.00  0.00    +0.000 OA
ATOM     28  H   UNL     1      45.670   2.797  10.361  0.00  0.00    +0.000 HD
ATOM     29  H   UNL     1      44.229   1.908  10.714  0.00  0.00    +0.000 HD
ENDBRANCH  19  20
BRANCH  12  13
ATOM     13  C   UNL     1      48.527   9.700  12.574  0.00  0.00    +0.000 C 
ATOM     14  C   UNL     1      48.303  10.469  11.297  0.00  0.00    +0.000 C 
ATOM     15  C   UNL     1      49.678  10.008  11.647  0.00  0.00    +0.000 C 
ENDBRANCH  12  13
BRANCH  11  10
ATOM     10  C   UNL     1      49.479   7.197  14.481  0.00  0.00    +0.000 C 
BRANCH  10   8
ATOM      6  N   UNL     1      49.972   7.277  16.946  0.00  0.00    +0.000 N 
ATOM      7  C   UNL     1      51.128   6.419  16.669  0.00  0.00    +0.000 C 
ATOM      8  C   UNL     1      49.210   7.761  15.863  0.00  0.00    +0.000 C 
ATOM      9  O   UNL     1      48.291   8.577  15.971  0.00  0.00    +0.000 OA
BRANCH   6   5
ATOM      1  C   UNL     1      48.723   4.382  20.236  0.00  0.00    +0.000 C 
ATOM      2  N   UNL     1      49.103   5.790  20.102  0.00  0.00    +0.000 NA
ATOM      3  C   UNL     1      50.466   5.890  19.564  0.00  0.00    +0.000 C 
ATOM      4  C   UNL     1      50.866   7.347  19.312  0.00  0.00    +0.000 C 
ATOM      5  C   UNL     1      49.904   7.968  18.280  0.00  0.00    +0.000 C 
ATOM     26  C   UNL     1      48.532   7.938  18.983  0.00  0.00    +0.000 C 
ATOM     27  C   UNL     1      48.112   6.495  19.268  0.00  0.00    +0.000 C 
ENDBRANCH   6   5
ENDBRANCH  10   8
ENDBRANCH  11  10
TORSDOF 5
ENDMDL
MODEL 8
REMARK VINA RESULT:    -5.782      3.626      5.950
REMARK INTER + INTRA:          -7.528
REMARK INTER:                  -7.611
REMARK INTRA:                   0.083
REMARK UNBOUND:                -0.056
REMARK  Name = 
REMARK  7 active torsions:
REMARK  status: ('A' for Active; 'I' for Inactive)
REMARK    1  A    between atoms: C_1  and  N_2
REMARK    2  A    between atoms: C_5  and  N_6
REMARK    3  A    between atoms: N_6  and  C_7
REMARK    4  A    between atoms: C_8  and  C_10
REMARK    5  A    between atoms: C_10  and  N_11
REMARK    6  A    between atoms: C_12  and  C_13
REMARK    7  A    between atoms: C_19  and  C_20
REMARK                            x       y       z     vdW  Elec       q    Type
REMARK                         _______ _______ _______ _____ _____    ______ ____
ROOT
ATOM     11  N   UNL     1      47.568   7.147  13.315  0.00  0.00    +0.000 N 
ATOM     12  C   UNL     1      47.061   8.327  12.798  0.00  0.00    +0.000 A 
ATOM     16  C   UNL     1      45.876   8.013  12.161  0.00  0.00    +0.000 A 
ATOM     17  C   UNL     1      45.640   6.628  12.290  0.00  0.00    +0.000 A 
ATOM     18  C   UNL     1      44.642   5.743  11.862  0.00  0.00    +0.000 A 
ATOM     19  C   UNL     1      44.772   4.393  12.202  0.00  0.00    +0.000 A 
ATOM     23  C   UNL     1      45.864   3.995  12.958  0.00  0.00    +0.000 A 
ATOM     24  N   UNL     1      46.842   4.822  13.397  0.00  0.00    +0.000 NA
ATOM     25  C   UNL     1      46.702   6.113  13.028  0.00  0.00    +0.000 A 
ENDROOT
BRANCH  19  20
ATOM     20  C   UNL     1      43.777   3.372  11.805  0.00  0.00    +0.000 C 
ATOM     21  N   UNL     1      43.734   2.216  12.537  0.00  0.00    +0.000 N 
ATOM     22  O   UNL     1      43.005   3.559  10.873  0.00  0.00    +0.000 OA
ATOM     28  H   UNL     1      44.202   2.112  13.425  0.00  0.00    +0.000 HD
ATOM     29  H   UNL     1      43.001   1.560  12.309  0.00  0.00    +0.000 HD
ENDBRANCH  19  20
BRANCH  12  13
ATOM     13  C   UNL     1      47.556   9.771  12.777  0.00  0.00    +0.000 C 
ATOM     14  C   UNL     1      47.178  10.723  11.670  0.00  0.00    +0.000 C 
ATOM     15  C   UNL     1      48.593  10.268  11.799  0.00  0.00    +0.000 C 
ENDBRANCH  12  13
BRANCH  11  10
ATOM     10  C   UNL     1      48.840   7.012  14.021  0.00  0.00    +0.000 C 
BRANCH  10   8
ATOM      6  N   UNL     1      48.812   7.673  16.447  0.00  0.00    +0.000 N 
ATOM      7  C   UNL     1      48.775   9.067  15.992  0.00  0.00    +0.000 C 
ATOM      8  C   UNL     1      48.733   6.643  15.488  0.00  0.00    +0.000 C 
ATOM      9  O   UNL     1      48.641   5.444  15.764  0.00  0.00    +0.000 OA
BRANCH   6   5
ATOM      1  C   UNL     1      52.440   8.301  19.132  0.00  0.00    +0.000 C 
ATOM      2  N   UNL     1      51.031   7.924  19.265  0.00  0.00    +0.000 NA
ATOM      3  C   UNL     1      50.175   9.009  18.766  0.00  0.00    +0.000 C 
ATOM      4  C   UNL     1      48.696   8.615  18.793  0.00  0.00    +0.000 C 
ATOM      5  C   UNL     1      48.479   7.388  17.886  0.00  0.00    +0.000 C 
ATOM     26  C   UNL     1      49.307   6.275  18.559  0.00  0.00    +0.000 C 
ATOM     27  C   UNL     1      50.791   6.647  18.567  0.00  0.00    +0.000 C 
ENDBRANCH   6   5
ENDBRANCH  10   8
ENDBRANCH  11  10
TORSDOF 5
ENDMDL
MODEL 9
REMARK VINA RESULT:    -5.772      4.080      6.674
REMARK INTER + INTRA:          -7.515
REMARK INTER:                  -7.736
REMARK INTRA:                   0.221
REMARK UNBOUND:                -0.056
REMARK  Name = 
REMARK  7 active torsions:
REMARK  status: ('A' for Active; 'I' for Inactive)
REMARK    1  A    between atoms: C_1  and  N_2
REMARK    2  A    between atoms: C_5  and  N_6
REMARK    3  A    between atoms: N_6  and  C_7
REMARK    4  A    between atoms: C_8  and  C_10
REMARK    5  A    between atoms: C_10  and  N_11
REMARK    6  A    between atoms: C_12  and  C_13
REMARK    7  A    between atoms: C_19  and  C_20
REMARK                            x       y       z     vdW  Elec       q    Type
REMARK                         _______ _______ _______ _____ _____    ______ ____
ROOT
ATOM     11  N   UNL     1      48.357   7.058  13.818  0.00  0.00    +0.000 N 
ATOM     12  C   UNL     1      48.174   8.099  12.924  0.00  0.00    +0.000 A 
ATOM     16  C   UNL     1      47.193   7.702  12.035  0.00  0.00    +0.000 A 
ATOM     17  C   UNL     1      46.757   6.406  12.385  0.00  0.00    +0.000 A 
ATOM     18  C   UNL     1      45.821   5.499  11.873  0.00  0.00    +0.000 A 
ATOM     19  C   UNL     1      45.676   4.269  12.523  0.00  0.00    +0.000 A 
ATOM     23  C   UNL     1      46.443   4.013  13.649  0.00  0.00    +0.000 A 
ATOM     24  N   UNL     1      47.349   4.868  14.177  0.00  0.00    +0.000 NA
ATOM     25  C   UNL     1      47.486   6.033  13.510  0.00  0.00    +0.000 A 
ENDROOT
BRANCH  19  20
ATOM     20  C   UNL     1      44.716   3.237  12.071  0.00  0.00    +0.000 C 
ATOM     21  N   UNL     1      44.906   2.705  10.823  0.00  0.00    +0.000 N 
ATOM     22  O   UNL     1      43.799   2.857  12.788  0.00  0.00    +0.000 OA
ATOM     28  H   UNL     1      45.756   2.838  10.294  0.00  0.00    +0.000 HD
ATOM     29  H   UNL     1      44.295   1.947  10.554  0.00  0.00    +0.000 HD
ENDBRANCH  19  20
BRANCH  12  13
ATOM     13  C   UNL     1      48.833   9.465  12.742  0.00  0.00    +0.000 C 
ATOM     14  C   UNL     1      48.955  10.111  11.386  0.00  0.00    +0.000 C 
ATOM     15  C   UNL     1      50.183   9.643  12.092  0.00  0.00    +0.000 C 
ENDBRANCH  12  13
BRANCH  11  10
ATOM     10  C   UNL     1      49.343   7.033  14.896  0.00  0.00    +0.000 C 
BRANCH  10   8
ATOM      6  N   UNL     1      48.627   6.555  17.258  0.00  0.00    +0.000 N 
ATOM      7  C   UNL     1      49.091   5.181  17.044  0.00  0.00    +0.000 C 
ATOM      8  C   UNL     1      48.844   7.511  16.245  0.00  0.00    +0.000 C 
ATOM      9  O   UNL     1      48.598   8.714  16.363  0.00  0.00    +0.000 OA
BRANCH   6   5
ATOM      1  C   UNL     1      51.754   4.897  20.127  0.00  0.00    +0.000 C 
ATOM      2  N   UNL     1      50.574   5.762  20.175  0.00  0.00    +0.000 NA
ATOM      3  C   UNL     1      50.780   6.936  19.317  0.00  0.00    +0.000 C 
ATOM      4  C   UNL     1      49.530   7.816  19.258  0.00  0.00    +0.000 C 
ATOM      5  C   UNL     1      48.360   7.002  18.669  0.00  0.00    +0.000 C 
ATOM     26  C   UNL     1      48.134   5.876  19.699  0.00  0.00    +0.000 C 
ATOM     27  C   UNL     1      49.376   4.988  19.797  0.00  0.00    +0.000 C 
ENDBRANCH   6   5
ENDBRANCH  10   8
ENDBRANCH  11  10
TORSDOF 5
ENDMDL
