MODEL 1
REMARK VINA RESULT:    -6.375      0.000      0.000
REMARK INTER + INTRA:          -6.786
REMARK INTER:                  -6.748
REMARK INTRA:                  -0.038
REMARK UNBOUND:                -0.038
REMARK  Name = 
REMARK  1 active torsions:
REMARK  status: ('A' for Active; 'I' for Inactive)
REMARK    1  A    between atoms: C_2  and  C_4
REMARK                            x       y       z     vdW  Elec       q    Type
REMARK                         _______ _______ _______ _____ _____    ______ ____
ROOT
ATOM      4  C   UNL     1      46.462   2.488   7.691  0.00  0.00    +0.000 A 
ATOM      5  C   UNL     1      45.621   1.887   8.625  0.00  0.00    +0.000 A 
ATOM      6  C   UNL     1      44.735   2.686   9.348  0.00  0.00    +0.000 A 
ATOM      7  C   UNL     1      44.724   4.057   9.124  0.00  0.00    +0.000 A 
ATOM      8  N   UNL     1      43.811   4.871   9.789  0.00  0.00    +0.000 N 
ATOM      9  N   UNL     1      45.534   4.657   8.238  0.00  0.00    +0.000 NA
ATOM     10  C   UNL     1      46.396   3.866   7.548  0.00  0.00    +0.000 A 
ATOM     13  H   UNL     1      43.845   4.744  10.792  0.00  0.00    +0.000 HD
ATOM     14  H   UNL     1      44.017   5.830   9.518  0.00  0.00    +0.000 HD
ENDROOT
BRANCH   4   2
ATOM      1  N   UNL     1      48.525   2.396   6.417  0.00  0.00    +0.000 N 
ATOM      2  C   UNL     1      47.418   1.726   6.864  0.00  0.00    +0.000 C 
ATOM      3  O   UNL     1      47.252   0.540   6.623  0.00  0.00    +0.000 OA
ATOM     11  H   UNL     1      49.228   1.834   5.953  0.00  0.00    +0.000 HD
ATOM     12  H   UNL     1      48.820   3.275   6.815  0.00  0.00    +0.000 HD
ENDBRANCH   4   2
TORSDOF 1
ENDMDL
MODEL 2
REMARK VINA RESULT:    -5.987      0.909      1.535
REMARK INTER + INTRA:          -6.375
REMARK INTER:                  -6.336
REMARK INTRA:                  -0.038
REMARK UNBOUND:                -0.038
REMARK  Name = 
REMARK  1 active torsions:
REMARK  status: ('A' for Active; 'I' for Inactive)
REMARK    1  A    between atoms: C_2  and  C_4
REMARK                            x       y       z     vdW  Elec       q    Type
REMARK                         _______ _______ _______ _____ _____    ______ ____
ROOT
ATOM      4  C   UNL     1      46.436   2.377   7.792  0.00  0.00    +0.000 A 
ATOM      5  C   UNL     1      46.452   3.754   7.578  0.00  0.00    +0.000 A 
ATOM      6  C   UNL     1      45.564   4.558   8.291  0.00  0.00    +0.000 A 
ATOM      7  C   UNL     1      44.683   3.965   9.186  0.00  0.00    +0.000 A 
ATOM      8  N   UNL     1      43.826   4.747   9.953  0.00  0.00    +0.000 N 
ATOM      9  N   UNL     1      44.642   2.639   9.398  0.00  0.00    +0.000 NA
ATOM     10  C   UNL     1      45.509   1.869   8.690  0.00  0.00    +0.000 A 
ATOM     13  H   UNL     1      43.276   5.381   9.387  0.00  0.00    +0.000 HD
ATOM     14  H   UNL     1      43.241   4.109  10.489  0.00  0.00    +0.000 HD
ENDROOT
BRANCH   4   2
ATOM      1  N   UNL     1      48.488   1.979   6.561  0.00  0.00    +0.000 N 
ATOM      2  C   UNL     1      47.349   1.446   7.100  0.00  0.00    +0.000 C 
ATOM      3  O   UNL     1      47.119   0.247   7.046  0.00  0.00    +0.000 OA
ATOM     11  H   UNL     1      49.160   1.315   6.195  0.00  0.00    +0.000 HD
ATOM     12  H   UNL     1      48.830   2.893   6.818  0.00  0.00    +0.000 HD
ENDBRANCH   4   2
TORSDOF 1
ENDMDL
MODEL 3
REMARK VINA RESULT:    -5.970      1.988      4.010
REMARK INTER + INTRA:          -6.358
REMARK INTER:                  -6.317
REMARK INTRA:                  -0.040
REMARK UNBOUND:                -0.038
REMARK  Name = 
REMARK  1 active torsions:
REMARK  status: ('A' for Active; 'I' for Inactive)
REMARK    1  A    between atoms: C_2  and  C_4
REMARK                            x       y       z     vdW  Elec       q    Type
REMARK                         _______ _______ _______ _____ _____    ______ ____
ROOT
ATOM      4  C   UNL     1      45.274   3.093   8.786  0.00  0.00    +0.000 A 
ATOM      5  C   UNL     1      45.740   1.793   8.602  0.00  0.00    +0.000 A 
ATOM      6  C   UNL     1      46.759   1.566   7.677  0.00  0.00    +0.000 A 
ATOM      7  C   UNL     1      47.273   2.638   6.960  0.00  0.00    +0.000 A 
ATOM      8  N   UNL     1      48.329   2.451   6.074  0.00  0.00    +0.000 N 
ATOM      9  N   UNL     1      46.831   3.897   7.114  0.00  0.00    +0.000 NA
ATOM     10  C   UNL     1      45.833   4.100   8.013  0.00  0.00    +0.000 A 
ATOM     13  H   UNL     1      48.138   1.721   5.399  0.00  0.00    +0.000 HD
ATOM     14  H   UNL     1      48.503   3.348   5.626  0.00  0.00    +0.000 HD
ENDROOT
BRANCH   4   2
ATOM      1  N   UNL     1      43.791   4.738   9.776  0.00  0.00    +0.000 N 
ATOM      2  C   UNL     1      44.214   3.437   9.754  0.00  0.00    +0.000 C 
ATOM      3  O   UNL     1      43.708   2.591  10.475  0.00  0.00    +0.000 OA
ATOM     11  H   UNL     1      42.986   4.934  10.357  0.00  0.00    +0.000 HD
ATOM     12  H   UNL     1      43.991   5.383   9.025  0.00  0.00    +0.000 HD
ENDBRANCH   4   2
TORSDOF 1
ENDMDL
MODEL 4
REMARK VINA RESULT:    -5.808      2.017      4.291
REMARK INTER + INTRA:          -6.186
REMARK INTER:                  -6.146
REMARK INTRA:                  -0.040
REMARK UNBOUND:                -0.038
REMARK  Name = 
REMARK  1 active torsions:
REMARK  status: ('A' for Active; 'I' for Inactive)
REMARK    1  A    between atoms: C_2  and  C_4
REMARK                            x       y       z     vdW  Elec       q    Type
REMARK                         _______ _______ _______ _____ _____    ______ ____
ROOT
ATOM      4  C   UNL     1      45.320   3.155   8.756  0.00  0.00    +0.000 A 
ATOM      5  C   UNL     1      45.949   4.123   7.977  0.00  0.00    +0.000 A 
ATOM      6  C   UNL     1      46.955   3.730   7.094  0.00  0.00    +0.000 A 
ATOM      7  C   UNL     1      47.308   2.388   7.025  0.00  0.00    +0.000 A 
ATOM      8  N   UNL     1      48.266   1.959   6.113  0.00  0.00    +0.000 N 
ATOM      9  N   UNL     1      46.722   1.441   7.776  0.00  0.00    +0.000 NA
ATOM     10  C   UNL     1      45.750   1.842   8.635  0.00  0.00    +0.000 A 
ATOM     13  H   UNL     1      49.131   2.478   6.193  0.00  0.00    +0.000 HD
ATOM     14  H   UNL     1      48.403   0.963   6.273  0.00  0.00    +0.000 HD
ENDROOT
BRANCH   4   2
ATOM      1  N   UNL     1      43.793   4.765   9.737  0.00  0.00    +0.000 N 
ATOM      2  C   UNL     1      44.233   3.469   9.704  0.00  0.00    +0.000 C 
ATOM      3  O   UNL     1      43.720   2.605  10.398  0.00  0.00    +0.000 OA
ATOM     11  H   UNL     1      42.971   4.941  10.302  0.00  0.00    +0.000 HD
ATOM     12  H   UNL     1      44.002   5.425   9.002  0.00  0.00    +0.000 HD
ENDBRANCH   4   2
TORSDOF 1
ENDMDL
MODEL 5
REMARK VINA RESULT:    -5.778      2.609      4.115
REMARK INTER + INTRA:          -6.154
REMARK INTER:                  -6.125
REMARK INTRA:                  -0.029
REMARK UNBOUND:                -0.038
REMARK  Name = 
REMARK  1 active torsions:
REMARK  status: ('A' for Active; 'I' for Inactive)
REMARK    1  A    between atoms: C_2  and  C_4
REMARK                            x       y       z     vdW  Elec       q    Type
REMARK                         _______ _______ _______ _____ _____    ______ ____
ROOT
ATOM      4  C   UNL     1      44.885   3.159   9.823  0.00  0.00    +0.000 A 
ATOM      5  C   UNL     1      45.341   2.051   9.111  0.00  0.00    +0.000 A 
ATOM      6  C   UNL     1      46.035   2.255   7.919  0.00  0.00    +0.000 A 
ATOM      7  C   UNL     1      46.243   3.552   7.470  0.00  0.00    +0.000 A 
ATOM      8  N   UNL     1      46.982   3.788   6.315  0.00  0.00    +0.000 N 
ATOM      9  N   UNL     1      45.802   4.633   8.134  0.00  0.00    +0.000 NA
ATOM     10  C   UNL     1      45.121   4.417   9.290  0.00  0.00    +0.000 A 
ATOM     13  H   UNL     1      46.632   3.263   5.523  0.00  0.00    +0.000 HD
ATOM     14  H   UNL     1      46.960   4.791   6.148  0.00  0.00    +0.000 HD
ENDROOT
BRANCH   4   2
ATOM      1  N   UNL     1      44.890   2.689  12.204  0.00  0.00    +0.000 N 
ATOM      2  C   UNL     1      44.158   3.047  11.103  0.00  0.00    +0.000 C 
ATOM      3  O   UNL     1      42.967   3.302  11.187  0.00  0.00    +0.000 OA
ATOM     11  H   UNL     1      44.406   2.732  13.092  0.00  0.00    +0.000 HD
ATOM     12  H   UNL     1      45.898   2.738  12.220  0.00  0.00    +0.000 HD
ENDBRANCH   4   2
TORSDOF 1
ENDMDL
MODEL 6
REMARK VINA RESULT:    -5.749      1.316      1.765
REMARK INTER + INTRA:          -6.124
REMARK INTER:                  -6.088
REMARK INTRA:                  -0.035
REMARK UNBOUND:                -0.038
REMARK  Name = 
REMARK  1 active torsions:
REMARK  status: ('A' for Active; 'I' for Inactive)
REMARK    1  A    between atoms: C_2  and  C_4
REMARK                            x       y       z     vdW  Elec       q    Type
REMARK                         _______ _______ _______ _____ _____    ______ ____
ROOT
ATOM      4  C   UNL     1      46.508   2.694   7.501  0.00  0.00    +0.000 A 
ATOM      5  C   UNL     1      46.099   4.012   7.695  0.00  0.00    +0.000 A 
ATOM      6  C   UNL     1      45.173   4.290   8.700  0.00  0.00    +0.000 A 
ATOM      7  C   UNL     1      44.678   3.246   9.471  0.00  0.00    +0.000 A 
ATOM      8  N   UNL     1      43.798   3.501  10.518  0.00  0.00    +0.000 N 
ATOM      9  N   UNL     1      45.050   1.968   9.294  0.00  0.00    +0.000 NA
ATOM     10  C   UNL     1      45.947   1.714   8.306  0.00  0.00    +0.000 A 
ATOM     13  H   UNL     1      42.996   4.043  10.221  0.00  0.00    +0.000 HD
ATOM     14  H   UNL     1      43.527   2.599  10.905  0.00  0.00    +0.000 HD
ENDROOT
BRANCH   4   2
ATOM      1  N   UNL     1      47.480   2.997   5.299  0.00  0.00    +0.000 N 
ATOM      2  C   UNL     1      47.498   2.303   6.478  0.00  0.00    +0.000 C 
ATOM      3  O   UNL     1      48.322   1.426   6.688  0.00  0.00    +0.000 OA
ATOM     11  H   UNL     1      48.236   2.800   4.655  0.00  0.00    +0.000 HD
ATOM     12  H   UNL     1      47.006   3.883   5.202  0.00  0.00    +0.000 HD
ENDBRANCH   4   2
TORSDOF 1
ENDMDL
MODEL 7
REMARK VINA RESULT:    -5.009      4.232      5.554
REMARK INTER + INTRA:          -5.340
REMARK INTER:                  -5.305
REMARK INTRA:                  -0.036
REMARK UNBOUND:                -0.038
REMARK  Name = 
REMARK  1 active torsions:
REMARK  status: ('A' for Active; 'I' for Inactive)
REMARK    1  A    between atoms: C_2  and  C_4
REMARK                            x       y       z     vdW  Elec       q    Type
REMARK                         _______ _______ _______ _____ _____    ______ ____
ROOT
ATOM      4  C   UNL     1      46.078   4.364  12.753  0.00  0.00    +0.000 A 
ATOM      5  C   UNL     1      46.053   5.560  12.039  0.00  0.00    +0.000 A 
ATOM      6  C   UNL     1      45.312   5.627  10.860  0.00  0.00    +0.000 A 
ATOM      7  C   UNL     1      44.629   4.498  10.425  0.00  0.00    +0.000 A 
ATOM      8  N   UNL     1      43.836   4.551   9.283  0.00  0.00    +0.000 N 
ATOM      9  N   UNL     1      44.650   3.332  11.092  0.00  0.00    +0.000 NA
ATOM     10  C   UNL     1      45.382   3.282  12.234  0.00  0.00    +0.000 A 
ATOM     13  H   UNL     1      44.341   4.907   8.482  0.00  0.00    +0.000 HD
ATOM     14  H   UNL     1      43.481   3.611   9.125  0.00  0.00    +0.000 HD
ENDROOT
BRANCH   4   2
ATOM      1  N   UNL     1      46.840   5.275  14.869  0.00  0.00    +0.000 N 
ATOM      2  C   UNL     1      46.816   4.201  14.021  0.00  0.00    +0.000 C 
ATOM      3  O   UNL     1      47.348   3.143  14.319  0.00  0.00    +0.000 OA
ATOM     11  H   UNL     1      47.246   5.112  15.782  0.00  0.00    +0.000 HD
ATOM     12  H   UNL     1      46.199   6.049  14.777  0.00  0.00    +0.000 HD
ENDBRANCH   4   2
TORSDOF 1
ENDMDL
MODEL 8
REMARK VINA RESULT:    -4.998      3.662      4.885
REMARK INTER + INTRA:          -5.329
REMARK INTER:                  -5.289
REMARK INTRA:                  -0.040
REMARK UNBOUND:                -0.038
REMARK  Name = 
REMARK  1 active torsions:
REMARK  status: ('A' for Active; 'I' for Inactive)
REMARK    1  A    between atoms: C_2  and  C_4
REMARK                            x       y       z     vdW  Elec       q    Type
REMARK                         _______ _______ _______ _____ _____    ______ ____
ROOT
ATOM      4  C   UNL     1      44.971   4.134  11.113  0.00  0.00    +0.000 A 
ATOM      5  C   UNL     1      45.415   5.452  11.174  0.00  0.00    +0.000 A 
ATOM      6  C   UNL     1      46.070   5.891  12.325  0.00  0.00    +0.000 A 
ATOM      7  C   UNL     1      46.250   5.006  13.380  0.00  0.00    +0.000 A 
ATOM      8  N   UNL     1      46.950   5.399  14.516  0.00  0.00    +0.000 N 
ATOM      9  N   UNL     1      45.819   3.735  13.346  0.00  0.00    +0.000 NA
ATOM     10  C   UNL     1      45.177   3.325  12.221  0.00  0.00    +0.000 A 
ATOM     13  H   UNL     1      46.581   6.251  14.918  0.00  0.00    +0.000 HD
ATOM     14  H   UNL     1      46.913   4.621  15.172  0.00  0.00    +0.000 HD
ENDROOT
BRANCH   4   2
ATOM      1  N   UNL     1      44.100   4.407   8.865  0.00  0.00    +0.000 N 
ATOM      2  C   UNL     1      44.286   3.571   9.933  0.00  0.00    +0.000 C 
ATOM      3  O   UNL     1      43.937   2.401   9.893  0.00  0.00    +0.000 OA
ATOM     11  H   UNL     1      43.739   3.978   8.022  0.00  0.00    +0.000 HD
ATOM     12  H   UNL     1      44.607   5.274   8.765  0.00  0.00    +0.000 HD
ENDBRANCH   4   2
TORSDOF 1
ENDMDL
MODEL 9
REMARK VINA RESULT:    -4.778      5.842      6.246
REMARK INTER + INTRA:          -5.096
REMARK INTER:                  -5.067
REMARK INTRA:                  -0.029
REMARK UNBOUND:                -0.038
REMARK  Name = 
REMARK  1 active torsions:
REMARK  status: ('A' for Active; 'I' for Inactive)
REMARK    1  A    between atoms: C_2  and  C_4
REMARK                            x       y       z     vdW  Elec       q    Type
REMARK                         _______ _______ _______ _____ _____    ______ ____
ROOT
ATOM      4  C   UNL     1      45.964   5.147  13.354  0.00  0.00    +0.000 A 
ATOM      5  C   UNL     1      46.381   6.254  12.619  0.00  0.00    +0.000 A 
ATOM      6  C   UNL     1      45.451   6.930  11.829  0.00  0.00    +0.000 A 
ATOM      7  C   UNL     1      44.140   6.475  11.790  0.00  0.00    +0.000 A 
ATOM      8  N   UNL     1      43.178   7.163  11.057  0.00  0.00    +0.000 N 
ATOM      9  N   UNL     1      43.719   5.403  12.481  0.00  0.00    +0.000 NA
ATOM     10  C   UNL     1      44.639   4.752  13.239  0.00  0.00    +0.000 A 
ATOM     13  H   UNL     1      43.460   7.307  10.096  0.00  0.00    +0.000 HD
ATOM     14  H   UNL     1      42.314   6.628  11.125  0.00  0.00    +0.000 HD
ENDROOT
BRANCH   4   2
ATOM      1  N   UNL     1      47.239   4.970  15.410  0.00  0.00    +0.000 N 
ATOM      2  C   UNL     1      46.867   4.379  14.233  0.00  0.00    +0.000 C 
ATOM      3  O   UNL     1      47.235   3.251  13.943  0.00  0.00    +0.000 OA
ATOM     11  H   UNL     1      47.760   4.388  16.055  0.00  0.00    +0.000 HD
ATOM     12  H   UNL     1      46.748   5.764  15.794  0.00  0.00    +0.000 HD
ENDBRANCH   4   2
TORSDOF 1
ENDMDL
