MODEL 1
REMARK VINA RESULT:    -7.974      0.000      0.000
REMARK INTER + INTRA:          -9.682
REMARK INTER:                  -9.372
REMARK INTRA:                  -0.310
REMARK UNBOUND:                -0.310
REMARK  Name = 
REMARK  3 active torsions:
REMARK  status: ('A' for Active; 'I' for Inactive)
REMARK    1  A    between atoms: C_2  and  C_4
REMARK    2  A    between atoms: N_8  and  C_9
REMARK    3  A    between atoms: C_9  and  C_10
REMARK                            x       y       z     vdW  Elec       q    Type
REMARK                         _______ _______ _______ _____ _____    ______ ____
ROOT
ATOM      4  C   UNL     1      46.547   4.492  13.469  0.00  0.00    +0.000 A 
ATOM      5  C   UNL     1      46.779   5.689  12.801  0.00  0.00    +0.000 A 
ATOM      6  C   UNL     1      46.149   5.914  11.577  0.00  0.00    +0.000 A 
ATOM      7  C   UNL     1      45.332   4.927  11.025  0.00  0.00    +0.000 A 
ATOM      8  N   UNL     1      44.780   5.178   9.768  0.00  0.00    +0.000 N 
ATOM     16  N   UNL     1      45.104   3.761  11.659  0.00  0.00    +0.000 NA
ATOM     17  C   UNL     1      45.711   3.566  12.861  0.00  0.00    +0.000 A 
ATOM     20  H   UNL     1      44.103   5.933   9.829  0.00  0.00    +0.000 HD
ENDROOT
BRANCH   4   2
ATOM      1  N   UNL     1      47.182   5.112  15.734  0.00  0.00    +0.000 N 
ATOM      2  C   UNL     1      47.169   4.148  14.763  0.00  0.00    +0.000 C 
ATOM      3  O   UNL     1      47.634   3.037  14.977  0.00  0.00    +0.000 OA
ATOM     18  H   UNL     1      47.533   4.834  16.639  0.00  0.00    +0.000 HD
ATOM     19  H   UNL     1      46.626   5.952  15.689  0.00  0.00    +0.000 HD
ENDBRANCH   4   2
BRANCH   8   9
ATOM      9  C   UNL     1      44.245   4.017   9.071  0.00  0.00    +0.000 C 
BRANCH   9  10
ATOM     10  C   UNL     1      45.364   3.242   8.398  0.00  0.00    +0.000 A 
ATOM     11  C   UNL     1      45.553   1.867   8.621  0.00  0.00    +0.000 A 
ATOM     12  C   UNL     1      46.545   1.158   7.940  0.00  0.00    +0.000 A 
ATOM     13  C   UNL     1      47.349   1.809   7.009  0.00  0.00    +0.000 A 
ATOM     14  C   UNL     1      47.163   3.168   6.760  0.00  0.00    +0.000 A 
ATOM     15  C   UNL     1      46.177   3.880   7.450  0.00  0.00    +0.000 A 
ENDBRANCH   9  10
ENDBRANCH   8   9
TORSDOF 3
ENDMDL
MODEL 2
REMARK VINA RESULT:    -7.687      2.795      6.073
REMARK INTER + INTRA:          -9.344
REMARK INTER:                  -9.003
REMARK INTRA:                  -0.342
REMARK UNBOUND:                -0.310
REMARK  Name = 
REMARK  3 active torsions:
REMARK  status: ('A' for Active; 'I' for Inactive)
REMARK    1  A    between atoms: C_2  and  C_4
REMARK    2  A    between atoms: N_8  and  C_9
REMARK    3  A    between atoms: C_9  and  C_10
REMARK                            x       y       z     vdW  Elec       q    Type
REMARK                         _______ _______ _______ _____ _____    ______ ____
ROOT
ATOM      4  C   UNL     1      46.506   2.624   7.427  0.00  0.00    +0.000 A 
ATOM      5  C   UNL     1      45.940   1.661   8.256  0.00  0.00    +0.000 A 
ATOM      6  C   UNL     1      45.024   2.058   9.229  0.00  0.00    +0.000 A 
ATOM      7  C   UNL     1      44.718   3.411   9.382  0.00  0.00    +0.000 A 
ATOM      8  N   UNL     1      43.844   3.759  10.414  0.00  0.00    +0.000 N 
ATOM     16  N   UNL     1      45.262   4.354   8.590  0.00  0.00    +0.000 NA
ATOM     17  C   UNL     1      46.139   3.947   7.635  0.00  0.00    +0.000 A 
ATOM     20  H   UNL     1      42.913   3.403  10.218  0.00  0.00    +0.000 HD
ENDROOT
BRANCH   4   2
ATOM      1  N   UNL     1      47.466   3.076   5.238  0.00  0.00    +0.000 N 
ATOM      2  C   UNL     1      47.493   2.314   6.374  0.00  0.00    +0.000 C 
ATOM      3  O   UNL     1      48.325   1.428   6.516  0.00  0.00    +0.000 OA
ATOM     18  H   UNL     1      48.200   2.907   4.566  0.00  0.00    +0.000 HD
ATOM     19  H   UNL     1      46.958   3.944   5.165  0.00  0.00    +0.000 HD
ENDBRANCH   4   2
BRANCH   8   9
ATOM      9  C   UNL     1      43.827   5.170  10.777  0.00  0.00    +0.000 C 
BRANCH   9  10
ATOM     10  C   UNL     1      44.966   5.484  11.729  0.00  0.00    +0.000 A 
ATOM     11  C   UNL     1      45.183   4.736  12.900  0.00  0.00    +0.000 A 
ATOM     12  C   UNL     1      46.277   4.996  13.727  0.00  0.00    +0.000 A 
ATOM     13  C   UNL     1      47.184   5.995  13.386  0.00  0.00    +0.000 A 
ATOM     14  C   UNL     1      46.996   6.734  12.219  0.00  0.00    +0.000 A 
ATOM     15  C   UNL     1      45.895   6.481  11.396  0.00  0.00    +0.000 A 
ENDBRANCH   9  10
ENDBRANCH   8   9
TORSDOF 3
ENDMDL
MODEL 3
REMARK VINA RESULT:    -7.518      2.173      2.674
REMARK INTER + INTRA:          -9.147
REMARK INTER:                  -8.922
REMARK INTRA:                  -0.225
REMARK UNBOUND:                -0.310
REMARK  Name = 
REMARK  3 active torsions:
REMARK  status: ('A' for Active; 'I' for Inactive)
REMARK    1  A    between atoms: C_2  and  C_4
REMARK    2  A    between atoms: N_8  and  C_9
REMARK    3  A    between atoms: C_9  and  C_10
REMARK                            x       y       z     vdW  Elec       q    Type
REMARK                         _______ _______ _______ _____ _____    ______ ____
ROOT
ATOM      4  C   UNL     1      45.566   6.635  12.414  0.00  0.00    +0.000 A 
ATOM      5  C   UNL     1      45.610   5.514  13.236  0.00  0.00    +0.000 A 
ATOM      6  C   UNL     1      45.450   4.251  12.666  0.00  0.00    +0.000 A 
ATOM      7  C   UNL     1      45.212   4.132  11.297  0.00  0.00    +0.000 A 
ATOM      8  N   UNL     1      44.995   2.849  10.792  0.00  0.00    +0.000 N 
ATOM     16  N   UNL     1      45.161   5.209  10.491  0.00  0.00    +0.000 NA
ATOM     17  C   UNL     1      45.337   6.432  11.059  0.00  0.00    +0.000 A 
ATOM     20  H   UNL     1      45.847   2.299  10.856  0.00  0.00    +0.000 HD
ENDROOT
BRANCH   4   2
ATOM      1  N   UNL     1      44.711   8.903  12.623  0.00  0.00    +0.000 N 
ATOM      2  C   UNL     1      45.712   8.017  12.913  0.00  0.00    +0.000 C 
ATOM      3  O   UNL     1      46.675   8.356  13.586  0.00  0.00    +0.000 OA
ATOM     18  H   UNL     1      44.785   9.818  13.044  0.00  0.00    +0.000 HD
ATOM     19  H   UNL     1      43.808   8.624  12.271  0.00  0.00    +0.000 HD
ENDBRANCH   4   2
BRANCH   8   9
ATOM      9  C   UNL     1      44.401   2.786   9.463  0.00  0.00    +0.000 C 
BRANCH   9  10
ATOM     10  C   UNL     1      45.474   2.542   8.416  0.00  0.00    +0.000 A 
ATOM     11  C   UNL     1      46.117   1.299   8.289  0.00  0.00    +0.000 A 
ATOM     12  C   UNL     1      47.050   1.073   7.276  0.00  0.00    +0.000 A 
ATOM     13  C   UNL     1      47.341   2.081   6.361  0.00  0.00    +0.000 A 
ATOM     14  C   UNL     1      46.698   3.314   6.459  0.00  0.00    +0.000 A 
ATOM     15  C   UNL     1      45.771   3.543   7.480  0.00  0.00    +0.000 A 
ENDBRANCH   9  10
ENDBRANCH   8   9
TORSDOF 3
ENDMDL
MODEL 4
REMARK VINA RESULT:    -7.123      1.398      1.523
REMARK INTER + INTRA:          -8.682
REMARK INTER:                  -8.385
REMARK INTRA:                  -0.297
REMARK UNBOUND:                -0.310
REMARK  Name = 
REMARK  3 active torsions:
REMARK  status: ('A' for Active; 'I' for Inactive)
REMARK    1  A    between atoms: C_2  and  C_4
REMARK    2  A    between atoms: N_8  and  C_9
REMARK    3  A    between atoms: C_9  and  C_10
REMARK                            x       y       z     vdW  Elec       q    Type
REMARK                         _______ _______ _______ _____ _____    ______ ____
ROOT
ATOM      4  C   UNL     1      47.189   6.143  13.300  0.00  0.00    +0.000 A 
ATOM      5  C   UNL     1      46.908   7.134  12.366  0.00  0.00    +0.000 A 
ATOM      6  C   UNL     1      45.955   6.885  11.379  0.00  0.00    +0.000 A 
ATOM      7  C   UNL     1      45.328   5.640  11.320  0.00  0.00    +0.000 A 
ATOM      8  N   UNL     1      44.430   5.422  10.273  0.00  0.00    +0.000 N 
ATOM     16  N   UNL     1      45.594   4.670  12.215  0.00  0.00    +0.000 NA
ATOM     17  C   UNL     1      46.512   4.936  13.181  0.00  0.00    +0.000 A 
ATOM     20  H   UNL     1      43.611   6.011  10.387  0.00  0.00    +0.000 HD
ENDROOT
BRANCH   4   2
ATOM      1  N   UNL     1      47.819   5.915  15.639  0.00  0.00    +0.000 N 
ATOM      2  C   UNL     1      48.186   6.299  14.378  0.00  0.00    +0.000 C 
ATOM      3  O   UNL     1      49.309   6.728  14.155  0.00  0.00    +0.000 OA
ATOM     18  H   UNL     1      48.539   5.948  16.346  0.00  0.00    +0.000 HD
ATOM     19  H   UNL     1      47.001   5.359  15.833  0.00  0.00    +0.000 HD
ENDBRANCH   4   2
BRANCH   8   9
ATOM      9  C   UNL     1      44.075   4.031  10.025  0.00  0.00    +0.000 C 
BRANCH   9  10
ATOM     10  C   UNL     1      45.076   3.391   9.080  0.00  0.00    +0.000 A 
ATOM     11  C   UNL     1      45.300   2.003   9.065  0.00  0.00    +0.000 A 
ATOM     12  C   UNL     1      46.173   1.426   8.141  0.00  0.00    +0.000 A 
ATOM     13  C   UNL     1      46.820   2.225   7.203  0.00  0.00    +0.000 A 
ATOM     14  C   UNL     1      46.595   3.600   7.190  0.00  0.00    +0.000 A 
ATOM     15  C   UNL     1      45.729   4.179   8.122  0.00  0.00    +0.000 A 
ENDBRANCH   9  10
ENDBRANCH   8   9
TORSDOF 3
ENDMDL
MODEL 5
REMARK VINA RESULT:    -6.366      2.851      7.141
REMARK INTER + INTRA:          -7.792
REMARK INTER:                  -7.511
REMARK INTRA:                  -0.281
REMARK UNBOUND:                -0.310
REMARK  Name = 
REMARK  3 active torsions:
REMARK  status: ('A' for Active; 'I' for Inactive)
REMARK    1  A    between atoms: C_2  and  C_4
REMARK    2  A    between atoms: N_8  and  C_9
REMARK    3  A    between atoms: C_9  and  C_10
REMARK                            x       y       z     vdW  Elec       q    Type
REMARK                         _______ _______ _______ _____ _____    ______ ____
ROOT
ATOM      4  C   UNL     1      45.173   4.314  11.540  0.00  0.00    +0.000 A 
ATOM      5  C   UNL     1      45.613   5.608  11.793  0.00  0.00    +0.000 A 
ATOM      6  C   UNL     1      46.327   5.863  12.964  0.00  0.00    +0.000 A 
ATOM      7  C   UNL     1      46.554   4.832  13.876  0.00  0.00    +0.000 A 
ATOM      8  N   UNL     1      47.217   5.157  15.061  0.00  0.00    +0.000 N 
ATOM     16  N   UNL     1      46.129   3.576  13.645  0.00  0.00    +0.000 NA
ATOM     17  C   UNL     1      45.451   3.341  12.490  0.00  0.00    +0.000 A 
ATOM     20  H   UNL     1      48.180   5.415  14.864  0.00  0.00    +0.000 HD
ENDROOT
BRANCH   4   2
ATOM      1  N   UNL     1      44.493   4.757   9.246  0.00  0.00    +0.000 N 
ATOM      2  C   UNL     1      44.401   3.937  10.338  0.00  0.00    +0.000 C 
ATOM      3  O   UNL     1      43.726   2.918  10.303  0.00  0.00    +0.000 OA
ATOM     18  H   UNL     1      44.028   4.440   8.407  0.00  0.00    +0.000 HD
ATOM     19  H   UNL     1      45.195   5.473   9.148  0.00  0.00    +0.000 HD
ENDBRANCH   4   2
BRANCH   8   9
ATOM      9  C   UNL     1      47.121   4.171  16.129  0.00  0.00    +0.000 C 
BRANCH   9  10
ATOM     10  C   UNL     1      48.505   3.792  16.624  0.00  0.00    +0.000 A 
ATOM     11  C   UNL     1      49.381   4.741  17.178  0.00  0.00    +0.000 A 
ATOM     12  C   UNL     1      50.622   4.361  17.691  0.00  0.00    +0.000 A 
ATOM     13  C   UNL     1      50.999   3.021  17.677  0.00  0.00    +0.000 A 
ATOM     14  C   UNL     1      50.135   2.062  17.150  0.00  0.00    +0.000 A 
ATOM     15  C   UNL     1      48.897   2.445  16.626  0.00  0.00    +0.000 A 
ENDBRANCH   9  10
ENDBRANCH   8   9
TORSDOF 3
ENDMDL
MODEL 6
REMARK VINA RESULT:    -5.777      3.417      5.930
REMARK INTER + INTRA:          -7.100
REMARK INTER:                  -6.790
REMARK INTRA:                  -0.309
REMARK UNBOUND:                -0.310
REMARK  Name = 
REMARK  3 active torsions:
REMARK  status: ('A' for Active; 'I' for Inactive)
REMARK    1  A    between atoms: C_2  and  C_4
REMARK    2  A    between atoms: N_8  and  C_9
REMARK    3  A    between atoms: C_9  and  C_10
REMARK                            x       y       z     vdW  Elec       q    Type
REMARK                         _______ _______ _______ _____ _____    ______ ____
ROOT
ATOM      4  C   UNL     1      44.601   4.059  11.674  0.00  0.00    +0.000 A 
ATOM      5  C   UNL     1      45.262   3.999  12.896  0.00  0.00    +0.000 A 
ATOM      6  C   UNL     1      45.821   5.164  13.422  0.00  0.00    +0.000 A 
ATOM      7  C   UNL     1      45.743   6.357  12.702  0.00  0.00    +0.000 A 
ATOM      8  N   UNL     1      46.375   7.477  13.244  0.00  0.00    +0.000 N 
ATOM     16  N   UNL     1      45.110   6.427  11.516  0.00  0.00    +0.000 NA
ATOM     17  C   UNL     1      44.555   5.286  11.027  0.00  0.00    +0.000 A 
ATOM     20  H   UNL     1      45.901   7.769  14.094  0.00  0.00    +0.000 HD
ENDROOT
BRANCH   4   2
ATOM      1  N   UNL     1      44.644   2.334   9.960  0.00  0.00    +0.000 N 
ATOM      2  C   UNL     1      43.984   2.886  11.024  0.00  0.00    +0.000 C 
ATOM      3  O   UNL     1      42.938   2.402  11.433  0.00  0.00    +0.000 OA
ATOM     18  H   UNL     1      44.254   1.483   9.582  0.00  0.00    +0.000 HD
ATOM     19  H   UNL     1      45.601   2.550   9.727  0.00  0.00    +0.000 HD
ENDBRANCH   4   2
BRANCH   8   9
ATOM      9  C   UNL     1      46.588   8.588  12.326  0.00  0.00    +0.000 C 
BRANCH   9  10
ATOM     10  C   UNL     1      48.064   8.731  12.004  0.00  0.00    +0.000 A 
ATOM     11  C   UNL     1      48.903   7.613  11.852  0.00  0.00    +0.000 A 
ATOM     12  C   UNL     1      50.242   7.763  11.487  0.00  0.00    +0.000 A 
ATOM     13  C   UNL     1      50.759   9.033  11.249  0.00  0.00    +0.000 A 
ATOM     14  C   UNL     1      49.938  10.152  11.375  0.00  0.00    +0.000 A 
ATOM     15  C   UNL     1      48.600  10.003  11.750  0.00  0.00    +0.000 A 
ENDBRANCH   9  10
ENDBRANCH   8   9
TORSDOF 3
ENDMDL
MODEL 7
REMARK VINA RESULT:    -5.753      3.743      5.734
REMARK INTER + INTRA:          -7.072
REMARK INTER:                  -6.844
REMARK INTRA:                  -0.228
REMARK UNBOUND:                -0.310
REMARK  Name = 
REMARK  3 active torsions:
REMARK  status: ('A' for Active; 'I' for Inactive)
REMARK    1  A    between atoms: C_2  and  C_4
REMARK    2  A    between atoms: N_8  and  C_9
REMARK    3  A    between atoms: C_9  and  C_10
REMARK                            x       y       z     vdW  Elec       q    Type
REMARK                         _______ _______ _______ _____ _____    ______ ____
ROOT
ATOM      4  C   UNL     1      48.999   4.627  18.183  0.00  0.00    +0.000 A 
ATOM      5  C   UNL     1      48.234   3.467  18.130  0.00  0.00    +0.000 A 
ATOM      6  C   UNL     1      47.512   3.186  16.970  0.00  0.00    +0.000 A 
ATOM      7  C   UNL     1      47.536   4.084  15.903  0.00  0.00    +0.000 A 
ATOM      8  N   UNL     1      46.743   3.784  14.793  0.00  0.00    +0.000 N 
ATOM     16  N   UNL     1      48.268   5.212  15.944  0.00  0.00    +0.000 NA
ATOM     17  C   UNL     1      48.981   5.463  17.074  0.00  0.00    +0.000 A 
ATOM     20  H   UNL     1      47.102   2.960  14.320  0.00  0.00    +0.000 HD
ENDROOT
BRANCH   4   2
ATOM      1  N   UNL     1      49.560   4.358  20.535  0.00  0.00    +0.000 N 
ATOM      2  C   UNL     1      49.792   5.026  19.364  0.00  0.00    +0.000 C 
ATOM      3  O   UNL     1      50.645   5.899  19.298  0.00  0.00    +0.000 OA
ATOM     18  H   UNL     1      50.169   4.583  21.308  0.00  0.00    +0.000 HD
ATOM     19  H   UNL     1      49.038   3.497  20.589  0.00  0.00    +0.000 HD
ENDBRANCH   4   2
BRANCH   8   9
ATOM      9  C   UNL     1      46.506   4.886  13.871  0.00  0.00    +0.000 C 
BRANCH   9  10
ATOM     10  C   UNL     1      45.230   4.651  13.083  0.00  0.00    +0.000 A 
ATOM     11  C   UNL     1      44.215   5.621  13.009  0.00  0.00    +0.000 A 
ATOM     12  C   UNL     1      43.080   5.414  12.223  0.00  0.00    +0.000 A 
ATOM     13  C   UNL     1      42.951   4.242  11.483  0.00  0.00    +0.000 A 
ATOM     14  C   UNL     1      43.956   3.278  11.529  0.00  0.00    +0.000 A 
ATOM     15  C   UNL     1      45.088   3.481  12.324  0.00  0.00    +0.000 A 
ENDBRANCH   9  10
ENDBRANCH   8   9
TORSDOF 3
ENDMDL
MODEL 8
REMARK VINA RESULT:    -5.696      1.892      3.033
REMARK INTER + INTRA:          -7.004
REMARK INTER:                  -6.731
REMARK INTRA:                  -0.273
REMARK UNBOUND:                -0.310
REMARK  Name = 
REMARK  3 active torsions:
REMARK  status: ('A' for Active; 'I' for Inactive)
REMARK    1  A    between atoms: C_2  and  C_4
REMARK    2  A    between atoms: N_8  and  C_9
REMARK    3  A    between atoms: C_9  and  C_10
REMARK                            x       y       z     vdW  Elec       q    Type
REMARK                         _______ _______ _______ _____ _____    ______ ____
ROOT
ATOM      4  C   UNL     1      48.135   5.193  15.838  0.00  0.00    +0.000 A 
ATOM      5  C   UNL     1      48.290   6.218  14.911  0.00  0.00    +0.000 A 
ATOM      6  C   UNL     1      47.441   6.265  13.806  0.00  0.00    +0.000 A 
ATOM      7  C   UNL     1      46.480   5.270  13.626  0.00  0.00    +0.000 A 
ATOM      8  N   UNL     1      45.701   5.331  12.469  0.00  0.00    +0.000 N 
ATOM     16  N   UNL     1      46.323   4.270  14.513  0.00  0.00    +0.000 NA
ATOM     17  C   UNL     1      47.146   4.249  15.595  0.00  0.00    +0.000 A 
ATOM     20  H   UNL     1      45.091   6.142  12.501  0.00  0.00    +0.000 HD
ENDROOT
BRANCH   4   2
ATOM      1  N   UNL     1      48.471   5.463  18.232  0.00  0.00    +0.000 N 
ATOM      2  C   UNL     1      48.985   5.043  17.036  0.00  0.00    +0.000 C 
ATOM      3  O   UNL     1      50.097   4.537  16.974  0.00  0.00    +0.000 OA
ATOM     18  H   UNL     1      49.030   5.275  19.052  0.00  0.00    +0.000 HD
ATOM     19  H   UNL     1      47.496   5.677  18.373  0.00  0.00    +0.000 HD
ENDBRANCH   4   2
BRANCH   8   9
ATOM      9  C   UNL     1      44.977   4.113  12.132  0.00  0.00    +0.000 C 
BRANCH   9  10
ATOM     10  C   UNL     1      44.999   3.884  10.631  0.00  0.00    +0.000 A 
ATOM     11  C   UNL     1      45.515   4.843   9.741  0.00  0.00    +0.000 A 
ATOM     12  C   UNL     1      45.590   4.585   8.371  0.00  0.00    +0.000 A 
ATOM     13  C   UNL     1      45.169   3.356   7.871  0.00  0.00    +0.000 A 
ATOM     14  C   UNL     1      44.673   2.386   8.740  0.00  0.00    +0.000 A 
ATOM     15  C   UNL     1      44.588   2.648  10.110  0.00  0.00    +0.000 A 
ENDBRANCH   9  10
ENDBRANCH   8   9
TORSDOF 3
ENDMDL
MODEL 9
REMARK VINA RESULT:    -5.599      4.332      6.524
REMARK INTER + INTRA:          -6.890
REMARK INTER:                  -6.559
REMARK INTRA:                  -0.332
REMARK UNBOUND:                -0.310
REMARK  Name = 
REMARK  3 active torsions:
REMARK  status: ('A' for Active; 'I' for Inactive)
REMARK    1  A    between atoms: C_2  and  C_4
REMARK    2  A    between atoms: N_8  and  C_9
REMARK    3  A    between atoms: C_9  and  C_10
REMARK                            x       y       z     vdW  Elec       q    Type
REMARK                         _______ _______ _______ _____ _____    ______ ____
ROOT
ATOM      4  C   UNL     1      50.866   2.504  17.408  0.00  0.00    +0.000 A 
ATOM      5  C   UNL     1      50.844   3.848  17.765  0.00  0.00    +0.000 A 
ATOM      6  C   UNL     1      49.751   4.630  17.392  0.00  0.00    +0.000 A 
ATOM      7  C   UNL     1      48.721   4.068  16.638  0.00  0.00    +0.000 A 
ATOM      8  N   UNL     1      47.684   4.912  16.236  0.00  0.00    +0.000 N 
ATOM     16  N   UNL     1      48.733   2.770  16.280  0.00  0.00    +0.000 NA
ATOM     17  C   UNL     1      49.797   2.017  16.668  0.00  0.00    +0.000 A 
ATOM     20  H   UNL     1      47.147   5.214  17.044  0.00  0.00    +0.000 HD
ENDROOT
BRANCH   4   2
ATOM      1  N   UNL     1      51.656   0.307  18.090  0.00  0.00    +0.000 N 
ATOM      2  C   UNL     1      51.977   1.591  17.742  0.00  0.00    +0.000 C 
ATOM      3  O   UNL     1      53.144   1.953  17.685  0.00  0.00    +0.000 OA
ATOM     18  H   UNL     1      52.430  -0.326  18.232  0.00  0.00    +0.000 HD
ATOM     19  H   UNL     1      50.745  -0.098  17.940  0.00  0.00    +0.000 HD
ENDBRANCH   4   2
BRANCH   8   9
ATOM      9  C   UNL     1      46.832   4.401  15.171  0.00  0.00    +0.000 C 
BRANCH   9  10
ATOM     10  C   UNL     1      46.910   5.305  13.953  0.00  0.00    +0.000 A 
ATOM     11  C   UNL     1      47.945   6.242  13.790  0.00  0.00    +0.000 A 
ATOM     12  C   UNL     1      48.039   7.015  12.631  0.00  0.00    +0.000 A 
ATOM     13  C   UNL     1      47.111   6.848  11.607  0.00  0.00    +0.000 A 
ATOM     14  C   UNL     1      46.090   5.909  11.743  0.00  0.00    +0.000 A 
ATOM     15  C   UNL     1      45.990   5.143  12.907  0.00  0.00    +0.000 A 
ENDBRANCH   9  10
ENDBRANCH   8   9
TORSDOF 3
ENDMDL
