MODEL 1
REMARK VINA RESULT:    -7.540      0.000      0.000
REMARK INTER + INTRA:          -9.897
REMARK INTER:                  -9.304
REMARK INTRA:                  -0.593
REMARK UNBOUND:                -0.593
REMARK  Name = 
REMARK  4 active torsions:
REMARK  status: ('A' for Active; 'I' for Inactive)
REMARK    1  A    between atoms: C_2  and  C_4
REMARK    2  A    between atoms: N_11  and  C_12
REMARK    3  A    between atoms: C_12  and  C_13
REMARK    4  A    between atoms: N_15  and  C_16
REMARK                            x       y       z     vdW  Elec       q    Type
REMARK                         _______ _______ _______ _____ _____    ______ ____
ROOT
ATOM      4  C   UNL     1      46.616   2.773   7.502  0.00  0.00    +0.000 A 
ATOM      5  C   UNL     1      46.559   4.158   7.646  0.00  0.00    +0.000 A 
ATOM      6  N   UNL     1      45.768   4.836   8.523  0.00  0.00    +0.000 NA
ATOM      7  C   UNL     1      45.055   4.014   9.323  0.00  0.00    +0.000 A 
ATOM      8  C   UNL     1      45.051   2.621   9.307  0.00  0.00    +0.000 A 
ATOM      9  C   UNL     1      44.172   2.194  10.337  0.00  0.00    +0.000 A 
ATOM     10  C   UNL     1      43.661   3.322  10.943  0.00  0.00    +0.000 A 
ATOM     11  N   UNL     1      44.194   4.419  10.312  0.00  0.00    +0.000 N 
ATOM     20  C   UNL     1      45.855   1.971   8.357  0.00  0.00    +0.000 A 
ENDROOT
BRANCH   4   2
ATOM      1  N   UNL     1      47.806   3.019   5.399  0.00  0.00    +0.000 N 
ATOM      2  C   UNL     1      47.486   2.205   6.453  0.00  0.00    +0.000 C 
ATOM      3  O   UNL     1      47.930   1.069   6.534  0.00  0.00    +0.000 OA
ATOM     21  H   UNL     1      48.485   2.660   4.739  0.00  0.00    +0.000 HD
ATOM     22  H   UNL     1      47.658   4.018   5.414  0.00  0.00    +0.000 HD
ENDBRANCH   4   2
BRANCH  11  12
ATOM     12  C   UNL     1      43.942   5.799  10.678  0.00  0.00    +0.000 C 
BRANCH  12  13
ATOM     13  C   UNL     1      44.845   6.275  11.792  0.00  0.00    +0.000 C 
ATOM     14  O   UNL     1      44.489   6.242  12.970  0.00  0.00    +0.000 OA
ATOM     15  N   UNL     1      46.105   6.692  11.413  0.00  0.00    +0.000 N 
ATOM     23  H   UNL     1      46.327   6.699  10.418  0.00  0.00    +0.000 HD
BRANCH  15  16
ATOM     16  C   UNL     1      47.124   7.045  12.428  0.00  0.00    +0.000 C 
ATOM     17  C   UNL     1      48.512   7.446  11.898  0.00  0.00    +0.000 C 
ATOM     18  N   UNL     1      49.140   6.556  12.899  0.00  0.00    +0.000 NA
ATOM     19  C   UNL     1      47.857   5.837  13.049  0.00  0.00    +0.000 C 
ATOM     24  H   UNL     1      49.426   7.040  13.752  0.00  0.00    +0.000 HD
ENDBRANCH  15  16
ENDBRANCH  12  13
ENDBRANCH  11  12
TORSDOF 4
ENDMDL
MODEL 2
REMARK VINA RESULT:    -7.117      1.895      6.147
REMARK INTER + INTRA:          -9.374
REMARK INTER:                  -9.006
REMARK INTRA:                  -0.369
REMARK UNBOUND:                -0.593
REMARK  Name = 
REMARK  4 active torsions:
REMARK  status: ('A' for Active; 'I' for Inactive)
REMARK    1  A    between atoms: C_2  and  C_4
REMARK    2  A    between atoms: N_11  and  C_12
REMARK    3  A    between atoms: C_12  and  C_13
REMARK    4  A    between atoms: N_15  and  C_16
REMARK                            x       y       z     vdW  Elec       q    Type
REMARK                         _______ _______ _______ _____ _____    ______ ____
ROOT
ATOM      4  C   UNL     1      46.655   6.072  13.081  0.00  0.00    +0.000 A 
ATOM      5  C   UNL     1      46.771   6.285  11.709  0.00  0.00    +0.000 A 
ATOM      6  N   UNL     1      46.068   5.638  10.739  0.00  0.00    +0.000 NA
ATOM      7  C   UNL     1      45.161   4.774  11.244  0.00  0.00    +0.000 A 
ATOM      8  C   UNL     1      44.920   4.499  12.590  0.00  0.00    +0.000 A 
ATOM      9  C   UNL     1      43.866   3.549  12.639  0.00  0.00    +0.000 A 
ATOM     10  C   UNL     1      43.499   3.265  11.341  0.00  0.00    +0.000 A 
ATOM     11  N   UNL     1      44.299   4.004  10.504  0.00  0.00    +0.000 N 
ATOM     20  C   UNL     1      45.700   5.166  13.547  0.00  0.00    +0.000 A 
ENDROOT
BRANCH   4   2
ATOM      1  N   UNL     1      47.241   8.136  14.220  0.00  0.00    +0.000 N 
ATOM      2  C   UNL     1      47.545   6.820  13.992  0.00  0.00    +0.000 C 
ATOM      3  O   UNL     1      48.493   6.284  14.547  0.00  0.00    +0.000 OA
ATOM     21  H   UNL     1      47.791   8.613  14.924  0.00  0.00    +0.000 HD
ATOM     22  H   UNL     1      46.350   8.543  13.975  0.00  0.00    +0.000 HD
ENDBRANCH   4   2
BRANCH  11  12
ATOM     12  C   UNL     1      44.205   4.024   9.058  0.00  0.00    +0.000 C 
BRANCH  12  13
ATOM     13  C   UNL     1      45.045   2.948   8.409  0.00  0.00    +0.000 C 
ATOM     14  O   UNL     1      45.021   1.783   8.806  0.00  0.00    +0.000 OA
ATOM     15  N   UNL     1      45.790   3.340   7.315  0.00  0.00    +0.000 N 
ATOM     23  H   UNL     1      45.766   4.323   7.047  0.00  0.00    +0.000 HD
BRANCH  15  16
ATOM     16  C   UNL     1      46.539   2.346   6.513  0.00  0.00    +0.000 C 
ATOM     17  C   UNL     1      47.991   2.069   6.943  0.00  0.00    +0.000 C 
ATOM     18  N   UNL     1      48.419   2.182   5.532  0.00  0.00    +0.000 NA
ATOM     19  C   UNL     1      47.170   2.908   5.221  0.00  0.00    +0.000 C 
ATOM     24  H   UNL     1      48.485   1.282   5.052  0.00  0.00    +0.000 HD
ENDBRANCH  15  16
ENDBRANCH  12  13
ENDBRANCH  11  12
TORSDOF 4
ENDMDL
MODEL 3
REMARK VINA RESULT:    -6.631      2.611      6.723
REMARK INTER + INTRA:          -8.775
REMARK INTER:                  -8.523
REMARK INTRA:                  -0.252
REMARK UNBOUND:                -0.593
REMARK  Name = 
REMARK  4 active torsions:
REMARK  status: ('A' for Active; 'I' for Inactive)
REMARK    1  A    between atoms: C_2  and  C_4
REMARK    2  A    between atoms: N_11  and  C_12
REMARK    3  A    between atoms: C_12  and  C_13
REMARK    4  A    between atoms: N_15  and  C_16
REMARK                            x       y       z     vdW  Elec       q    Type
REMARK                         _______ _______ _______ _____ _____    ______ ____
ROOT
ATOM      4  C   UNL     1      47.509   5.207  14.760  0.00  0.00    +0.000 A 
ATOM      5  C   UNL     1      46.773   4.043  14.552  0.00  0.00    +0.000 A 
ATOM      6  N   UNL     1      45.986   3.778  13.473  0.00  0.00    +0.000 NA
ATOM      7  C   UNL     1      46.031   4.759  12.545  0.00  0.00    +0.000 A 
ATOM      8  C   UNL     1      46.754   5.949  12.614  0.00  0.00    +0.000 A 
ATOM      9  C   UNL     1      46.512   6.655  11.406  0.00  0.00    +0.000 A 
ATOM     10  C   UNL     1      45.653   5.893  10.642  0.00  0.00    +0.000 A 
ATOM     11  N   UNL     1      45.358   4.752  11.348  0.00  0.00    +0.000 N 
ATOM     20  C   UNL     1      47.518   6.189  13.767  0.00  0.00    +0.000 A 
ENDROOT
BRANCH   4   2
ATOM      1  N   UNL     1      48.246   6.589  16.616  0.00  0.00    +0.000 N 
ATOM      2  C   UNL     1      48.260   5.355  16.023  0.00  0.00    +0.000 C 
ATOM      3  O   UNL     1      48.842   4.412  16.538  0.00  0.00    +0.000 OA
ATOM     21  H   UNL     1      48.674   6.657  17.532  0.00  0.00    +0.000 HD
ATOM     22  H   UNL     1      47.594   7.315  16.355  0.00  0.00    +0.000 HD
ENDBRANCH   4   2
BRANCH  11  12
ATOM     12  C   UNL     1      44.520   3.669  10.876  0.00  0.00    +0.000 C 
BRANCH  12  13
ATOM     13  C   UNL     1      44.771   3.334   9.424  0.00  0.00    +0.000 C 
ATOM     14  O   UNL     1      44.281   4.002   8.513  0.00  0.00    +0.000 OA
ATOM     15  N   UNL     1      45.626   2.277   9.187  0.00  0.00    +0.000 N 
ATOM     23  H   UNL     1      45.989   1.765   9.990  0.00  0.00    +0.000 HD
BRANCH  15  16
ATOM     16  C   UNL     1      46.059   1.947   7.809  0.00  0.00    +0.000 C 
ATOM     17  C   UNL     1      46.909   0.674   7.642  0.00  0.00    +0.000 C 
ATOM     18  N   UNL     1      47.849   1.427   6.783  0.00  0.00    +0.000 NA
ATOM     19  C   UNL     1      47.325   2.693   7.338  0.00  0.00    +0.000 C 
ATOM     24  H   UNL     1      47.661   1.324   5.785  0.00  0.00    +0.000 HD
ENDBRANCH  15  16
ENDBRANCH  12  13
ENDBRANCH  11  12
TORSDOF 4
ENDMDL
MODEL 4
REMARK VINA RESULT:    -6.203      2.523      6.311
REMARK INTER + INTRA:          -8.247
REMARK INTER:                  -8.105
REMARK INTRA:                  -0.142
REMARK UNBOUND:                -0.593
REMARK  Name = 
REMARK  4 active torsions:
REMARK  status: ('A' for Active; 'I' for Inactive)
REMARK    1  A    between atoms: C_2  and  C_4
REMARK    2  A    between atoms: N_11  and  C_12
REMARK    3  A    between atoms: C_12  and  C_13
REMARK    4  A    between atoms: N_15  and  C_16
REMARK                            x       y       z     vdW  Elec       q    Type
REMARK                         _______ _______ _______ _____ _____    ______ ____
ROOT
ATOM      4  C   UNL     1      47.801   6.339  13.975  0.00  0.00    +0.000 A 
ATOM      5  C   UNL     1      47.219   5.108  14.267  0.00  0.00    +0.000 A 
ATOM      6  N   UNL     1      45.985   4.693  13.866  0.00  0.00    +0.000 NA
ATOM      7  C   UNL     1      45.368   5.594  13.071  0.00  0.00    +0.000 A 
ATOM      8  C   UNL     1      45.855   6.838  12.674  0.00  0.00    +0.000 A 
ATOM      9  C   UNL     1      44.874   7.420  11.827  0.00  0.00    +0.000 A 
ATOM     10  C   UNL     1      43.824   6.532  11.735  0.00  0.00    +0.000 A 
ATOM     11  N   UNL     1      44.129   5.434  12.503  0.00  0.00    +0.000 N 
ATOM     20  C   UNL     1      47.116   7.233  13.148  0.00  0.00    +0.000 A 
ENDROOT
BRANCH   4   2
ATOM      1  N   UNL     1      49.966   7.425  13.792  0.00  0.00    +0.000 N 
ATOM      2  C   UNL     1      49.126   6.650  14.547  0.00  0.00    +0.000 C 
ATOM      3  O   UNL     1      49.452   6.264  15.660  0.00  0.00    +0.000 OA
ATOM     21  H   UNL     1      50.828   7.721  14.232  0.00  0.00    +0.000 HD
ATOM     22  H   UNL     1      49.651   7.952  12.989  0.00  0.00    +0.000 HD
ENDBRANCH   4   2
BRANCH  11  12
ATOM     12  C   UNL     1      43.301   4.253  12.640  0.00  0.00    +0.000 C 
BRANCH  12  13
ATOM     13  C   UNL     1      43.470   3.292  11.486  0.00  0.00    +0.000 C 
ATOM     14  O   UNL     1      42.926   2.187  11.480  0.00  0.00    +0.000 OA
ATOM     15  N   UNL     1      44.218   3.751  10.421  0.00  0.00    +0.000 N 
ATOM     23  H   UNL     1      44.643   4.674  10.497  0.00  0.00    +0.000 HD
BRANCH  15  16
ATOM     16  C   UNL     1      44.333   2.956   9.176  0.00  0.00    +0.000 C 
ATOM     17  C   UNL     1      45.506   1.961   9.102  0.00  0.00    +0.000 C 
ATOM     18  N   UNL     1      45.820   2.449   7.742  0.00  0.00    +0.000 NA
ATOM     19  C   UNL     1      45.049   3.680   8.017  0.00  0.00    +0.000 C 
ATOM     24  H   UNL     1      45.409   1.881   7.000  0.00  0.00    +0.000 HD
ENDBRANCH  15  16
ENDBRANCH  12  13
ENDBRANCH  11  12
TORSDOF 4
ENDMDL
MODEL 5
REMARK VINA RESULT:    -6.183      2.518      6.351
REMARK INTER + INTRA:          -8.222
REMARK INTER:                  -7.841
REMARK INTRA:                  -0.381
REMARK UNBOUND:                -0.593
REMARK  Name = 
REMARK  4 active torsions:
REMARK  status: ('A' for Active; 'I' for Inactive)
REMARK    1  A    between atoms: C_2  and  C_4
REMARK    2  A    between atoms: N_11  and  C_12
REMARK    3  A    between atoms: C_12  and  C_13
REMARK    4  A    between atoms: N_15  and  C_16
REMARK                            x       y       z     vdW  Elec       q    Type
REMARK                         _______ _______ _______ _____ _____    ______ ____
ROOT
ATOM      4  C   UNL     1      46.063   8.430  12.389  0.00  0.00    +0.000 A 
ATOM      5  C   UNL     1      44.834   7.868  12.048  0.00  0.00    +0.000 A 
ATOM      6  N   UNL     1      44.499   6.554  12.162  0.00  0.00    +0.000 NA
ATOM      7  C   UNL     1      45.483   5.814  12.718  0.00  0.00    +0.000 A 
ATOM      8  C   UNL     1      46.735   6.259  13.137  0.00  0.00    +0.000 A 
ATOM      9  C   UNL     1      47.418   5.137  13.677  0.00  0.00    +0.000 A 
ATOM     10  C   UNL     1      46.580   4.047  13.569  0.00  0.00    +0.000 A 
ATOM     11  N   UNL     1      45.415   4.467  12.976  0.00  0.00    +0.000 N 
ATOM     20  C   UNL     1      47.044   7.617  12.960  0.00  0.00    +0.000 A 
ENDROOT
BRANCH   4   2
ATOM      1  N   UNL     1      45.177  10.683  12.190  0.00  0.00    +0.000 N 
ATOM      2  C   UNL     1      46.278   9.869  12.138  0.00  0.00    +0.000 C 
ATOM      3  O   UNL     1      47.392  10.324  11.926  0.00  0.00    +0.000 OA
ATOM     21  H   UNL     1      45.347  11.679  12.122  0.00  0.00    +0.000 HD
ATOM     22  H   UNL     1      44.298  10.390  12.590  0.00  0.00    +0.000 HD
ENDBRANCH   4   2
BRANCH  11  12
ATOM     12  C   UNL     1      44.258   3.632  12.721  0.00  0.00    +0.000 C 
BRANCH  12  13
ATOM     13  C   UNL     1      44.004   3.432  11.245  0.00  0.00    +0.000 C 
ATOM     14  O   UNL     1      43.025   3.926  10.685  0.00  0.00    +0.000 OA
ATOM     15  N   UNL     1      44.963   2.715  10.559  0.00  0.00    +0.000 N 
ATOM     23  H   UNL     1      45.744   2.330  11.089  0.00  0.00    +0.000 HD
BRANCH  15  16
ATOM     16  C   UNL     1      44.896   2.576   9.085  0.00  0.00    +0.000 C 
ATOM     17  C   UNL     1      45.963   1.681   8.430  0.00  0.00    +0.000 C 
ATOM     18  N   UNL     1      46.197   2.726   7.410  0.00  0.00    +0.000 NA
ATOM     19  C   UNL     1      45.567   3.723   8.301  0.00  0.00    +0.000 C 
ATOM     24  H   UNL     1      45.673   2.578   6.546  0.00  0.00    +0.000 HD
ENDBRANCH  15  16
ENDBRANCH  12  13
ENDBRANCH  11  12
TORSDOF 4
ENDMDL
MODEL 6
REMARK VINA RESULT:    -5.995      4.117      6.187
REMARK INTER + INTRA:          -7.990
REMARK INTER:                  -7.366
REMARK INTRA:                  -0.623
REMARK UNBOUND:                -0.593
REMARK  Name = 
REMARK  4 active torsions:
REMARK  status: ('A' for Active; 'I' for Inactive)
REMARK    1  A    between atoms: C_2  and  C_4
REMARK    2  A    between atoms: N_11  and  C_12
REMARK    3  A    between atoms: C_12  and  C_13
REMARK    4  A    between atoms: N_15  and  C_16
REMARK                            x       y       z     vdW  Elec       q    Type
REMARK                         _______ _______ _______ _____ _____    ______ ____
ROOT
ATOM      4  C   UNL     1      44.739   4.600  12.452  0.00  0.00    +0.000 A 
ATOM      5  C   UNL     1      45.879   4.088  13.068  0.00  0.00    +0.000 A 
ATOM      6  N   UNL     1      46.928   4.818  13.536  0.00  0.00    +0.000 NA
ATOM      7  C   UNL     1      46.736   6.148  13.404  0.00  0.00    +0.000 A 
ATOM      8  C   UNL     1      45.630   6.786  12.845  0.00  0.00    +0.000 A 
ATOM      9  C   UNL     1      45.860   8.184  12.944  0.00  0.00    +0.000 A 
ATOM     10  C   UNL     1      47.087   8.363  13.546  0.00  0.00    +0.000 A 
ATOM     11  N   UNL     1      47.614   7.122  13.810  0.00  0.00    +0.000 N 
ATOM     20  C   UNL     1      44.593   5.985  12.342  0.00  0.00    +0.000 A 
ENDROOT
BRANCH   4   2
ATOM      1  N   UNL     1      43.717   2.397  12.482  0.00  0.00    +0.000 N 
ATOM      2  C   UNL     1      43.723   3.656  11.944  0.00  0.00    +0.000 C 
ATOM      3  O   UNL     1      42.899   3.990  11.105  0.00  0.00    +0.000 OA
ATOM     21  H   UNL     1      42.955   1.790  12.207  0.00  0.00    +0.000 HD
ATOM     22  H   UNL     1      44.214   2.160  13.329  0.00  0.00    +0.000 HD
ENDBRANCH   4   2
BRANCH  11  12
ATOM     12  C   UNL     1      48.876   6.874  14.477  0.00  0.00    +0.000 C 
BRANCH  12  13
ATOM     13  C   UNL     1      48.701   6.558  15.945  0.00  0.00    +0.000 C 
ATOM     14  O   UNL     1      48.759   7.437  16.806  0.00  0.00    +0.000 OA
ATOM     15  N   UNL     1      48.415   5.243  16.251  0.00  0.00    +0.000 N 
ATOM     23  H   UNL     1      48.388   4.569  15.487  0.00  0.00    +0.000 HD
BRANCH  15  16
ATOM     16  C   UNL     1      48.082   4.842  17.637  0.00  0.00    +0.000 C 
ATOM     17  C   UNL     1      49.248   4.336  18.505  0.00  0.00    +0.000 C 
ATOM     18  N   UNL     1      48.414   3.196  18.943  0.00  0.00    +0.000 NA
ATOM     19  C   UNL     1      47.531   3.407  17.776  0.00  0.00    +0.000 C 
ATOM     24  H   UNL     1      47.939   3.356  19.833  0.00  0.00    +0.000 HD
ENDBRANCH  15  16
ENDBRANCH  12  13
ENDBRANCH  11  12
TORSDOF 4
ENDMDL
MODEL 7
REMARK VINA RESULT:    -5.983      5.595      8.702
REMARK INTER + INTRA:          -7.976
REMARK INTER:                  -7.510
REMARK INTRA:                  -0.466
REMARK UNBOUND:                -0.593
REMARK  Name = 
REMARK  4 active torsions:
REMARK  status: ('A' for Active; 'I' for Inactive)
REMARK    1  A    between atoms: C_2  and  C_4
REMARK    2  A    between atoms: N_11  and  C_12
REMARK    3  A    between atoms: C_12  and  C_13
REMARK    4  A    between atoms: N_15  and  C_16
REMARK                            x       y       z     vdW  Elec       q    Type
REMARK                         _______ _______ _______ _____ _____    ______ ____
ROOT
ATOM      4  C   UNL     1      51.721   2.170  17.556  0.00  0.00    +0.000 A 
ATOM      5  C   UNL     1      50.563   1.610  17.022  0.00  0.00    +0.000 A 
ATOM      6  N   UNL     1      49.393   2.267  16.791  0.00  0.00    +0.000 NA
ATOM      7  C   UNL     1      49.471   3.584  17.080  0.00  0.00    +0.000 A 
ATOM      8  C   UNL     1      50.576   4.271  17.580  0.00  0.00    +0.000 A 
ATOM      9  C   UNL     1      50.199   5.635  17.703  0.00  0.00    +0.000 A 
ATOM     10  C   UNL     1      48.889   5.744  17.287  0.00  0.00    +0.000 A 
ATOM     11  N   UNL     1      48.454   4.493  16.924  0.00  0.00    +0.000 N 
ATOM     20  C   UNL     1      51.745   3.538  17.837  0.00  0.00    +0.000 A 
ENDROOT
BRANCH   4   2
ATOM      1  N   UNL     1      52.626   0.006  18.187  0.00  0.00    +0.000 N 
ATOM      2  C   UNL     1      52.885   1.294  17.800  0.00  0.00    +0.000 C 
ATOM      3  O   UNL     1      54.030   1.687  17.634  0.00  0.00    +0.000 OA
ATOM     21  H   UNL     1      53.422  -0.617  18.250  0.00  0.00    +0.000 HD
ATOM     22  H   UNL     1      51.713  -0.417  18.105  0.00  0.00    +0.000 HD
ENDBRANCH   4   2
BRANCH  11  12
ATOM     12  C   UNL     1      47.143   4.185  16.389  0.00  0.00    +0.000 C 
BRANCH  12  13
ATOM     13  C   UNL     1      47.112   4.217  14.879  0.00  0.00    +0.000 C 
ATOM     14  O   UNL     1      47.326   3.208  14.207  0.00  0.00    +0.000 OA
ATOM     15  N   UNL     1      46.775   5.427  14.306  0.00  0.00    +0.000 N 
ATOM     23  H   UNL     1      46.618   6.222  14.924  0.00  0.00    +0.000 HD
BRANCH  15  16
ATOM     16  C   UNL     1      46.574   5.544  12.843  0.00  0.00    +0.000 C 
ATOM     17  C   UNL     1      46.397   6.967  12.285  0.00  0.00    +0.000 C 
ATOM     18  N   UNL     1      45.241   6.501  11.490  0.00  0.00    +0.000 NA
ATOM     19  C   UNL     1      45.119   5.324  12.376  0.00  0.00    +0.000 C 
ATOM     24  H   UNL     1      45.481   6.251  10.529  0.00  0.00    +0.000 HD
ENDBRANCH  15  16
ENDBRANCH  12  13
ENDBRANCH  11  12
TORSDOF 4
ENDMDL
MODEL 8
REMARK VINA RESULT:    -5.872      3.314      7.117
REMARK INTER + INTRA:          -7.838
REMARK INTER:                  -7.495
REMARK INTRA:                  -0.343
REMARK UNBOUND:                -0.593
REMARK  Name = 
REMARK  4 active torsions:
REMARK  status: ('A' for Active; 'I' for Inactive)
REMARK    1  A    between atoms: C_2  and  C_4
REMARK    2  A    between atoms: N_11  and  C_12
REMARK    3  A    between atoms: C_12  and  C_13
REMARK    4  A    between atoms: N_15  and  C_16
REMARK                            x       y       z     vdW  Elec       q    Type
REMARK                         _______ _______ _______ _____ _____    ______ ____
ROOT
ATOM      4  C   UNL     1      47.667   4.320  15.968  0.00  0.00    +0.000 A 
ATOM      5  C   UNL     1      47.089   3.984  14.746  0.00  0.00    +0.000 A 
ATOM      6  N   UNL     1      46.999   4.795  13.656  0.00  0.00    +0.000 NA
ATOM      7  C   UNL     1      47.601   5.989  13.847  0.00  0.00    +0.000 A 
ATOM      8  C   UNL     1      48.246   6.431  15.001  0.00  0.00    +0.000 A 
ATOM      9  C   UNL     1      48.743   7.733  14.729  0.00  0.00    +0.000 A 
ATOM     10  C   UNL     1      48.388   8.053  13.435  0.00  0.00    +0.000 A 
ATOM     11  N   UNL     1      47.686   6.993  12.915  0.00  0.00    +0.000 N 
ATOM     20  C   UNL     1      48.275   5.569  16.109  0.00  0.00    +0.000 A 
ENDROOT
BRANCH   4   2
ATOM      1  N   UNL     1      48.818   2.955  17.616  0.00  0.00    +0.000 N 
ATOM      2  C   UNL     1      47.621   3.336  17.069  0.00  0.00    +0.000 C 
ATOM      3  O   UNL     1      46.562   2.903  17.499  0.00  0.00    +0.000 OA
ATOM     21  H   UNL     1      48.773   2.363  18.436  0.00  0.00    +0.000 HD
ATOM     22  H   UNL     1      49.679   3.458  17.455  0.00  0.00    +0.000 HD
ENDBRANCH   4   2
BRANCH  11  12
ATOM     12  C   UNL     1      47.171   6.914  11.562  0.00  0.00    +0.000 C 
BRANCH  12  13
ATOM     13  C   UNL     1      45.720   6.495  11.521  0.00  0.00    +0.000 C 
ATOM     14  O   UNL     1      44.810   7.299  11.727  0.00  0.00    +0.000 OA
ATOM     15  N   UNL     1      45.479   5.179  11.182  0.00  0.00    +0.000 N 
ATOM     23  H   UNL     1      46.282   4.570  11.031  0.00  0.00    +0.000 HD
BRANCH  15  16
ATOM     16  C   UNL     1      44.097   4.691  10.970  0.00  0.00    +0.000 C 
ATOM     17  C   UNL     1      43.362   4.147  12.209  0.00  0.00    +0.000 C 
ATOM     18  N   UNL     1      42.927   2.973  11.422  0.00  0.00    +0.000 NA
ATOM     19  C   UNL     1      44.001   3.244  10.443  0.00  0.00    +0.000 C 
ATOM     24  H   UNL     1      41.992   3.073  11.023  0.00  0.00    +0.000 HD
ENDBRANCH  15  16
ENDBRANCH  12  13
ENDBRANCH  11  12
TORSDOF 4
ENDMDL
MODEL 9
REMARK VINA RESULT:    -5.584      4.066      6.000
REMARK INTER + INTRA:          -7.483
REMARK INTER:                  -7.234
REMARK INTRA:                  -0.249
REMARK UNBOUND:                -0.593
REMARK  Name = 
REMARK  4 active torsions:
REMARK  status: ('A' for Active; 'I' for Inactive)
REMARK    1  A    between atoms: C_2  and  C_4
REMARK    2  A    between atoms: N_11  and  C_12
REMARK    3  A    between atoms: C_12  and  C_13
REMARK    4  A    between atoms: N_15  and  C_16
REMARK                            x       y       z     vdW  Elec       q    Type
REMARK                         _______ _______ _______ _____ _____    ______ ____
ROOT
ATOM      4  C   UNL     1      45.089   4.470  11.397  0.00  0.00    +0.000 A 
ATOM      5  C   UNL     1      45.181   3.606  12.486  0.00  0.00    +0.000 A 
ATOM      6  N   UNL     1      45.969   3.785  13.582  0.00  0.00    +0.000 NA
ATOM      7  C   UNL     1      46.639   4.957  13.554  0.00  0.00    +0.000 A 
ATOM      8  C   UNL     1      46.603   5.922  12.548  0.00  0.00    +0.000 A 
ATOM      9  C   UNL     1      47.444   6.989  12.963  0.00  0.00    +0.000 A 
ATOM     10  C   UNL     1      47.972   6.650  14.191  0.00  0.00    +0.000 A 
ATOM     11  N   UNL     1      47.486   5.412  14.534  0.00  0.00    +0.000 N 
ATOM     20  C   UNL     1      45.804   5.669  11.422  0.00  0.00    +0.000 A 
ENDROOT
BRANCH   4   2
ATOM      1  N   UNL     1      44.425   4.753   9.078  0.00  0.00    +0.000 N 
ATOM      2  C   UNL     1      44.229   4.088  10.259  0.00  0.00    +0.000 C 
ATOM      3  O   UNL     1      43.400   3.195  10.353  0.00  0.00    +0.000 OA
ATOM     21  H   UNL     1      43.907   4.415   8.276  0.00  0.00    +0.000 HD
ATOM     22  H   UNL     1      45.243   5.317   8.896  0.00  0.00    +0.000 HD
ENDBRANCH   4   2
BRANCH  11  12
ATOM     12  C   UNL     1      47.768   4.716  15.773  0.00  0.00    +0.000 C 
BRANCH  12  13
ATOM     13  C   UNL     1      48.598   5.545  16.725  0.00  0.00    +0.000 C 
ATOM     14  O   UNL     1      49.829   5.544  16.679  0.00  0.00    +0.000 OA
ATOM     15  N   UNL     1      47.894   6.342  17.605  0.00  0.00    +0.000 N 
ATOM     23  H   UNL     1      46.876   6.287  17.591  0.00  0.00    +0.000 HD
BRANCH  15  16
ATOM     16  C   UNL     1      48.596   7.303  18.486  0.00  0.00    +0.000 C 
ATOM     17  C   UNL     1      48.865   6.842  19.930  0.00  0.00    +0.000 C 
ATOM     18  N   UNL     1      48.370   8.144  20.427  0.00  0.00    +0.000 NA
ATOM     19  C   UNL     1      47.683   8.363  19.137  0.00  0.00    +0.000 C 
ATOM     24  H   UNL     1      49.113   8.823  20.602  0.00  0.00    +0.000 HD
ENDBRANCH  15  16
ENDBRANCH  12  13
ENDBRANCH  11  12
TORSDOF 4
ENDMDL
