MODEL 1
REMARK VINA RESULT:    -7.948      0.000      0.000
REMARK INTER + INTRA:         -10.311
REMARK INTER:                 -10.039
REMARK INTRA:                  -0.271
REMARK UNBOUND:                -0.271
REMARK  Name = 
REMARK  5 active torsions:
REMARK  status: ('A' for Active; 'I' for Inactive)
REMARK    1  A    between atoms: N_1  and  C_2
REMARK    2  A    between atoms: C_2  and  C_3
REMARK    3  A    between atoms: C_7  and  C_8
REMARK    4  A    between atoms: C_8  and  N_9
REMARK    5  A    between atoms: C_13  and  C_14
REMARK                            x       y       z     vdW  Elec       q    Type
REMARK                         _______ _______ _______ _____ _____    ______ ____
ROOT
ATOM      9  N   UNL     1      43.868   3.504  10.455  0.00  0.00    +0.000 N 
ATOM     10  C   UNL     1      44.781   3.231   9.423  0.00  0.00    +0.000 A 
ATOM     11  C   UNL     1      45.148   1.910   9.182  0.00  0.00    +0.000 A 
ATOM     12  C   UNL     1      46.058   1.622   8.159  0.00  0.00    +0.000 A 
ATOM     13  C   UNL     1      46.589   2.659   7.393  0.00  0.00    +0.000 A 
ATOM     17  C   UNL     1      46.189   3.944   7.716  0.00  0.00    +0.000 A 
ATOM     18  N   UNL     1      45.311   4.244   8.706  0.00  0.00    +0.000 NA
ATOM     22  H   UNL     1      43.022   2.959  10.308  0.00  0.00    +0.000 HD
ENDROOT
BRANCH  13  14
ATOM     14  C   UNL     1      47.531   2.349   6.290  0.00  0.00    +0.000 C 
ATOM     15  N   UNL     1      47.489   3.097   5.147  0.00  0.00    +0.000 N 
ATOM     16  O   UNL     1      48.336   1.428   6.387  0.00  0.00    +0.000 OA
ATOM     23  H   UNL     1      46.866   3.867   4.958  0.00  0.00    +0.000 HD
ATOM     24  H   UNL     1      48.140   2.840   4.415  0.00  0.00    +0.000 HD
ENDBRANCH  13  14
BRANCH   9   8
ATOM      8  C   UNL     1      43.566   4.925  10.586  0.00  0.00    +0.000 C 
BRANCH   8   7
ATOM      3  C   UNL     1      46.123   5.440  13.387  0.00  0.00    +0.000 A 
ATOM      4  C   UNL     1      46.475   6.782  13.175  0.00  0.00    +0.000 A 
ATOM      5  C   UNL     1      45.858   7.527  12.172  0.00  0.00    +0.000 A 
ATOM      6  C   UNL     1      44.893   6.937  11.356  0.00  0.00    +0.000 A 
ATOM      7  C   UNL     1      44.532   5.595  11.538  0.00  0.00    +0.000 A 
ATOM     19  C   UNL     1      45.145   4.860  12.566  0.00  0.00    +0.000 A 
BRANCH   3   2
ATOM      2  C   UNL     1      46.828   4.620  14.437  0.00  0.00    +0.000 C 
BRANCH   2   1
ATOM      1  N   UNL     1      47.192   3.297  13.942  0.00  0.00    +0.000 NA
ATOM     20  H   UNL     1      47.679   3.400  13.055  0.00  0.00    +0.000 HD
ATOM     21  H   UNL     1      46.337   2.781  13.743  0.00  0.00    +0.000 HD
ENDBRANCH   2   1
ENDBRANCH   3   2
ENDBRANCH   8   7
ENDBRANCH   9   8
TORSDOF 5
ENDMDL
MODEL 2
REMARK VINA RESULT:    -7.843      2.573      6.748
REMARK INTER + INTRA:         -10.178
REMARK INTER:                  -9.892
REMARK INTRA:                  -0.286
REMARK UNBOUND:                -0.271
REMARK  Name = 
REMARK  5 active torsions:
REMARK  status: ('A' for Active; 'I' for Inactive)
REMARK    1  A    between atoms: N_1  and  C_2
REMARK    2  A    between atoms: C_2  and  C_3
REMARK    3  A    between atoms: C_7  and  C_8
REMARK    4  A    between atoms: C_8  and  N_9
REMARK    5  A    between atoms: C_13  and  C_14
REMARK                            x       y       z     vdW  Elec       q    Type
REMARK                         _______ _______ _______ _____ _____    ______ ____
ROOT
ATOM      9  N   UNL     1      45.091   5.363   9.643  0.00  0.00    +0.000 N 
ATOM     10  C   UNL     1      45.576   5.199  10.951  0.00  0.00    +0.000 A 
ATOM     11  C   UNL     1      46.397   6.185  11.492  0.00  0.00    +0.000 A 
ATOM     12  C   UNL     1      46.890   6.036  12.793  0.00  0.00    +0.000 A 
ATOM     13  C   UNL     1      46.555   4.903  13.534  0.00  0.00    +0.000 A 
ATOM     17  C   UNL     1      45.754   3.962  12.911  0.00  0.00    +0.000 A 
ATOM     18  N   UNL     1      45.270   4.086  11.650  0.00  0.00    +0.000 NA
ATOM     22  H   UNL     1      44.609   6.255   9.572  0.00  0.00    +0.000 HD
ENDROOT
BRANCH  13  14
ATOM     14  C   UNL     1      47.055   4.761  14.923  0.00  0.00    +0.000 C 
ATOM     15  N   UNL     1      47.849   5.740  15.450  0.00  0.00    +0.000 N 
ATOM     16  O   UNL     1      46.774   3.775  15.598  0.00  0.00    +0.000 OA
ATOM     23  H   UNL     1      48.148   6.583  14.985  0.00  0.00    +0.000 HD
ATOM     24  H   UNL     1      48.178   5.594  16.397  0.00  0.00    +0.000 HD
ENDBRANCH  13  14
BRANCH   9   8
ATOM      8  C   UNL     1      44.236   4.263   9.212  0.00  0.00    +0.000 C 
BRANCH   8   7
ATOM      3  C   UNL     1      46.539   2.647   6.616  0.00  0.00    +0.000 A 
ATOM      4  C   UNL     1      46.679   1.360   7.158  0.00  0.00    +0.000 A 
ATOM      5  C   UNL     1      45.998   1.001   8.320  0.00  0.00    +0.000 A 
ATOM      6  C   UNL     1      45.182   1.929   8.966  0.00  0.00    +0.000 A 
ATOM      7  C   UNL     1      45.034   3.225   8.454  0.00  0.00    +0.000 A 
ATOM     19  C   UNL     1      45.708   3.569   7.271  0.00  0.00    +0.000 A 
BRANCH   3   2
ATOM      2  C   UNL     1      47.316   3.051   5.390  0.00  0.00    +0.000 C 
BRANCH   2   1
ATOM      1  N   UNL     1      48.453   2.169   5.150  0.00  0.00    +0.000 NA
ATOM     20  H   UNL     1      48.812   2.342   4.214  0.00  0.00    +0.000 HD
ATOM     21  H   UNL     1      48.121   1.206   5.158  0.00  0.00    +0.000 HD
ENDBRANCH   2   1
ENDBRANCH   3   2
ENDBRANCH   8   7
ENDBRANCH   9   8
TORSDOF 5
ENDMDL
MODEL 3
REMARK VINA RESULT:    -7.489      1.632      2.371
REMARK INTER + INTRA:          -9.730
REMARK INTER:                  -9.548
REMARK INTRA:                  -0.182
REMARK UNBOUND:                -0.271
REMARK  Name = 
REMARK  5 active torsions:
REMARK  status: ('A' for Active; 'I' for Inactive)
REMARK    1  A    between atoms: N_1  and  C_2
REMARK    2  A    between atoms: C_2  and  C_3
REMARK    3  A    between atoms: C_7  and  C_8
REMARK    4  A    between atoms: C_8  and  N_9
REMARK    5  A    between atoms: C_13  and  C_14
REMARK                            x       y       z     vdW  Elec       q    Type
REMARK                         _______ _______ _______ _____ _____    ______ ____
ROOT
ATOM      9  N   UNL     1      43.955   3.620  10.400  0.00  0.00    +0.000 N 
ATOM     10  C   UNL     1      44.850   3.321   9.360  0.00  0.00    +0.000 A 
ATOM     11  C   UNL     1      45.228   1.996   9.157  0.00  0.00    +0.000 A 
ATOM     12  C   UNL     1      46.120   1.682   8.127  0.00  0.00    +0.000 A 
ATOM     13  C   UNL     1      46.624   2.697   7.314  0.00  0.00    +0.000 A 
ATOM     17  C   UNL     1      46.216   3.988   7.601  0.00  0.00    +0.000 A 
ATOM     18  N   UNL     1      45.355   4.313   8.597  0.00  0.00    +0.000 NA
ATOM     22  H   UNL     1      43.113   3.062  10.290  0.00  0.00    +0.000 HD
ENDROOT
BRANCH  13  14
ATOM     14  C   UNL     1      47.547   2.359   6.204  0.00  0.00    +0.000 C 
ATOM     15  N   UNL     1      47.520   3.109   5.062  0.00  0.00    +0.000 N 
ATOM     16  O   UNL     1      48.323   1.412   6.294  0.00  0.00    +0.000 OA
ATOM     23  H   UNL     1      46.920   3.898   4.879  0.00  0.00    +0.000 HD
ATOM     24  H   UNL     1      48.158   2.832   4.325  0.00  0.00    +0.000 HD
ENDBRANCH  13  14
BRANCH   9   8
ATOM      8  C   UNL     1      43.641   5.042  10.488  0.00  0.00    +0.000 C 
BRANCH   8   7
ATOM      3  C   UNL     1      45.584   7.845  12.224  0.00  0.00    +0.000 A 
ATOM      4  C   UNL     1      46.312   7.109  13.171  0.00  0.00    +0.000 A 
ATOM      5  C   UNL     1      46.216   5.719  13.217  0.00  0.00    +0.000 A 
ATOM      6  C   UNL     1      45.377   5.047  12.327  0.00  0.00    +0.000 A 
ATOM      7  C   UNL     1      44.630   5.759  11.379  0.00  0.00    +0.000 A 
ATOM     19  C   UNL     1      44.751   7.157  11.329  0.00  0.00    +0.000 A 
BRANCH   3   2
ATOM      2  C   UNL     1      45.648   9.351  12.210  0.00  0.00    +0.000 C 
BRANCH   2   1
ATOM      1  N   UNL     1      44.373   9.955  12.581  0.00  0.00    +0.000 NA
ATOM     20  H   UNL     1      43.723   9.217  12.841  0.00  0.00    +0.000 HD
ATOM     21  H   UNL     1      43.980  10.407  11.757  0.00  0.00    +0.000 HD
ENDBRANCH   2   1
ENDBRANCH   3   2
ENDBRANCH   8   7
ENDBRANCH   9   8
TORSDOF 5
ENDMDL
MODEL 4
REMARK VINA RESULT:    -7.449      2.644      6.642
REMARK INTER + INTRA:          -9.680
REMARK INTER:                  -9.294
REMARK INTRA:                  -0.386
REMARK UNBOUND:                -0.271
REMARK  Name = 
REMARK  5 active torsions:
REMARK  status: ('A' for Active; 'I' for Inactive)
REMARK    1  A    between atoms: N_1  and  C_2
REMARK    2  A    between atoms: C_2  and  C_3
REMARK    3  A    between atoms: C_7  and  C_8
REMARK    4  A    between atoms: C_8  and  N_9
REMARK    5  A    between atoms: C_13  and  C_14
REMARK                            x       y       z     vdW  Elec       q    Type
REMARK                         _______ _______ _______ _____ _____    ______ ____
ROOT
ATOM      9  N   UNL     1      44.211   4.118  10.607  0.00  0.00    +0.000 N 
ATOM     10  C   UNL     1      45.112   4.845  11.402  0.00  0.00    +0.000 A 
ATOM     11  C   UNL     1      45.103   4.648  12.780  0.00  0.00    +0.000 A 
ATOM     12  C   UNL     1      45.992   5.366  13.586  0.00  0.00    +0.000 A 
ATOM     13  C   UNL     1      46.877   6.273  13.004  0.00  0.00    +0.000 A 
ATOM     17  C   UNL     1      46.802   6.425  11.630  0.00  0.00    +0.000 A 
ATOM     18  N   UNL     1      45.944   5.742  10.832  0.00  0.00    +0.000 NA
ATOM     22  H   UNL     1      44.330   3.125  10.787  0.00  0.00    +0.000 HD
ENDROOT
BRANCH  13  14
ATOM     14  C   UNL     1      47.839   7.012  13.857  0.00  0.00    +0.000 C 
ATOM     15  N   UNL     1      47.458   8.198  14.418  0.00  0.00    +0.000 N 
ATOM     16  O   UNL     1      48.970   6.579  14.055  0.00  0.00    +0.000 OA
ATOM     23  H   UNL     1      46.562   8.648  14.315  0.00  0.00    +0.000 HD
ATOM     24  H   UNL     1      48.152   8.675  14.981  0.00  0.00    +0.000 HD
ENDBRANCH  13  14
BRANCH   9   8
ATOM      8  C   UNL     1      44.340   4.416   9.185  0.00  0.00    +0.000 C 
BRANCH   8   7
ATOM      3  C   UNL     1      46.544   2.582   6.649  0.00  0.00    +0.000 A 
ATOM      4  C   UNL     1      46.617   1.312   7.240  0.00  0.00    +0.000 A 
ATOM      5  C   UNL     1      45.923   1.034   8.417  0.00  0.00    +0.000 A 
ATOM      6  C   UNL     1      45.160   2.028   9.028  0.00  0.00    +0.000 A 
ATOM      7  C   UNL     1      45.078   3.309   8.466  0.00  0.00    +0.000 A 
ATOM     19  C   UNL     1      45.765   3.571   7.269  0.00  0.00    +0.000 A 
BRANCH   3   2
ATOM      2  C   UNL     1      47.336   2.896   5.406  0.00  0.00    +0.000 C 
BRANCH   2   1
ATOM      1  N   UNL     1      48.461   1.984   5.232  0.00  0.00    +0.000 NA
ATOM     20  H   UNL     1      49.325   2.521   5.246  0.00  0.00    +0.000 HD
ATOM     21  H   UNL     1      48.397   1.567   4.305  0.00  0.00    +0.000 HD
ENDBRANCH   2   1
ENDBRANCH   3   2
ENDBRANCH   8   7
ENDBRANCH   9   8
TORSDOF 5
ENDMDL
MODEL 5
REMARK VINA RESULT:    -6.916      3.166      6.419
REMARK INTER + INTRA:          -9.007
REMARK INTER:                  -8.995
REMARK INTRA:                  -0.012
REMARK UNBOUND:                -0.271
REMARK  Name = 
REMARK  5 active torsions:
REMARK  status: ('A' for Active; 'I' for Inactive)
REMARK    1  A    between atoms: N_1  and  C_2
REMARK    2  A    between atoms: C_2  and  C_3
REMARK    3  A    between atoms: C_7  and  C_8
REMARK    4  A    between atoms: C_8  and  N_9
REMARK    5  A    between atoms: C_13  and  C_14
REMARK                            x       y       z     vdW  Elec       q    Type
REMARK                         _______ _______ _______ _____ _____    ______ ____
ROOT
ATOM      9  N   UNL     1      44.883   3.024  11.532  0.00  0.00    +0.000 N 
ATOM     10  C   UNL     1      45.113   4.356  11.911  0.00  0.00    +0.000 A 
ATOM     11  C   UNL     1      45.804   4.610  13.093  0.00  0.00    +0.000 A 
ATOM     12  C   UNL     1      46.040   5.931  13.486  0.00  0.00    +0.000 A 
ATOM     13  C   UNL     1      45.580   6.982  12.692  0.00  0.00    +0.000 A 
ATOM     17  C   UNL     1      44.881   6.641  11.547  0.00  0.00    +0.000 A 
ATOM     18  N   UNL     1      44.639   5.366  11.151  0.00  0.00    +0.000 NA
ATOM     22  H   UNL     1      45.769   2.527  11.496  0.00  0.00    +0.000 HD
ENDROOT
BRANCH  13  14
ATOM     14  C   UNL     1      45.856   8.382  13.095  0.00  0.00    +0.000 C 
ATOM     15  N   UNL     1      44.951   9.357  12.780  0.00  0.00    +0.000 N 
ATOM     16  O   UNL     1      46.885   8.676  13.694  0.00  0.00    +0.000 OA
ATOM     23  H   UNL     1      44.082   9.230  12.285  0.00  0.00    +0.000 HD
ATOM     24  H   UNL     1      45.188  10.301  13.062  0.00  0.00    +0.000 HD
ENDBRANCH  13  14
BRANCH   9   8
ATOM      8  C   UNL     1      44.160   2.909  10.270  0.00  0.00    +0.000 C 
BRANCH   8   7
ATOM      3  C   UNL     1      46.626   1.726   7.592  0.00  0.00    +0.000 A 
ATOM      4  C   UNL     1      46.731   2.883   6.806  0.00  0.00    +0.000 A 
ATOM      5  C   UNL     1      46.055   4.048   7.164  0.00  0.00    +0.000 A 
ATOM      6  C   UNL     1      45.249   4.067   8.302  0.00  0.00    +0.000 A 
ATOM      7  C   UNL     1      45.116   2.921   9.098  0.00  0.00    +0.000 A 
ATOM     19  C   UNL     1      45.820   1.760   8.740  0.00  0.00    +0.000 A 
BRANCH   3   2
ATOM      2  C   UNL     1      47.316   0.452   7.177  0.00  0.00    +0.000 C 
BRANCH   2   1
ATOM      1  N   UNL     1      46.668  -0.728   7.740  0.00  0.00    +0.000 NA
ATOM     20  H   UNL     1      46.987  -0.852   8.698  0.00  0.00    +0.000 HD
ATOM     21  H   UNL     1      46.984  -1.546   7.223  0.00  0.00    +0.000 HD
ENDBRANCH   2   1
ENDBRANCH   3   2
ENDBRANCH   8   7
ENDBRANCH   9   8
TORSDOF 5
ENDMDL
MODEL 6
REMARK VINA RESULT:    -6.906      2.770      6.481
REMARK INTER + INTRA:          -8.994
REMARK INTER:                  -8.784
REMARK INTRA:                  -0.211
REMARK UNBOUND:                -0.271
REMARK  Name = 
REMARK  5 active torsions:
REMARK  status: ('A' for Active; 'I' for Inactive)
REMARK    1  A    between atoms: N_1  and  C_2
REMARK    2  A    between atoms: C_2  and  C_3
REMARK    3  A    between atoms: C_7  and  C_8
REMARK    4  A    between atoms: C_8  and  N_9
REMARK    5  A    between atoms: C_13  and  C_14
REMARK                            x       y       z     vdW  Elec       q    Type
REMARK                         _______ _______ _______ _____ _____    ______ ____
ROOT
ATOM      9  N   UNL     1      43.924   4.285  10.632  0.00  0.00    +0.000 N 
ATOM     10  C   UNL     1      44.759   4.391  11.756  0.00  0.00    +0.000 A 
ATOM     11  C   UNL     1      44.748   5.573  12.492  0.00  0.00    +0.000 A 
ATOM     12  C   UNL     1      45.575   5.697  13.613  0.00  0.00    +0.000 A 
ATOM     13  C   UNL     1      46.404   4.637  13.982  0.00  0.00    +0.000 A 
ATOM     17  C   UNL     1      46.371   3.509  13.181  0.00  0.00    +0.000 A 
ATOM     18  N   UNL     1      45.579   3.372  12.088  0.00  0.00    +0.000 NA
ATOM     22  H   UNL     1      42.965   4.480  10.906  0.00  0.00    +0.000 HD
ENDROOT
BRANCH  13  14
ATOM     14  C   UNL     1      47.260   4.759  15.187  0.00  0.00    +0.000 C 
ATOM     15  N   UNL     1      46.861   4.163  16.351  0.00  0.00    +0.000 N 
ATOM     16  O   UNL     1      48.309   5.393  15.156  0.00  0.00    +0.000 OA
ATOM     23  H   UNL     1      46.018   3.628  16.491  0.00  0.00    +0.000 HD
ATOM     24  H   UNL     1      47.469   4.285  17.151  0.00  0.00    +0.000 HD
ENDBRANCH  13  14
BRANCH   9   8
ATOM      8  C   UNL     1      44.030   2.991   9.966  0.00  0.00    +0.000 C 
BRANCH   8   7
ATOM      3  C   UNL     1      46.717   1.791   7.518  0.00  0.00    +0.000 A 
ATOM      4  C   UNL     1      47.046   2.998   6.882  0.00  0.00    +0.000 A 
ATOM      5  C   UNL     1      46.446   4.193   7.273  0.00  0.00    +0.000 A 
ATOM      6  C   UNL     1      45.494   4.197   8.293  0.00  0.00    +0.000 A 
ATOM      7  C   UNL     1      45.138   3.004   8.937  0.00  0.00    +0.000 A 
ATOM     19  C   UNL     1      45.766   1.809   8.549  0.00  0.00    +0.000 A 
BRANCH   3   2
ATOM      2  C   UNL     1      47.328   0.492   7.061  0.00  0.00    +0.000 C 
BRANCH   2   1
ATOM      1  N   UNL     1      46.741  -0.657   7.742  0.00  0.00    +0.000 NA
ATOM     20  H   UNL     1      46.463  -1.345   7.046  0.00  0.00    +0.000 HD
ATOM     21  H   UNL     1      45.885  -0.353   8.205  0.00  0.00    +0.000 HD
ENDBRANCH   2   1
ENDBRANCH   3   2
ENDBRANCH   8   7
ENDBRANCH   9   8
TORSDOF 5
ENDMDL
MODEL 7
REMARK VINA RESULT:    -6.462      3.703      6.097
REMARK INTER + INTRA:          -8.434
REMARK INTER:                  -8.121
REMARK INTRA:                  -0.313
REMARK UNBOUND:                -0.271
REMARK  Name = 
REMARK  5 active torsions:
REMARK  status: ('A' for Active; 'I' for Inactive)
REMARK    1  A    between atoms: N_1  and  C_2
REMARK    2  A    between atoms: C_2  and  C_3
REMARK    3  A    between atoms: C_7  and  C_8
REMARK    4  A    between atoms: C_8  and  N_9
REMARK    5  A    between atoms: C_13  and  C_14
REMARK                            x       y       z     vdW  Elec       q    Type
REMARK                         _______ _______ _______ _____ _____    ______ ____
ROOT
ATOM      9  N   UNL     1      47.091   5.162  15.145  0.00  0.00    +0.000 N 
ATOM     10  C   UNL     1      46.466   4.898  13.915  0.00  0.00    +0.000 A 
ATOM     11  C   UNL     1      46.352   5.927  12.984  0.00  0.00    +0.000 A 
ATOM     12  C   UNL     1      45.732   5.681  11.755  0.00  0.00    +0.000 A 
ATOM     13  C   UNL     1      45.231   4.410  11.474  0.00  0.00    +0.000 A 
ATOM     17  C   UNL     1      45.365   3.453  12.465  0.00  0.00    +0.000 A 
ATOM     18  N   UNL     1      45.959   3.673  13.664  0.00  0.00    +0.000 NA
ATOM     22  H   UNL     1      48.017   5.544  14.976  0.00  0.00    +0.000 HD
ENDROOT
BRANCH  13  14
ATOM     14  C   UNL     1      44.599   4.143  10.159  0.00  0.00    +0.000 C 
ATOM     15  N   UNL     1      45.011   4.851   9.066  0.00  0.00    +0.000 N 
ATOM     16  O   UNL     1      43.709   3.307  10.045  0.00  0.00    +0.000 OA
ATOM     23  H   UNL     1      45.724   5.564   9.048  0.00  0.00    +0.000 HD
ATOM     24  H   UNL     1      44.541   4.646   8.192  0.00  0.00    +0.000 HD
ENDBRANCH  13  14
BRANCH   9   8
ATOM      8  C   UNL     1      47.149   3.993  16.015  0.00  0.00    +0.000 C 
BRANCH   8   7
ATOM      3  C   UNL     1      50.447   2.626  17.397  0.00  0.00    +0.000 A 
ATOM      4  C   UNL     1      51.042   3.808  17.863  0.00  0.00    +0.000 A 
ATOM      5  C   UNL     1      50.368   5.024  17.779  0.00  0.00    +0.000 A 
ATOM      6  C   UNL     1      49.095   5.079  17.211  0.00  0.00    +0.000 A 
ATOM      7  C   UNL     1      48.482   3.917  16.727  0.00  0.00    +0.000 A 
ATOM     19  C   UNL     1      49.162   2.693  16.837  0.00  0.00    +0.000 A 
BRANCH   3   2
ATOM      2  C   UNL     1      51.197   1.320  17.441  0.00  0.00    +0.000 C 
BRANCH   2   1
ATOM      1  N   UNL     1      52.397   1.408  18.267  0.00  0.00    +0.000 NA
ATOM     20  H   UNL     1      52.213   0.963  19.163  0.00  0.00    +0.000 HD
ATOM     21  H   UNL     1      52.579   2.391  18.465  0.00  0.00    +0.000 HD
ENDBRANCH   2   1
ENDBRANCH   3   2
ENDBRANCH   8   7
ENDBRANCH   9   8
TORSDOF 5
ENDMDL
MODEL 8
REMARK VINA RESULT:    -6.242      4.458      8.273
REMARK INTER + INTRA:          -8.156
REMARK INTER:                  -7.878
REMARK INTRA:                  -0.278
REMARK UNBOUND:                -0.271
REMARK  Name = 
REMARK  5 active torsions:
REMARK  status: ('A' for Active; 'I' for Inactive)
REMARK    1  A    between atoms: N_1  and  C_2
REMARK    2  A    between atoms: C_2  and  C_3
REMARK    3  A    between atoms: C_7  and  C_8
REMARK    4  A    between atoms: C_8  and  N_9
REMARK    5  A    between atoms: C_13  and  C_14
REMARK                            x       y       z     vdW  Elec       q    Type
REMARK                         _______ _______ _______ _____ _____    ______ ____
ROOT
ATOM      9  N   UNL     1      46.801   4.119  14.888  0.00  0.00    +0.000 N 
ATOM     10  C   UNL     1      47.552   4.238  16.069  0.00  0.00    +0.000 A 
ATOM     11  C   UNL     1      47.384   3.287  17.072  0.00  0.00    +0.000 A 
ATOM     12  C   UNL     1      48.123   3.392  18.254  0.00  0.00    +0.000 A 
ATOM     13  C   UNL     1      49.018   4.449  18.420  0.00  0.00    +0.000 A 
ATOM     17  C   UNL     1      49.105   5.363  17.384  0.00  0.00    +0.000 A 
ATOM     18  N   UNL     1      48.394   5.280  16.232  0.00  0.00    +0.000 NA
ATOM     22  H   UNL     1      46.954   3.199  14.484  0.00  0.00    +0.000 HD
ENDROOT
BRANCH  13  14
ATOM     14  C   UNL     1      49.822   4.543  19.662  0.00  0.00    +0.000 C 
ATOM     15  N   UNL     1      49.214   4.330  20.867  0.00  0.00    +0.000 N 
ATOM     16  O   UNL     1      51.017   4.819  19.623  0.00  0.00    +0.000 OA
ATOM     23  H   UNL     1      48.242   4.107  21.017  0.00  0.00    +0.000 HD
ATOM     24  H   UNL     1      49.799   4.419  21.690  0.00  0.00    +0.000 HD
ENDBRANCH  13  14
BRANCH   9   8
ATOM      8  C   UNL     1      47.087   5.176  13.924  0.00  0.00    +0.000 C 
BRANCH   8   7
ATOM      3  C   UNL     1      44.405   4.195  11.375  0.00  0.00    +0.000 A 
ATOM      4  C   UNL     1      43.802   5.440  11.141  0.00  0.00    +0.000 A 
ATOM      5  C   UNL     1      44.286   6.592  11.759  0.00  0.00    +0.000 A 
ATOM      6  C   UNL     1      45.370   6.512  12.633  0.00  0.00    +0.000 A 
ATOM      7  C   UNL     1      45.983   5.280  12.895  0.00  0.00    +0.000 A 
ATOM     19  C   UNL     1      45.500   4.130  12.250  0.00  0.00    +0.000 A 
BRANCH   3   2
ATOM      2  C   UNL     1      43.848   2.943  10.747  0.00  0.00    +0.000 C 
BRANCH   2   1
ATOM      1  N   UNL     1      43.060   2.162  11.695  0.00  0.00    +0.000 NA
ATOM     20  H   UNL     1      43.423   1.213  11.721  0.00  0.00    +0.000 HD
ATOM     21  H   UNL     1      42.106   2.097  11.343  0.00  0.00    +0.000 HD
ENDBRANCH   2   1
ENDBRANCH   3   2
ENDBRANCH   8   7
ENDBRANCH   9   8
TORSDOF 5
ENDMDL
MODEL 9
REMARK VINA RESULT:    -6.133      3.692      5.875
REMARK INTER + INTRA:          -8.018
REMARK INTER:                  -7.741
REMARK INTRA:                  -0.277
REMARK UNBOUND:                -0.271
REMARK  Name = 
REMARK  5 active torsions:
REMARK  status: ('A' for Active; 'I' for Inactive)
REMARK    1  A    between atoms: N_1  and  C_2
REMARK    2  A    between atoms: C_2  and  C_3
REMARK    3  A    between atoms: C_7  and  C_8
REMARK    4  A    between atoms: C_8  and  N_9
REMARK    5  A    between atoms: C_13  and  C_14
REMARK                            x       y       z     vdW  Elec       q    Type
REMARK                         _______ _______ _______ _____ _____    ______ ____
ROOT
ATOM      9  N   UNL     1      47.268   5.718  14.527  0.00  0.00    +0.000 N 
ATOM     10  C   UNL     1      46.522   5.206  13.453  0.00  0.00    +0.000 A 
ATOM     11  C   UNL     1      46.226   6.043  12.381  0.00  0.00    +0.000 A 
ATOM     12  C   UNL     1      45.483   5.550  11.304  0.00  0.00    +0.000 A 
ATOM     13  C   UNL     1      45.044   4.225  11.314  0.00  0.00    +0.000 A 
ATOM     17  C   UNL     1      45.362   3.470  12.430  0.00  0.00    +0.000 A 
ATOM     18  N   UNL     1      46.078   3.932  13.485  0.00  0.00    +0.000 NA
ATOM     22  H   UNL     1      48.139   6.107  14.177  0.00  0.00    +0.000 HD
ENDROOT
BRANCH  13  14
ATOM     14  C   UNL     1      44.281   3.695  10.159  0.00  0.00    +0.000 C 
ATOM     15  N   UNL     1      43.975   4.531   9.122  0.00  0.00    +0.000 N 
ATOM     16  O   UNL     1      43.913   2.525  10.127  0.00  0.00    +0.000 OA
ATOM     23  H   UNL     1      44.218   5.507   9.047  0.00  0.00    +0.000 HD
ATOM     24  H   UNL     1      43.440   4.129   8.361  0.00  0.00    +0.000 HD
ENDBRANCH  13  14
BRANCH   9   8
ATOM      8  C   UNL     1      47.513   4.728  15.571  0.00  0.00    +0.000 C 
BRANCH   8   7
ATOM      3  C   UNL     1      48.792   5.516  19.092  0.00  0.00    +0.000 A 
ATOM      4  C   UNL     1      49.943   6.259  18.790  0.00  0.00    +0.000 A 
ATOM      5  C   UNL     1      50.276   6.547  17.467  0.00  0.00    +0.000 A 
ATOM      6  C   UNL     1      49.473   6.080  16.428  0.00  0.00    +0.000 A 
ATOM      7  C   UNL     1      48.324   5.325  16.700  0.00  0.00    +0.000 A 
ATOM     19  C   UNL     1      47.987   5.060  18.037  0.00  0.00    +0.000 A 
BRANCH   3   2
ATOM      2  C   UNL     1      48.461   5.161  20.519  0.00  0.00    +0.000 C 
BRANCH   2   1
ATOM      1  N   UNL     1      48.315   3.721  20.703  0.00  0.00    +0.000 NA
ATOM     20  H   UNL     1      48.206   3.283  19.792  0.00  0.00    +0.000 HD
ATOM     21  H   UNL     1      47.450   3.549  21.212  0.00  0.00    +0.000 HD
ENDBRANCH   2   1
ENDBRANCH   3   2
ENDBRANCH   8   7
ENDBRANCH   9   8
TORSDOF 5
ENDMDL
