MODEL 1
REMARK VINA RESULT:    -7.099      0.000      0.000
REMARK INTER + INTRA:         -16.470
REMARK INTER:                 -12.908
REMARK INTRA:                  -3.562
REMARK UNBOUND:                -3.562
REMARK  Name = 
REMARK  15 active torsions:
REMARK  status: ('A' for Active; 'I' for Inactive)
REMARK    1  A    between atoms: C_1  and  C_2
REMARK    2  A    between atoms: C_2  and  C_3
REMARK    3  A    between atoms: C_3  and  C_4
REMARK    4  A    between atoms: C_4  and  C_5
REMARK    5  A    between atoms: C_5  and  C_6
REMARK    6  A    between atoms: C_6  and  C_7
REMARK    7  A    between atoms: C_7  and  C_8
REMARK    8  A    between atoms: C_8  and  N_9
REMARK    9  A    between atoms: N_9  and  C_10
REMARK   10  A    between atoms: N_9  and  C_17
REMARK   11  A    between atoms: C_10  and  C_11
REMARK   12  A    between atoms: C_17  and  C_18
REMARK   13  A    between atoms: C_21  and  C_22
REMARK   14  A    between atoms: C_22  and  N_23
REMARK   15  A    between atoms: C_24  and  C_26
REMARK                            x       y       z     vdW  Elec       q    Type
REMARK                         _______ _______ _______ _____ _____    ______ ____
ROOT
ATOM     18  C   UNL     1      45.118   6.551  11.142  0.00  0.00    +0.000 A 
ATOM     19  C   UNL     1      46.497   6.374  10.960  0.00  0.00    +0.000 A 
ATOM     20  C   UNL     1      47.416   7.112  11.713  0.00  0.00    +0.000 A 
ATOM     21  C   UNL     1      46.974   8.049  12.657  0.00  0.00    +0.000 A 
ATOM     36  C   UNL     1      45.599   8.296  12.766  0.00  0.00    +0.000 A 
ATOM     37  C   UNL     1      44.680   7.550  12.023  0.00  0.00    +0.000 A 
ENDROOT
BRANCH  18  17
ATOM     17  C   UNL     1      44.126   5.623  10.456  0.00  0.00    +0.000 C 
BRANCH  17   9
ATOM      9  N   UNL     1      44.659   4.246  10.244  0.00  0.00    +0.000 NA
BRANCH   9   8
ATOM      8  C   UNL     1      43.860   3.293  11.060  0.00  0.00    +0.000 C 
BRANCH   8   7
ATOM      7  C   UNL     1      44.210   3.118  12.546  0.00  0.00    +0.000 C 
BRANCH   7   6
ATOM      6  C   UNL     1      45.683   3.301  12.916  0.00  0.00    +0.000 C 
BRANCH   6   5
ATOM      5  C   UNL     1      45.794   4.491  13.881  0.00  0.00    +0.000 C 
BRANCH   5   4
ATOM      4  C   UNL     1      47.196   4.678  14.449  0.00  0.00    +0.000 C 
BRANCH   4   3
ATOM      3  C   UNL     1      47.193   4.486  15.969  0.00  0.00    +0.000 C 
BRANCH   3   2
ATOM      1  C   UNL     1      47.598   2.790  17.795  0.00  0.00    +0.000 C 
ATOM      2  C   UNL     1      47.884   3.180  16.354  0.00  0.00    +0.000 C 
ENDBRANCH   3   2
ENDBRANCH   4   3
ENDBRANCH   5   4
ENDBRANCH   6   5
ENDBRANCH   7   6
ENDBRANCH   8   7
ENDBRANCH   9   8
BRANCH   9  10
ATOM     10  C   UNL     1      44.578   3.884   8.812  0.00  0.00    +0.000 C 
BRANCH  10  11
ATOM     11  C   UNL     1      45.713   3.065   8.215  0.00  0.00    +0.000 A 
ATOM     12  C   UNL     1      45.837   1.684   8.415  0.00  0.00    +0.000 A 
ATOM     13  C   UNL     1      46.755   0.936   7.669  0.00  0.00    +0.000 A 
ATOM     14  C   UNL     1      47.558   1.558   6.713  0.00  0.00    +0.000 A 
ATOM     15  C   UNL     1      47.474   2.935   6.529  0.00  0.00    +0.000 A 
ATOM     16  C   UNL     1      46.560   3.682   7.275  0.00  0.00    +0.000 A 
ENDBRANCH  10  11
ENDBRANCH   9  10
ENDBRANCH  17   9
ENDBRANCH  18  17
BRANCH  21  22
ATOM     22  C   UNL     1      47.953   8.766  13.549  0.00  0.00    +0.000 C 
BRANCH  22  23
ATOM     23  N   UNL     1      48.052   8.151  14.846  0.00  0.00    +0.000 N 
ATOM     24  C   UNL     1      48.452   8.876  15.939  0.00  0.00    +0.000 C 
ATOM     25  O   UNL     1      48.694  10.078  15.874  0.00  0.00    +0.000 OA
ATOM     38  H   UNL     1      48.096   7.137  14.875  0.00  0.00    +0.000 HD
BRANCH  24  26
ATOM     26  C   UNL     1      48.519   8.153  17.214  0.00  0.00    +0.000 A 
ATOM     27  C   UNL     1      47.780   8.604  18.300  0.00  0.00    +0.000 A 
ATOM     28  S   UNL     1      47.938   7.625  19.687  0.00  0.00    +0.000 S 
ATOM     29  C   UNL     1      49.040   6.595  18.900  0.00  0.00    +0.000 A 
ATOM     30  N   UNL     1      49.601   5.542  19.555  0.00  0.00    +0.000 NA
ATOM     31  C   UNL     1      50.445   4.868  18.853  0.00  0.00    +0.000 A 
ATOM     32  N   UNL     1      50.777   5.142  17.551  0.00  0.00    +0.000 N 
ATOM     33  C   UNL     1      50.215   6.177  16.842  0.00  0.00    +0.000 A 
ATOM     34  O   UNL     1      50.501   6.372  15.664  0.00  0.00    +0.000 OA
ATOM     35  C   UNL     1      49.270   6.978  17.592  0.00  0.00    +0.000 A 
ATOM     39  H   UNL     1      51.442   4.568  17.052  0.00  0.00    +0.000 HD
ENDBRANCH  24  26
ENDBRANCH  22  23
ENDBRANCH  21  22
TORSDOF 14
ENDMDL
MODEL 2
REMARK VINA RESULT:    -6.513      1.630      2.750
REMARK INTER + INTRA:         -15.405
REMARK INTER:                 -12.345
REMARK INTRA:                  -3.060
REMARK UNBOUND:                -3.562
REMARK  Name = 
REMARK  15 active torsions:
REMARK  status: ('A' for Active; 'I' for Inactive)
REMARK    1  A    between atoms: C_1  and  C_2
REMARK    2  A    between atoms: C_2  and  C_3
REMARK    3  A    between atoms: C_3  and  C_4
REMARK    4  A    between atoms: C_4  and  C_5
REMARK    5  A    between atoms: C_5  and  C_6
REMARK    6  A    between atoms: C_6  and  C_7
REMARK    7  A    between atoms: C_7  and  C_8
REMARK    8  A    between atoms: C_8  and  N_9
REMARK    9  A    between atoms: N_9  and  C_10
REMARK   10  A    between atoms: N_9  and  C_17
REMARK   11  A    between atoms: C_10  and  C_11
REMARK   12  A    between atoms: C_17  and  C_18
REMARK   13  A    between atoms: C_21  and  C_22
REMARK   14  A    between atoms: C_22  and  N_23
REMARK   15  A    between atoms: C_24  and  C_26
REMARK                            x       y       z     vdW  Elec       q    Type
REMARK                         _______ _______ _______ _____ _____    ______ ____
ROOT
ATOM     18  C   UNL     1      45.794   6.847  11.429  0.00  0.00    +0.000 A 
ATOM     19  C   UNL     1      45.171   7.673  12.375  0.00  0.00    +0.000 A 
ATOM     20  C   UNL     1      45.932   8.431  13.271  0.00  0.00    +0.000 A 
ATOM     21  C   UNL     1      47.332   8.370  13.245  0.00  0.00    +0.000 A 
ATOM     36  C   UNL     1      47.950   7.470  12.367  0.00  0.00    +0.000 A 
ATOM     37  C   UNL     1      47.190   6.721  11.463  0.00  0.00    +0.000 A 
ENDROOT
BRANCH  18  17
ATOM     17  C   UNL     1      44.975   6.167  10.342  0.00  0.00    +0.000 C 
BRANCH  17   9
ATOM      9  N   UNL     1      45.206   4.696  10.266  0.00  0.00    +0.000 NA
BRANCH   9   8
ATOM      8  C   UNL     1      44.522   4.044  11.416  0.00  0.00    +0.000 C 
BRANCH   8   7
ATOM      7  C   UNL     1      45.378   3.386  12.508  0.00  0.00    +0.000 C 
BRANCH   7   6
ATOM      6  C   UNL     1      45.663   4.238  13.746  0.00  0.00    +0.000 C 
BRANCH   6   5
ATOM      5  C   UNL     1      47.180   4.259  13.980  0.00  0.00    +0.000 C 
BRANCH   5   4
ATOM      4  C   UNL     1      47.573   4.808  15.347  0.00  0.00    +0.000 C 
BRANCH   4   3
ATOM      3  C   UNL     1      47.197   3.817  16.454  0.00  0.00    +0.000 C 
BRANCH   3   2
ATOM      1  C   UNL     1      49.449   3.429  17.526  0.00  0.00    +0.000 C 
ATOM      2  C   UNL     1      48.327   2.821  16.701  0.00  0.00    +0.000 C 
ENDBRANCH   3   2
ENDBRANCH   4   3
ENDBRANCH   5   4
ENDBRANCH   6   5
ENDBRANCH   7   6
ENDBRANCH   8   7
ENDBRANCH   9   8
BRANCH   9  10
ATOM     10  C   UNL     1      44.679   4.162   8.990  0.00  0.00    +0.000 C 
BRANCH  10  11
ATOM     11  C   UNL     1      45.568   3.227   8.184  0.00  0.00    +0.000 A 
ATOM     12  C   UNL     1      46.505   3.690   7.251  0.00  0.00    +0.000 A 
ATOM     13  C   UNL     1      47.454   2.820   6.702  0.00  0.00    +0.000 A 
ATOM     14  C   UNL     1      47.478   1.477   7.080  0.00  0.00    +0.000 A 
ATOM     15  C   UNL     1      46.530   0.993   7.976  0.00  0.00    +0.000 A 
ATOM     16  C   UNL     1      45.582   1.861   8.523  0.00  0.00    +0.000 A 
ENDBRANCH  10  11
ENDBRANCH   9  10
ENDBRANCH  17   9
ENDBRANCH  18  17
BRANCH  21  22
ATOM     22  C   UNL     1      48.160   9.266  14.129  0.00  0.00    +0.000 C 
BRANCH  22  23
ATOM     23  N   UNL     1      47.864   9.072  15.524  0.00  0.00    +0.000 N 
ATOM     24  C   UNL     1      48.689   8.318  16.319  0.00  0.00    +0.000 C 
ATOM     25  O   UNL     1      49.729   7.820  15.896  0.00  0.00    +0.000 OA
ATOM     38  H   UNL     1      46.913   9.260  15.826  0.00  0.00    +0.000 HD
BRANCH  24  26
ATOM     26  C   UNL     1      48.296   8.184  17.726  0.00  0.00    +0.000 A 
ATOM     27  C   UNL     1      48.293   6.931  18.323  0.00  0.00    +0.000 A 
ATOM     28  S   UNL     1      47.855   6.960  19.970  0.00  0.00    +0.000 S 
ATOM     29  C   UNL     1      47.604   8.643  19.929  0.00  0.00    +0.000 A 
ATOM     30  N   UNL     1      47.177   9.313  21.034  0.00  0.00    +0.000 NA
ATOM     31  C   UNL     1      46.992  10.574  20.852  0.00  0.00    +0.000 A 
ATOM     32  N   UNL     1      47.204  11.235  19.669  0.00  0.00    +0.000 N 
ATOM     33  C   UNL     1      47.663  10.605  18.537  0.00  0.00    +0.000 A 
ATOM     34  O   UNL     1      47.883  11.231  17.504  0.00  0.00    +0.000 OA
ATOM     35  C   UNL     1      47.871   9.179  18.683  0.00  0.00    +0.000 A 
ATOM     39  H   UNL     1      47.049  12.231  19.595  0.00  0.00    +0.000 HD
ENDBRANCH  24  26
ENDBRANCH  22  23
ENDBRANCH  21  22
TORSDOF 14
ENDMDL
MODEL 3
REMARK VINA RESULT:    -6.491      1.486      2.047
REMARK INTER + INTRA:         -15.365
REMARK INTER:                 -12.246
REMARK INTRA:                  -3.119
REMARK UNBOUND:                -3.562
REMARK  Name = 
REMARK  15 active torsions:
REMARK  status: ('A' for Active; 'I' for Inactive)
REMARK    1  A    between atoms: C_1  and  C_2
REMARK    2  A    between atoms: C_2  and  C_3
REMARK    3  A    between atoms: C_3  and  C_4
REMARK    4  A    between atoms: C_4  and  C_5
REMARK    5  A    between atoms: C_5  and  C_6
REMARK    6  A    between atoms: C_6  and  C_7
REMARK    7  A    between atoms: C_7  and  C_8
REMARK    8  A    between atoms: C_8  and  N_9
REMARK    9  A    between atoms: N_9  and  C_10
REMARK   10  A    between atoms: N_9  and  C_17
REMARK   11  A    between atoms: C_10  and  C_11
REMARK   12  A    between atoms: C_17  and  C_18
REMARK   13  A    between atoms: C_21  and  C_22
REMARK   14  A    between atoms: C_22  and  N_23
REMARK   15  A    between atoms: C_24  and  C_26
REMARK                            x       y       z     vdW  Elec       q    Type
REMARK                         _______ _______ _______ _____ _____    ______ ____
ROOT
ATOM     18  C   UNL     1      45.719   6.781  11.558  0.00  0.00    +0.000 A 
ATOM     19  C   UNL     1      47.076   6.645  11.231  0.00  0.00    +0.000 A 
ATOM     20  C   UNL     1      48.057   7.323  11.962  0.00  0.00    +0.000 A 
ATOM     21  C   UNL     1      47.700   8.159  13.028  0.00  0.00    +0.000 A 
ATOM     36  C   UNL     1      46.340   8.372  13.290  0.00  0.00    +0.000 A 
ATOM     37  C   UNL     1      45.359   7.685  12.568  0.00  0.00    +0.000 A 
ENDROOT
BRANCH  18  17
ATOM     17  C   UNL     1      44.673   5.907  10.883  0.00  0.00    +0.000 C 
BRANCH  17   9
ATOM      9  N   UNL     1      45.179   4.548  10.535  0.00  0.00    +0.000 NA
BRANCH   9   8
ATOM      8  C   UNL     1      44.856   3.616  11.649  0.00  0.00    +0.000 C 
BRANCH   8   7
ATOM      7  C   UNL     1      45.121   4.071  13.092  0.00  0.00    +0.000 C 
BRANCH   7   6
ATOM      6  C   UNL     1      46.500   3.733  13.662  0.00  0.00    +0.000 C 
BRANCH   6   5
ATOM      5  C   UNL     1      46.961   4.905  14.540  0.00  0.00    +0.000 C 
BRANCH   5   4
ATOM      4  C   UNL     1      47.834   4.474  15.713  0.00  0.00    +0.000 C 
BRANCH   4   3
ATOM      3  C   UNL     1      46.969   3.950  16.865  0.00  0.00    +0.000 C 
BRANCH   3   2
ATOM      1  C   UNL     1      49.073   2.569  17.066  0.00  0.00    +0.000 C 
ATOM      2  C   UNL     1      47.663   2.798  17.586  0.00  0.00    +0.000 C 
ENDBRANCH   3   2
ENDBRANCH   4   3
ENDBRANCH   5   4
ENDBRANCH   6   5
ENDBRANCH   7   6
ENDBRANCH   8   7
ENDBRANCH   9   8
BRANCH   9  10
ATOM     10  C   UNL     1      44.553   4.078   9.279  0.00  0.00    +0.000 C 
BRANCH  10  11
ATOM     11  C   UNL     1      45.396   3.240   8.328  0.00  0.00    +0.000 A 
ATOM     12  C   UNL     1      46.143   3.801   7.284  0.00  0.00    +0.000 A 
ATOM     13  C   UNL     1      47.076   3.030   6.582  0.00  0.00    +0.000 A 
ATOM     14  C   UNL     1      47.276   1.691   6.916  0.00  0.00    +0.000 A 
ATOM     15  C   UNL     1      46.515   1.109   7.925  0.00  0.00    +0.000 A 
ATOM     16  C   UNL     1      45.582   1.877   8.624  0.00  0.00    +0.000 A 
ENDBRANCH  10  11
ENDBRANCH   9  10
ENDBRANCH  17   9
ENDBRANCH  18  17
BRANCH  21  22
ATOM     22  C   UNL     1      48.754   8.804  13.890  0.00  0.00    +0.000 C 
BRANCH  22  23
ATOM     23  N   UNL     1      49.381   7.859  14.775  0.00  0.00    +0.000 N 
ATOM     24  C   UNL     1      50.318   8.267  15.690  0.00  0.00    +0.000 C 
ATOM     25  O   UNL     1      50.626   9.448  15.827  0.00  0.00    +0.000 OA
ATOM     38  H   UNL     1      49.325   6.878  14.519  0.00  0.00    +0.000 HD
BRANCH  24  26
ATOM     26  C   UNL     1      50.894   7.223  16.545  0.00  0.00    +0.000 A 
ATOM     27  C   UNL     1      52.165   6.735  16.273  0.00  0.00    +0.000 A 
ATOM     28  S   UNL     1      52.698   5.561  17.388  0.00  0.00    +0.000 S 
ATOM     29  C   UNL     1      51.227   5.626  18.242  0.00  0.00    +0.000 A 
ATOM     30  N   UNL     1      51.009   4.824  19.319  0.00  0.00    +0.000 NA
ATOM     31  C   UNL     1      49.842   4.949  19.847  0.00  0.00    +0.000 A 
ATOM     32  N   UNL     1      48.869   5.810  19.405  0.00  0.00    +0.000 N 
ATOM     33  C   UNL     1      49.056   6.658  18.340  0.00  0.00    +0.000 A 
ATOM     34  O   UNL     1      48.182   7.447  17.994  0.00  0.00    +0.000 OA
ATOM     35  C   UNL     1      50.349   6.545  17.698  0.00  0.00    +0.000 A 
ATOM     39  H   UNL     1      47.975   5.867  19.871  0.00  0.00    +0.000 HD
ENDBRANCH  24  26
ENDBRANCH  22  23
ENDBRANCH  21  22
TORSDOF 14
ENDMDL
MODEL 4
REMARK VINA RESULT:    -6.290      2.738      6.345
REMARK INTER + INTRA:         -15.001
REMARK INTER:                 -13.096
REMARK INTRA:                  -1.905
REMARK UNBOUND:                -3.562
REMARK  Name = 
REMARK  15 active torsions:
REMARK  status: ('A' for Active; 'I' for Inactive)
REMARK    1  A    between atoms: C_1  and  C_2
REMARK    2  A    between atoms: C_2  and  C_3
REMARK    3  A    between atoms: C_3  and  C_4
REMARK    4  A    between atoms: C_4  and  C_5
REMARK    5  A    between atoms: C_5  and  C_6
REMARK    6  A    between atoms: C_6  and  C_7
REMARK    7  A    between atoms: C_7  and  C_8
REMARK    8  A    between atoms: C_8  and  N_9
REMARK    9  A    between atoms: N_9  and  C_10
REMARK   10  A    between atoms: N_9  and  C_17
REMARK   11  A    between atoms: C_10  and  C_11
REMARK   12  A    between atoms: C_17  and  C_18
REMARK   13  A    between atoms: C_21  and  C_22
REMARK   14  A    between atoms: C_22  and  N_23
REMARK   15  A    between atoms: C_24  and  C_26
REMARK                            x       y       z     vdW  Elec       q    Type
REMARK                         _______ _______ _______ _____ _____    ______ ____
ROOT
ATOM     18  C   UNL     1      47.109   5.206  14.130  0.00  0.00    +0.000 A 
ATOM     19  C   UNL     1      47.088   4.390  15.270  0.00  0.00    +0.000 A 
ATOM     20  C   UNL     1      47.841   4.725  16.400  0.00  0.00    +0.000 A 
ATOM     21  C   UNL     1      48.638   5.878  16.409  0.00  0.00    +0.000 A 
ATOM     36  C   UNL     1      48.736   6.637  15.236  0.00  0.00    +0.000 A 
ATOM     37  C   UNL     1      47.974   6.309  14.109  0.00  0.00    +0.000 A 
ENDROOT
BRANCH  18  17
ATOM     17  C   UNL     1      46.155   4.939  12.975  0.00  0.00    +0.000 C 
BRANCH  17   9
ATOM      9  N   UNL     1      46.050   6.084  12.024  0.00  0.00    +0.000 NA
BRANCH   9   8
ATOM      8  C   UNL     1      45.609   5.567  10.700  0.00  0.00    +0.000 C 
BRANCH   8   7
ATOM      7  C   UNL     1      44.176   5.032  10.556  0.00  0.00    +0.000 C 
BRANCH   7   6
ATOM      6  C   UNL     1      44.041   3.529  10.303  0.00  0.00    +0.000 C 
BRANCH   6   5
ATOM      5  C   UNL     1      44.671   3.210   8.940  0.00  0.00    +0.000 C 
BRANCH   5   4
ATOM      4  C   UNL     1      45.279   1.814   8.868  0.00  0.00    +0.000 C 
BRANCH   4   3
ATOM      3  C   UNL     1      46.462   1.789   7.895  0.00  0.00    +0.000 C 
BRANCH   3   2
ATOM      1  C   UNL     1      46.877   2.840   5.637  0.00  0.00    +0.000 C 
ATOM      2  C   UNL     1      46.537   3.089   7.097  0.00  0.00    +0.000 C 
ENDBRANCH   3   2
ENDBRANCH   4   3
ENDBRANCH   5   4
ENDBRANCH   6   5
ENDBRANCH   7   6
ENDBRANCH   8   7
ENDBRANCH   9   8
BRANCH   9  10
ATOM     10  C   UNL     1      45.081   7.081  12.531  0.00  0.00    +0.000 C 
BRANCH  10  11
ATOM     11  C   UNL     1      45.338   8.549  12.228  0.00  0.00    +0.000 A 
ATOM     12  C   UNL     1      46.548   9.185  12.535  0.00  0.00    +0.000 A 
ATOM     13  C   UNL     1      46.827  10.463  12.037  0.00  0.00    +0.000 A 
ATOM     14  C   UNL     1      45.902  11.119  11.225  0.00  0.00    +0.000 A 
ATOM     15  C   UNL     1      44.680  10.517  10.942  0.00  0.00    +0.000 A 
ATOM     16  C   UNL     1      44.400   9.243  11.440  0.00  0.00    +0.000 A 
ENDBRANCH  10  11
ENDBRANCH   9  10
ENDBRANCH  17   9
ENDBRANCH  18  17
BRANCH  21  22
ATOM     22  C   UNL     1      49.362   6.305  17.658  0.00  0.00    +0.000 C 
BRANCH  22  23
ATOM     23  N   UNL     1      50.344   5.338  18.072  0.00  0.00    +0.000 N 
ATOM     24  C   UNL     1      51.605   5.342  17.535  0.00  0.00    +0.000 C 
ATOM     25  O   UNL     1      51.967   6.189  16.722  0.00  0.00    +0.000 OA
ATOM     38  H   UNL     1      50.002   4.505  18.542  0.00  0.00    +0.000 HD
BRANCH  24  26
ATOM     26  C   UNL     1      52.529   4.314  18.027  0.00  0.00    +0.000 A 
ATOM     27  C   UNL     1      53.702   4.692  18.666  0.00  0.00    +0.000 A 
ATOM     28  S   UNL     1      54.636   3.376  19.213  0.00  0.00    +0.000 S 
ATOM     29  C   UNL     1      53.531   2.253  18.568  0.00  0.00    +0.000 A 
ATOM     30  N   UNL     1      53.758   0.915  18.664  0.00  0.00    +0.000 NA
ATOM     31  C   UNL     1      52.862   0.182  18.101  0.00  0.00    +0.000 A 
ATOM     32  N   UNL     1      51.750   0.661  17.455  0.00  0.00    +0.000 N 
ATOM     33  C   UNL     1      51.466   2.002  17.359  0.00  0.00    +0.000 A 
ATOM     34  O   UNL     1      50.441   2.398  16.811  0.00  0.00    +0.000 OA
ATOM     35  C   UNL     1      52.453   2.873  17.962  0.00  0.00    +0.000 A 
ATOM     39  H   UNL     1      51.078   0.031  17.041  0.00  0.00    +0.000 HD
ENDBRANCH  24  26
ENDBRANCH  22  23
ENDBRANCH  21  22
TORSDOF 14
ENDMDL
MODEL 5
REMARK VINA RESULT:    -6.152      2.571      4.816
REMARK INTER + INTRA:         -14.749
REMARK INTER:                 -12.391
REMARK INTRA:                  -2.358
REMARK UNBOUND:                -3.562
REMARK  Name = 
REMARK  15 active torsions:
REMARK  status: ('A' for Active; 'I' for Inactive)
REMARK    1  A    between atoms: C_1  and  C_2
REMARK    2  A    between atoms: C_2  and  C_3
REMARK    3  A    between atoms: C_3  and  C_4
REMARK    4  A    between atoms: C_4  and  C_5
REMARK    5  A    between atoms: C_5  and  C_6
REMARK    6  A    between atoms: C_6  and  C_7
REMARK    7  A    between atoms: C_7  and  C_8
REMARK    8  A    between atoms: C_8  and  N_9
REMARK    9  A    between atoms: N_9  and  C_10
REMARK   10  A    between atoms: N_9  and  C_17
REMARK   11  A    between atoms: C_10  and  C_11
REMARK   12  A    between atoms: C_17  and  C_18
REMARK   13  A    between atoms: C_21  and  C_22
REMARK   14  A    between atoms: C_22  and  N_23
REMARK   15  A    between atoms: C_24  and  C_26
REMARK                            x       y       z     vdW  Elec       q    Type
REMARK                         _______ _______ _______ _____ _____    ______ ____
ROOT
ATOM     18  C   UNL     1      47.018   5.137  13.487  0.00  0.00    +0.000 A 
ATOM     19  C   UNL     1      46.777   4.155  14.459  0.00  0.00    +0.000 A 
ATOM     20  C   UNL     1      47.250   4.314  15.766  0.00  0.00    +0.000 A 
ATOM     21  C   UNL     1      47.981   5.454  16.125  0.00  0.00    +0.000 A 
ATOM     36  C   UNL     1      48.306   6.386  15.130  0.00  0.00    +0.000 A 
ATOM     37  C   UNL     1      47.824   6.233  13.826  0.00  0.00    +0.000 A 
ENDROOT
BRANCH  18  17
ATOM     17  C   UNL     1      46.352   5.049  12.122  0.00  0.00    +0.000 C 
BRANCH  17   9
ATOM      9  N   UNL     1      44.867   5.170  12.184  0.00  0.00    +0.000 NA
BRANCH   9   8
ATOM      8  C   UNL     1      44.518   6.521  12.702  0.00  0.00    +0.000 C 
BRANCH   8   7
ATOM      7  C   UNL     1      44.961   7.756  11.903  0.00  0.00    +0.000 C 
BRANCH   7   6
ATOM      6  C   UNL     1      45.555   8.907  12.716  0.00  0.00    +0.000 C 
BRANCH   6   5
ATOM      5  C   UNL     1      45.854  10.071  11.760  0.00  0.00    +0.000 C 
BRANCH   5   4
ATOM      4  C   UNL     1      47.126  10.832  12.114  0.00  0.00    +0.000 C 
BRANCH   4   3
ATOM      3  C   UNL     1      48.174   9.885  12.708  0.00  0.00    +0.000 C 
BRANCH   3   2
ATOM      1  C   UNL     1      49.164   8.012  11.336  0.00  0.00    +0.000 C 
ATOM      2  C   UNL     1      49.213   9.495  11.660  0.00  0.00    +0.000 C 
ENDBRANCH   3   2
ENDBRANCH   4   3
ENDBRANCH   5   4
ENDBRANCH   6   5
ENDBRANCH   7   6
ENDBRANCH   8   7
ENDBRANCH   9   8
BRANCH   9  10
ATOM     10  C   UNL     1      44.282   4.973  10.839  0.00  0.00    +0.000 C 
BRANCH  10  11
ATOM     11  C   UNL     1      45.022   4.072   9.861  0.00  0.00    +0.000 A 
ATOM     12  C   UNL     1      44.917   2.675   9.892  0.00  0.00    +0.000 A 
ATOM     13  C   UNL     1      45.425   1.900   8.843  0.00  0.00    +0.000 A 
ATOM     14  C   UNL     1      46.042   2.511   7.751  0.00  0.00    +0.000 A 
ATOM     15  C   UNL     1      46.188   3.895   7.724  0.00  0.00    +0.000 A 
ATOM     16  C   UNL     1      45.683   4.669   8.771  0.00  0.00    +0.000 A 
ENDBRANCH  10  11
ENDBRANCH   9  10
ENDBRANCH  17   9
ENDBRANCH  18  17
BRANCH  21  22
ATOM     22  C   UNL     1      48.396   5.686  17.554  0.00  0.00    +0.000 C 
BRANCH  22  23
ATOM     23  N   UNL     1      49.517   4.867  17.931  0.00  0.00    +0.000 N 
ATOM     24  C   UNL     1      50.803   5.303  17.739  0.00  0.00    +0.000 C 
ATOM     25  O   UNL     1      51.055   6.417  17.287  0.00  0.00    +0.000 OA
ATOM     38  H   UNL     1      49.340   3.877  18.071  0.00  0.00    +0.000 HD
BRANCH  24  26
ATOM     26  C   UNL     1      51.872   4.391  18.160  0.00  0.00    +0.000 A 
ATOM     27  C   UNL     1      52.962   4.887  18.863  0.00  0.00    +0.000 A 
ATOM     28  S   UNL     1      54.087   3.688  19.312  0.00  0.00    +0.000 S 
ATOM     29  C   UNL     1      53.184   2.472  18.535  0.00  0.00    +0.000 A 
ATOM     30  N   UNL     1      53.620   1.184  18.513  0.00  0.00    +0.000 NA
ATOM     31  C   UNL     1      52.860   0.376  17.860  0.00  0.00    +0.000 A 
ATOM     32  N   UNL     1      51.694   0.733  17.230  0.00  0.00    +0.000 N 
ATOM     33  C   UNL     1      51.201   2.016  17.251  0.00  0.00    +0.000 A 
ATOM     34  O   UNL     1      50.133   2.296  16.713  0.00  0.00    +0.000 OA
ATOM     35  C   UNL     1      52.029   2.969  17.959  0.00  0.00    +0.000 A 
ATOM     39  H   UNL     1      51.136   0.047  16.741  0.00  0.00    +0.000 HD
ENDBRANCH  24  26
ENDBRANCH  22  23
ENDBRANCH  21  22
TORSDOF 14
ENDMDL
MODEL 6
REMARK VINA RESULT:    -5.902      3.152      8.654
REMARK INTER + INTRA:         -14.295
REMARK INTER:                 -10.307
REMARK INTRA:                  -3.988
REMARK UNBOUND:                -3.562
REMARK  Name = 
REMARK  15 active torsions:
REMARK  status: ('A' for Active; 'I' for Inactive)
REMARK    1  A    between atoms: C_1  and  C_2
REMARK    2  A    between atoms: C_2  and  C_3
REMARK    3  A    between atoms: C_3  and  C_4
REMARK    4  A    between atoms: C_4  and  C_5
REMARK    5  A    between atoms: C_5  and  C_6
REMARK    6  A    between atoms: C_6  and  C_7
REMARK    7  A    between atoms: C_7  and  C_8
REMARK    8  A    between atoms: C_8  and  N_9
REMARK    9  A    between atoms: N_9  and  C_10
REMARK   10  A    between atoms: N_9  and  C_17
REMARK   11  A    between atoms: C_10  and  C_11
REMARK   12  A    between atoms: C_17  and  C_18
REMARK   13  A    between atoms: C_21  and  C_22
REMARK   14  A    between atoms: C_22  and  N_23
REMARK   15  A    between atoms: C_24  and  C_26
REMARK                            x       y       z     vdW  Elec       q    Type
REMARK                         _______ _______ _______ _____ _____    ______ ____
ROOT
ATOM     18  C   UNL     1      49.124   8.043  15.980  0.00  0.00    +0.000 A 
ATOM     19  C   UNL     1      48.407   9.130  15.459  0.00  0.00    +0.000 A 
ATOM     20  C   UNL     1      47.911   9.096  14.152  0.00  0.00    +0.000 A 
ATOM     21  C   UNL     1      48.132   7.979  13.335  0.00  0.00    +0.000 A 
ATOM     36  C   UNL     1      48.934   6.938  13.821  0.00  0.00    +0.000 A 
ATOM     37  C   UNL     1      49.419   6.966  15.132  0.00  0.00    +0.000 A 
ENDROOT
BRANCH  18  17
ATOM     17  C   UNL     1      49.504   8.006  17.453  0.00  0.00    +0.000 C 
BRANCH  17   9
ATOM      9  N   UNL     1      50.388   6.856  17.802  0.00  0.00    +0.000 NA
BRANCH   9   8
ATOM      8  C   UNL     1      51.599   7.377  18.492  0.00  0.00    +0.000 C 
BRANCH   8   7
ATOM      7  C   UNL     1      52.932   7.396  17.729  0.00  0.00    +0.000 C 
BRANCH   7   6
ATOM      6  C   UNL     1      52.984   6.573  16.441  0.00  0.00    +0.000 C 
BRANCH   6   5
ATOM      5  C   UNL     1      53.047   7.541  15.251  0.00  0.00    +0.000 C 
BRANCH   5   4
ATOM      4  C   UNL     1      52.652   8.969  15.612  0.00  0.00    +0.000 C 
BRANCH   4   3
ATOM      3  C   UNL     1      52.111   9.706  14.383  0.00  0.00    +0.000 C 
BRANCH   3   2
ATOM      1  C   UNL     1      51.229   9.304  12.052  0.00  0.00    +0.000 C 
ATOM      2  C   UNL     1      52.163   8.814  13.145  0.00  0.00    +0.000 C 
ENDBRANCH   3   2
ENDBRANCH   4   3
ENDBRANCH   5   4
ENDBRANCH   6   5
ENDBRANCH   7   6
ENDBRANCH   8   7
ENDBRANCH   9   8
BRANCH   9  10
ATOM     10  C   UNL     1      49.668   5.908  18.681  0.00  0.00    +0.000 C 
BRANCH  10  11
ATOM     11  C   UNL     1      49.251   4.566  18.098  0.00  0.00    +0.000 A 
ATOM     12  C   UNL     1      47.944   4.302  17.667  0.00  0.00    +0.000 A 
ATOM     13  C   UNL     1      47.657   3.145  16.933  0.00  0.00    +0.000 A 
ATOM     14  C   UNL     1      48.672   2.241  16.619  0.00  0.00    +0.000 A 
ATOM     15  C   UNL     1      49.967   2.471  17.072  0.00  0.00    +0.000 A 
ATOM     16  C   UNL     1      50.254   3.623  17.807  0.00  0.00    +0.000 A 
ENDBRANCH  10  11
ENDBRANCH   9  10
ENDBRANCH  17   9
ENDBRANCH  18  17
BRANCH  21  22
ATOM     22  C   UNL     1      47.508   7.888  11.967  0.00  0.00    +0.000 C 
BRANCH  22  23
ATOM     23  N   UNL     1      46.839   6.631  11.760  0.00  0.00    +0.000 N 
ATOM     24  C   UNL     1      45.471   6.562  11.712  0.00  0.00    +0.000 C 
ATOM     25  O   UNL     1      44.762   7.562  11.793  0.00  0.00    +0.000 OA
ATOM     38  H   UNL     1      47.377   5.787  11.934  0.00  0.00    +0.000 HD
BRANCH  24  26
ATOM     26  C   UNL     1      44.891   5.232  11.496  0.00  0.00    +0.000 A 
ATOM     27  C   UNL     1      44.188   4.614  12.521  0.00  0.00    +0.000 A 
ATOM     28  S   UNL     1      43.544   3.095  12.088  0.00  0.00    +0.000 S 
ATOM     29  C   UNL     1      44.228   3.189  10.532  0.00  0.00    +0.000 A 
ATOM     30  N   UNL     1      44.080   2.170   9.642  0.00  0.00    +0.000 NA
ATOM     31  C   UNL     1      44.679   2.356   8.518  0.00  0.00    +0.000 A 
ATOM     32  N   UNL     1      45.410   3.471   8.193  0.00  0.00    +0.000 N 
ATOM     33  C   UNL     1      45.562   4.535   9.050  0.00  0.00    +0.000 A 
ATOM     34  O   UNL     1      46.186   5.538   8.715  0.00  0.00    +0.000 OA
ATOM     35  C   UNL     1      44.920   4.370  10.337  0.00  0.00    +0.000 A 
ATOM     39  H   UNL     1      45.849   3.560   7.288  0.00  0.00    +0.000 HD
ENDBRANCH  24  26
ENDBRANCH  22  23
ENDBRANCH  21  22
TORSDOF 14
ENDMDL
MODEL 7
REMARK VINA RESULT:    -5.796      4.378      5.881
REMARK INTER + INTRA:         -14.101
REMARK INTER:                 -10.978
REMARK INTRA:                  -3.123
REMARK UNBOUND:                -3.562
REMARK  Name = 
REMARK  15 active torsions:
REMARK  status: ('A' for Active; 'I' for Inactive)
REMARK    1  A    between atoms: C_1  and  C_2
REMARK    2  A    between atoms: C_2  and  C_3
REMARK    3  A    between atoms: C_3  and  C_4
REMARK    4  A    between atoms: C_4  and  C_5
REMARK    5  A    between atoms: C_5  and  C_6
REMARK    6  A    between atoms: C_6  and  C_7
REMARK    7  A    between atoms: C_7  and  C_8
REMARK    8  A    between atoms: C_8  and  N_9
REMARK    9  A    between atoms: N_9  and  C_10
REMARK   10  A    between atoms: N_9  and  C_17
REMARK   11  A    between atoms: C_10  and  C_11
REMARK   12  A    between atoms: C_17  and  C_18
REMARK   13  A    between atoms: C_21  and  C_22
REMARK   14  A    between atoms: C_22  and  N_23
REMARK   15  A    between atoms: C_24  and  C_26
REMARK                            x       y       z     vdW  Elec       q    Type
REMARK                         _______ _______ _______ _____ _____    ______ ____
ROOT
ATOM     18  C   UNL     1      46.096   7.371  12.007  0.00  0.00    +0.000 A 
ATOM     19  C   UNL     1      45.992   8.525  12.795  0.00  0.00    +0.000 A 
ATOM     20  C   UNL     1      47.110   9.334  13.026  0.00  0.00    +0.000 A 
ATOM     21  C   UNL     1      48.356   8.999  12.480  0.00  0.00    +0.000 A 
ATOM     36  C   UNL     1      48.480   7.794  11.777  0.00  0.00    +0.000 A 
ATOM     37  C   UNL     1      47.361   6.991  11.536  0.00  0.00    +0.000 A 
ENDROOT
BRANCH  18  17
ATOM     17  C   UNL     1      44.849   6.595  11.609  0.00  0.00    +0.000 C 
BRANCH  17   9
ATOM      9  N   UNL     1      45.114   5.150  11.349  0.00  0.00    +0.000 NA
BRANCH   9   8
ATOM      8  C   UNL     1      44.785   4.376  12.576  0.00  0.00    +0.000 C 
BRANCH   8   7
ATOM      7  C   UNL     1      45.722   3.236  13.003  0.00  0.00    +0.000 C 
BRANCH   7   6
ATOM      6  C   UNL     1      47.082   3.656  13.565  0.00  0.00    +0.000 C 
BRANCH   6   5
ATOM      5  C   UNL     1      46.846   4.683  14.682  0.00  0.00    +0.000 C 
BRANCH   5   4
ATOM      4  C   UNL     1      47.516   4.306  15.999  0.00  0.00    +0.000 C 
BRANCH   4   3
ATOM      3  C   UNL     1      48.233   5.517  16.605  0.00  0.00    +0.000 C 
BRANCH   3   2
ATOM      1  C   UNL     1      48.855   7.886  15.994  0.00  0.00    +0.000 C 
ATOM      2  C   UNL     1      48.746   6.450  15.510  0.00  0.00    +0.000 C 
ENDBRANCH   3   2
ENDBRANCH   4   3
ENDBRANCH   5   4
ENDBRANCH   6   5
ENDBRANCH   7   6
ENDBRANCH   8   7
ENDBRANCH   9   8
BRANCH   9  10
ATOM     10  C   UNL     1      44.292   4.678  10.212  0.00  0.00    +0.000 C 
BRANCH  10  11
ATOM     11  C   UNL     1      44.965   3.824   9.148  0.00  0.00    +0.000 A 
ATOM     12  C   UNL     1      45.762   4.369   8.132  0.00  0.00    +0.000 A 
ATOM     13  C   UNL     1      46.542   3.541   7.317  0.00  0.00    +0.000 A 
ATOM     14  C   UNL     1      46.537   2.159   7.510  0.00  0.00    +0.000 A 
ATOM     15  C   UNL     1      45.723   1.599   8.489  0.00  0.00    +0.000 A 
ATOM     16  C   UNL     1      44.943   2.425   9.301  0.00  0.00    +0.000 A 
ENDBRANCH  10  11
ENDBRANCH   9  10
ENDBRANCH  17   9
ENDBRANCH  18  17
BRANCH  21  22
ATOM     22  C   UNL     1      49.537   9.921  12.630  0.00  0.00    +0.000 C 
BRANCH  22  23
ATOM     23  N   UNL     1      50.406   9.878  11.484  0.00  0.00    +0.000 N 
ATOM     24  C   UNL     1      51.764  10.005  11.625  0.00  0.00    +0.000 C 
ATOM     25  O   UNL     1      52.299  10.112  12.726  0.00  0.00    +0.000 OA
ATOM     38  H   UNL     1      49.981  10.035  10.575  0.00  0.00    +0.000 HD
BRANCH  24  26
ATOM     26  C   UNL     1      52.558   9.946  10.393  0.00  0.00    +0.000 A 
ATOM     27  C   UNL     1      53.183  11.093   9.923  0.00  0.00    +0.000 A 
ATOM     28  S   UNL     1      54.099  10.839   8.507  0.00  0.00    +0.000 S 
ATOM     29  C   UNL     1      53.649   9.199   8.445  0.00  0.00    +0.000 A 
ATOM     30  N   UNL     1      54.076   8.395   7.434  0.00  0.00    +0.000 NA
ATOM     31  C   UNL     1      53.630   7.188   7.490  0.00  0.00    +0.000 A 
ATOM     32  N   UNL     1      52.801   6.703   8.470  0.00  0.00    +0.000 N 
ATOM     33  C   UNL     1      52.368   7.471   9.525  0.00  0.00    +0.000 A 
ATOM     34  O   UNL     1      51.661   6.996  10.409  0.00  0.00    +0.000 OA
ATOM     35  C   UNL     1      52.828   8.843   9.500  0.00  0.00    +0.000 A 
ATOM     39  H   UNL     1      52.494   5.741   8.461  0.00  0.00    +0.000 HD
ENDBRANCH  24  26
ENDBRANCH  22  23
ENDBRANCH  21  22
TORSDOF 14
ENDMDL
MODEL 8
REMARK VINA RESULT:    -5.729      2.869      5.605
REMARK INTER + INTRA:         -13.979
REMARK INTER:                 -11.660
REMARK INTRA:                  -2.320
REMARK UNBOUND:                -3.562
REMARK  Name = 
REMARK  15 active torsions:
REMARK  status: ('A' for Active; 'I' for Inactive)
REMARK    1  A    between atoms: C_1  and  C_2
REMARK    2  A    between atoms: C_2  and  C_3
REMARK    3  A    between atoms: C_3  and  C_4
REMARK    4  A    between atoms: C_4  and  C_5
REMARK    5  A    between atoms: C_5  and  C_6
REMARK    6  A    between atoms: C_6  and  C_7
REMARK    7  A    between atoms: C_7  and  C_8
REMARK    8  A    between atoms: C_8  and  N_9
REMARK    9  A    between atoms: N_9  and  C_10
REMARK   10  A    between atoms: N_9  and  C_17
REMARK   11  A    between atoms: C_10  and  C_11
REMARK   12  A    between atoms: C_17  and  C_18
REMARK   13  A    between atoms: C_21  and  C_22
REMARK   14  A    between atoms: C_22  and  N_23
REMARK   15  A    between atoms: C_24  and  C_26
REMARK                            x       y       z     vdW  Elec       q    Type
REMARK                         _______ _______ _______ _____ _____    ______ ____
ROOT
ATOM     18  C   UNL     1      47.388   5.659  14.032  0.00  0.00    +0.000 A 
ATOM     19  C   UNL     1      48.153   6.193  15.078  0.00  0.00    +0.000 A 
ATOM     20  C   UNL     1      48.314   5.488  16.276  0.00  0.00    +0.000 A 
ATOM     21  C   UNL     1      47.705   4.239  16.454  0.00  0.00    +0.000 A 
ATOM     36  C   UNL     1      46.860   3.752  15.448  0.00  0.00    +0.000 A 
ATOM     37  C   UNL     1      46.708   4.451  14.245  0.00  0.00    +0.000 A 
ENDROOT
BRANCH  18  17
ATOM     17  C   UNL     1      47.364   6.339  12.671  0.00  0.00    +0.000 C 
BRANCH  17   9
ATOM      9  N   UNL     1      45.997   6.418  12.079  0.00  0.00    +0.000 NA
BRANCH   9   8
ATOM      8  C   UNL     1      45.413   7.749  12.400  0.00  0.00    +0.000 C 
BRANCH   8   7
ATOM      7  C   UNL     1      46.355   8.885  12.826  0.00  0.00    +0.000 C 
BRANCH   7   6
ATOM      6  C   UNL     1      46.283  10.167  11.993  0.00  0.00    +0.000 C 
BRANCH   6   5
ATOM      5  C   UNL     1      47.707  10.718  11.831  0.00  0.00    +0.000 C 
BRANCH   5   4
ATOM      4  C   UNL     1      48.748   9.634  11.577  0.00  0.00    +0.000 C 
BRANCH   4   3
ATOM      3  C   UNL     1      49.870   9.709  12.618  0.00  0.00    +0.000 C 
BRANCH   3   2
ATOM      1  C   UNL     1      50.529   7.653  11.310  0.00  0.00    +0.000 C 
ATOM      2  C   UNL     1      50.722   8.442  12.594  0.00  0.00    +0.000 C 
ENDBRANCH   3   2
ENDBRANCH   4   3
ENDBRANCH   5   4
ENDBRANCH   6   5
ENDBRANCH   7   6
ENDBRANCH   8   7
ENDBRANCH   9   8
BRANCH   9  10
ATOM     10  C   UNL     1      46.065   6.232  10.612  0.00  0.00    +0.000 C 
BRANCH  10  11
ATOM     11  C   UNL     1      45.406   4.997  10.016  0.00  0.00    +0.000 A 
ATOM     12  C   UNL     1      45.642   4.573   8.702  0.00  0.00    +0.000 A 
ATOM     13  C   UNL     1      45.200   3.318   8.268  0.00  0.00    +0.000 A 
ATOM     14  C   UNL     1      44.520   2.471   9.143  0.00  0.00    +0.000 A 
ATOM     15  C   UNL     1      44.244   2.893  10.440  0.00  0.00    +0.000 A 
ATOM     16  C   UNL     1      44.682   4.146  10.872  0.00  0.00    +0.000 A 
ENDBRANCH  10  11
ENDBRANCH   9  10
ENDBRANCH  17   9
ENDBRANCH  18  17
BRANCH  21  22
ATOM     22  C   UNL     1      47.964   3.424  17.694  0.00  0.00    +0.000 C 
BRANCH  22  23
ATOM     23  N   UNL     1      49.369   3.208  17.916  0.00  0.00    +0.000 N 
ATOM     24  C   UNL     1      50.068   2.302  17.161  0.00  0.00    +0.000 C 
ATOM     25  O   UNL     1      49.548   1.677  16.240  0.00  0.00    +0.000 OA
ATOM     38  H   UNL     1      49.750   3.521  18.803  0.00  0.00    +0.000 HD
BRANCH  24  26
ATOM     26  C   UNL     1      51.496   2.160  17.468  0.00  0.00    +0.000 A 
ATOM     27  C   UNL     1      52.039   0.894  17.640  0.00  0.00    +0.000 A 
ATOM     28  S   UNL     1      53.716   0.907  17.946  0.00  0.00    +0.000 S 
ATOM     29  C   UNL     1      53.764   2.608  17.912  0.00  0.00    +0.000 A 
ATOM     30  N   UNL     1      54.926   3.278  18.140  0.00  0.00    +0.000 NA
ATOM     31  C   UNL     1      54.812   4.561  18.122  0.00  0.00    +0.000 A 
ATOM     32  N   UNL     1      53.643   5.241  17.887  0.00  0.00    +0.000 N 
ATOM     33  C   UNL     1      52.453   4.604  17.624  0.00  0.00    +0.000 A 
ATOM     34  O   UNL     1      51.433   5.241  17.376  0.00  0.00    +0.000 OA
ATOM     35  C   UNL     1      52.523   3.159  17.649  0.00  0.00    +0.000 A 
ATOM     39  H   UNL     1      53.622   6.250  17.876  0.00  0.00    +0.000 HD
ENDBRANCH  24  26
ENDBRANCH  22  23
ENDBRANCH  21  22
TORSDOF 14
ENDMDL
MODEL 9
REMARK VINA RESULT:    -5.708      3.671      9.135
REMARK INTER + INTRA:         -13.941
REMARK INTER:                 -10.593
REMARK INTRA:                  -3.348
REMARK UNBOUND:                -3.562
REMARK  Name = 
REMARK  15 active torsions:
REMARK  status: ('A' for Active; 'I' for Inactive)
REMARK    1  A    between atoms: C_1  and  C_2
REMARK    2  A    between atoms: C_2  and  C_3
REMARK    3  A    between atoms: C_3  and  C_4
REMARK    4  A    between atoms: C_4  and  C_5
REMARK    5  A    between atoms: C_5  and  C_6
REMARK    6  A    between atoms: C_6  and  C_7
REMARK    7  A    between atoms: C_7  and  C_8
REMARK    8  A    between atoms: C_8  and  N_9
REMARK    9  A    between atoms: N_9  and  C_10
REMARK   10  A    between atoms: N_9  and  C_17
REMARK   11  A    between atoms: C_10  and  C_11
REMARK   12  A    between atoms: C_17  and  C_18
REMARK   13  A    between atoms: C_21  and  C_22
REMARK   14  A    between atoms: C_22  and  N_23
REMARK   15  A    between atoms: C_24  and  C_26
REMARK                            x       y       z     vdW  Elec       q    Type
REMARK                         _______ _______ _______ _____ _____    ______ ____
ROOT
ATOM     18  C   UNL     1      51.062   4.239  18.556  0.00  0.00    +0.000 A 
ATOM     19  C   UNL     1      50.875   3.223  17.607  0.00  0.00    +0.000 A 
ATOM     20  C   UNL     1      49.598   2.930  17.118  0.00  0.00    +0.000 A 
ATOM     21  C   UNL     1      48.480   3.641  17.575  0.00  0.00    +0.000 A 
ATOM     36  C   UNL     1      48.655   4.586  18.595  0.00  0.00    +0.000 A 
ATOM     37  C   UNL     1      49.933   4.888  19.076  0.00  0.00    +0.000 A 
ENDROOT
BRANCH  18  17
ATOM     17  C   UNL     1      52.465   4.676  18.950  0.00  0.00    +0.000 C 
BRANCH  17   9
ATOM      9  N   UNL     1      53.441   4.603  17.824  0.00  0.00    +0.000 NA
BRANCH   9   8
ATOM      8  C   UNL     1      53.846   5.985  17.451  0.00  0.00    +0.000 C 
BRANCH   8   7
ATOM      7  C   UNL     1      53.016   7.166  17.976  0.00  0.00    +0.000 C 
BRANCH   7   6
ATOM      6  C   UNL     1      52.220   7.948  16.929  0.00  0.00    +0.000 C 
BRANCH   6   5
ATOM      5  C   UNL     1      51.636   6.949  15.920  0.00  0.00    +0.000 C 
BRANCH   5   4
ATOM      4  C   UNL     1      50.114   6.880  15.952  0.00  0.00    +0.000 C 
BRANCH   4   3
ATOM      3  C   UNL     1      49.549   7.874  16.971  0.00  0.00    +0.000 C 
BRANCH   3   2
ATOM      1  C   UNL     1      47.926   9.776  17.319  0.00  0.00    +0.000 C 
ATOM      2  C   UNL     1      48.494   8.772  16.330  0.00  0.00    +0.000 C 
ENDBRANCH   3   2
ENDBRANCH   4   3
ENDBRANCH   5   4
ENDBRANCH   6   5
ENDBRANCH   7   6
ENDBRANCH   8   7
ENDBRANCH   9   8
BRANCH   9  10
ATOM     10  C   UNL     1      54.627   3.815  18.228  0.00  0.00    +0.000 C 
BRANCH  10  11
ATOM     11  C   UNL     1      54.765   2.400  17.686  0.00  0.00    +0.000 A 
ATOM     12  C   UNL     1      53.900   1.361  18.053  0.00  0.00    +0.000 A 
ATOM     13  C   UNL     1      53.919   0.143  17.365  0.00  0.00    +0.000 A 
ATOM     14  C   UNL     1      54.800  -0.051  16.301  0.00  0.00    +0.000 A 
ATOM     15  C   UNL     1      55.693   0.957  15.950  0.00  0.00    +0.000 A 
ATOM     16  C   UNL     1      55.676   2.172  16.637  0.00  0.00    +0.000 A 
ENDBRANCH  10  11
ENDBRANCH   9  10
ENDBRANCH  17   9
ENDBRANCH  18  17
BRANCH  21  22
ATOM     22  C   UNL     1      47.119   3.409  16.973  0.00  0.00    +0.000 C 
BRANCH  22  23
ATOM     23  N   UNL     1      46.798   4.389  15.969  0.00  0.00    +0.000 N 
ATOM     24  C   UNL     1      46.981   4.117  14.638  0.00  0.00    +0.000 C 
ATOM     25  O   UNL     1      47.375   3.024  14.241  0.00  0.00    +0.000 OA
ATOM     38  H   UNL     1      46.709   5.353  16.276  0.00  0.00    +0.000 HD
BRANCH  24  26
ATOM     26  C   UNL     1      46.621   5.185  13.698  0.00  0.00    +0.000 A 
ATOM     27  C   UNL     1      47.534   6.193  13.420  0.00  0.00    +0.000 A 
ATOM     28  S   UNL     1      46.973   7.325  12.276  0.00  0.00    +0.000 S 
ATOM     29  C   UNL     1      45.469   6.537  12.152  0.00  0.00    +0.000 A 
ATOM     30  N   UNL     1      44.489   7.025  11.344  0.00  0.00    +0.000 NA
ATOM     31  C   UNL     1      43.391   6.352  11.375  0.00  0.00    +0.000 A 
ATOM     32  N   UNL     1      43.181   5.228  12.133  0.00  0.00    +0.000 N 
ATOM     33  C   UNL     1      44.152   4.685  12.941  0.00  0.00    +0.000 A 
ATOM     34  O   UNL     1      43.947   3.653  13.575  0.00  0.00    +0.000 OA
ATOM     35  C   UNL     1      45.402   5.414  12.956  0.00  0.00    +0.000 A 
ATOM     39  H   UNL     1      42.298   4.740  12.105  0.00  0.00    +0.000 HD
ENDBRANCH  24  26
ENDBRANCH  22  23
ENDBRANCH  21  22
TORSDOF 14
ENDMDL
