MODEL 1
REMARK VINA RESULT:    -6.852      0.000      0.000
REMARK INTER + INTRA:          -9.307
REMARK INTER:                  -8.454
REMARK INTRA:                  -0.853
REMARK UNBOUND:                -0.853
REMARK  Name = 
REMARK  4 active torsions:
REMARK  status: ('A' for Active; 'I' for Inactive)
REMARK    1  A    between atoms: C_2  and  C_4
REMARK    2  A    between atoms: C_11  and  C_12
REMARK    3  A    between atoms: N_15  and  C_16
REMARK    4  A    between atoms: C_16  and  C_17
REMARK                            x       y       z     vdW  Elec       q    Type
REMARK                         _______ _______ _______ _____ _____    ______ ____
ROOT
ATOM      4  C   UNL     1      45.344   5.049  11.582  0.00  0.00    +0.000 A 
ATOM      5  C   UNL     1      44.976   4.180  12.605  0.00  0.00    +0.000 A 
ATOM      6  N   UNL     1      45.566   4.090  13.831  0.00  0.00    +0.000 NA
ATOM      7  C   UNL     1      46.574   4.975  14.000  0.00  0.00    +0.000 A 
ATOM      8  C   UNL     1      47.019   5.900  13.060  0.00  0.00    +0.000 A 
ATOM      9  C   UNL     1      46.382   5.953  11.811  0.00  0.00    +0.000 A 
ATOM     10  C   UNL     1      48.089   6.608  13.643  0.00  0.00    +0.000 A 
ATOM     11  C   UNL     1      48.282   6.119  14.920  0.00  0.00    +0.000 A 
ATOM     15  N   UNL     1      47.354   5.115  15.134  0.00  0.00    +0.000 N 
ENDROOT
BRANCH   4   2
ATOM      1  N   UNL     1      45.380   5.160   9.157  0.00  0.00    +0.000 N 
ATOM      2  C   UNL     1      44.631   5.006  10.291  0.00  0.00    +0.000 C 
ATOM      3  O   UNL     1      43.423   4.807  10.233  0.00  0.00    +0.000 OA
ATOM     25  H   UNL     1      44.899   5.048   8.272  0.00  0.00    +0.000 HD
ATOM     26  H   UNL     1      46.390   5.116   9.150  0.00  0.00    +0.000 HD
ENDBRANCH   4   2
BRANCH  11  12
ATOM     12  C   UNL     1      49.321   6.657  15.901  0.00  0.00    +0.000 C 
ATOM     13  C   UNL     1      48.832   7.612  16.980  0.00  0.00    +0.000 C 
ATOM     14  C   UNL     1      49.677   8.130  15.871  0.00  0.00    +0.000 C 
ENDBRANCH  11  12
BRANCH  15  16
ATOM     16  C   UNL     1      47.267   4.218  16.288  0.00  0.00    +0.000 C 
BRANCH  16  17
ATOM     17  C   UNL     1      48.341   3.143  16.350  0.00  0.00    +0.000 C 
ATOM     18  O   UNL     1      48.499   2.322  15.445  0.00  0.00    +0.000 OA
ATOM     19  N   UNL     1      49.145   3.106  17.492  0.00  0.00    +0.000 N 
ATOM     20  C   UNL     1      49.044   3.971  18.675  0.00  0.00    +0.000 C 
ATOM     21  C   UNL     1      50.372   4.714  18.946  0.00  0.00    +0.000 C 
ATOM     22  N   UNL     1      51.559   3.835  18.962  0.00  0.00    +0.000 NA
ATOM     23  C   UNL     1      51.597   3.027  17.724  0.00  0.00    +0.000 C 
ATOM     24  C   UNL     1      50.307   2.213  17.513  0.00  0.00    +0.000 C 
ATOM     27  H   UNL     1      51.490   3.199  19.756  0.00  0.00    +0.000 HD
ENDBRANCH  16  17
ENDBRANCH  15  16
TORSDOF 4
ENDMDL
MODEL 2
REMARK VINA RESULT:    -6.818      5.486      7.347
REMARK INTER + INTRA:          -9.265
REMARK INTER:                  -8.965
REMARK INTRA:                  -0.300
REMARK UNBOUND:                -0.853
REMARK  Name = 
REMARK  4 active torsions:
REMARK  status: ('A' for Active; 'I' for Inactive)
REMARK    1  A    between atoms: C_2  and  C_4
REMARK    2  A    between atoms: C_11  and  C_12
REMARK    3  A    between atoms: N_15  and  C_16
REMARK    4  A    between atoms: C_16  and  C_17
REMARK                            x       y       z     vdW  Elec       q    Type
REMARK                         _______ _______ _______ _____ _____    ______ ____
ROOT
ATOM      4  C   UNL     1      46.588   2.725   7.370  0.00  0.00    +0.000 A 
ATOM      5  C   UNL     1      46.888   4.082   7.458  0.00  0.00    +0.000 A 
ATOM      6  N   UNL     1      46.335   4.970   8.333  0.00  0.00    +0.000 NA
ATOM      7  C   UNL     1      45.445   4.398   9.176  0.00  0.00    +0.000 A 
ATOM      8  C   UNL     1      45.079   3.056   9.195  0.00  0.00    +0.000 A 
ATOM      9  C   UNL     1      45.673   2.181   8.272  0.00  0.00    +0.000 A 
ATOM     10  C   UNL     1      44.121   2.898  10.216  0.00  0.00    +0.000 A 
ATOM     11  C   UNL     1      43.919   4.128  10.809  0.00  0.00    +0.000 A 
ATOM     15  N   UNL     1      44.729   5.047  10.166  0.00  0.00    +0.000 N 
ENDROOT
BRANCH   4   2
ATOM      1  N   UNL     1      47.975   2.541   5.386  0.00  0.00    +0.000 N 
ATOM      2  C   UNL     1      47.244   1.894   6.343  0.00  0.00    +0.000 C 
ATOM      3  O   UNL     1      47.166   0.670   6.365  0.00  0.00    +0.000 OA
ATOM     25  H   UNL     1      48.488   1.961   4.732  0.00  0.00    +0.000 HD
ATOM     26  H   UNL     1      48.234   3.515   5.452  0.00  0.00    +0.000 HD
ENDBRANCH   4   2
BRANCH  11  12
ATOM     12  C   UNL     1      42.986   4.370  11.994  0.00  0.00    +0.000 C 
ATOM     13  C   UNL     1      43.533   5.187  13.156  0.00  0.00    +0.000 C 
ATOM     14  C   UNL     1      43.301   3.727  13.330  0.00  0.00    +0.000 C 
ENDBRANCH  11  12
BRANCH  15  16
ATOM     16  C   UNL     1      44.751   6.498  10.357  0.00  0.00    +0.000 C 
BRANCH  16  17
ATOM     17  C   UNL     1      45.737   6.996  11.403  0.00  0.00    +0.000 C 
ATOM     18  O   UNL     1      46.694   6.315  11.777  0.00  0.00    +0.000 OA
ATOM     19  N   UNL     1      45.511   8.263  11.945  0.00  0.00    +0.000 N 
ATOM     20  C   UNL     1      44.392   9.168  11.649  0.00  0.00    +0.000 C 
ATOM     21  C   UNL     1      44.893  10.539  11.141  0.00  0.00    +0.000 C 
ATOM     22  N   UNL     1      45.931  11.152  11.993  0.00  0.00    +0.000 NA
ATOM     23  C   UNL     1      47.029  10.186  12.212  0.00  0.00    +0.000 C 
ATOM     24  C   UNL     1      46.533   8.857  12.811  0.00  0.00    +0.000 C 
ATOM     27  H   UNL     1      45.523  11.382  12.899  0.00  0.00    +0.000 HD
ENDBRANCH  16  17
ENDBRANCH  15  16
TORSDOF 4
ENDMDL
MODEL 3
REMARK VINA RESULT:    -6.565      2.253      6.905
REMARK INTER + INTRA:          -8.953
REMARK INTER:                  -8.190
REMARK INTRA:                  -0.762
REMARK UNBOUND:                -0.853
REMARK  Name = 
REMARK  4 active torsions:
REMARK  status: ('A' for Active; 'I' for Inactive)
REMARK    1  A    between atoms: C_2  and  C_4
REMARK    2  A    between atoms: C_11  and  C_12
REMARK    3  A    between atoms: N_15  and  C_16
REMARK    4  A    between atoms: C_16  and  C_17
REMARK                            x       y       z     vdW  Elec       q    Type
REMARK                         _______ _______ _______ _____ _____    ______ ____
ROOT
ATOM      4  C   UNL     1      48.485   4.997  17.512  0.00  0.00    +0.000 A 
ATOM      5  C   UNL     1      47.708   4.285  16.604  0.00  0.00    +0.000 A 
ATOM      6  N   UNL     1      47.461   4.637  15.310  0.00  0.00    +0.000 NA
ATOM      7  C   UNL     1      48.086   5.781  14.945  0.00  0.00    +0.000 A 
ATOM      8  C   UNL     1      48.898   6.566  15.756  0.00  0.00    +0.000 A 
ATOM      9  C   UNL     1      49.120   6.164  17.083  0.00  0.00    +0.000 A 
ATOM     10  C   UNL     1      49.328   7.663  14.983  0.00  0.00    +0.000 A 
ATOM     11  C   UNL     1      48.786   7.535  13.720  0.00  0.00    +0.000 A 
ATOM     15  N   UNL     1      48.021   6.382  13.701  0.00  0.00    +0.000 N 
ENDROOT
BRANCH   4   2
ATOM      1  N   UNL     1      48.317   3.198  19.134  0.00  0.00    +0.000 N 
ATOM      2  C   UNL     1      48.631   4.507  18.896  0.00  0.00    +0.000 C 
ATOM      3  O   UNL     1      49.050   5.234  19.791  0.00  0.00    +0.000 OA
ATOM     25  H   UNL     1      48.496   2.846  20.067  0.00  0.00    +0.000 HD
ATOM     26  H   UNL     1      48.173   2.521  18.398  0.00  0.00    +0.000 HD
ENDBRANCH   4   2
BRANCH  11  12
ATOM     12  C   UNL     1      49.051   8.501  12.566  0.00  0.00    +0.000 C 
ATOM     13  C   UNL     1      49.997   8.033  11.469  0.00  0.00    +0.000 C 
ATOM     14  C   UNL     1      50.432   9.104  12.407  0.00  0.00    +0.000 C 
ENDBRANCH  11  12
BRANCH  15  16
ATOM     16  C   UNL     1      47.149   5.912  12.623  0.00  0.00    +0.000 C 
BRANCH  16  17
ATOM     17  C   UNL     1      45.678   6.262  12.786  0.00  0.00    +0.000 C 
ATOM     18  O   UNL     1      45.295   7.420  12.958  0.00  0.00    +0.000 OA
ATOM     19  N   UNL     1      44.761   5.208  12.750  0.00  0.00    +0.000 N 
ATOM     20  C   UNL     1      45.061   3.776  12.612  0.00  0.00    +0.000 C 
ATOM     21  C   UNL     1      44.341   3.164  11.389  0.00  0.00    +0.000 C 
ATOM     22  N   UNL     1      42.897   3.469  11.327  0.00  0.00    +0.000 NA
ATOM     23  C   UNL     1      42.691   4.929  11.442  0.00  0.00    +0.000 C 
ATOM     24  C   UNL     1      43.328   5.515  12.715  0.00  0.00    +0.000 C 
ATOM     27  H   UNL     1      42.430   3.018  12.113  0.00  0.00    +0.000 HD
ENDBRANCH  16  17
ENDBRANCH  15  16
TORSDOF 4
ENDMDL
MODEL 4
REMARK VINA RESULT:    -6.290      2.496      3.436
REMARK INTER + INTRA:          -8.614
REMARK INTER:                  -7.717
REMARK INTRA:                  -0.897
REMARK UNBOUND:                -0.853
REMARK  Name = 
REMARK  4 active torsions:
REMARK  status: ('A' for Active; 'I' for Inactive)
REMARK    1  A    between atoms: C_2  and  C_4
REMARK    2  A    between atoms: C_11  and  C_12
REMARK    3  A    between atoms: N_15  and  C_16
REMARK    4  A    between atoms: C_16  and  C_17
REMARK                            x       y       z     vdW  Elec       q    Type
REMARK                         _______ _______ _______ _____ _____    ______ ____
ROOT
ATOM      4  C   UNL     1      45.656   4.287  12.561  0.00  0.00    +0.000 A 
ATOM      5  C   UNL     1      46.364   4.086  13.742  0.00  0.00    +0.000 A 
ATOM      6  N   UNL     1      47.326   4.909  14.250  0.00  0.00    +0.000 NA
ATOM      7  C   UNL     1      47.534   6.011  13.493  0.00  0.00    +0.000 A 
ATOM      8  C   UNL     1      46.877   6.327  12.308  0.00  0.00    +0.000 A 
ATOM      9  C   UNL     1      45.897   5.447  11.823  0.00  0.00    +0.000 A 
ATOM     10  C   UNL     1      47.407   7.549  11.849  0.00  0.00    +0.000 A 
ATOM     11  C   UNL     1      48.366   7.967  12.750  0.00  0.00    +0.000 A 
ATOM     15  N   UNL     1      48.444   7.019  13.756  0.00  0.00    +0.000 N 
ENDROOT
BRANCH   4   2
ATOM      1  N   UNL     1      44.827   2.757  10.869  0.00  0.00    +0.000 N 
ATOM      2  C   UNL     1      44.667   3.285  12.120  0.00  0.00    +0.000 C 
ATOM      3  O   UNL     1      43.759   2.916  12.856  0.00  0.00    +0.000 OA
ATOM     25  H   UNL     1      44.193   2.011  10.603  0.00  0.00    +0.000 HD
ATOM     26  H   UNL     1      45.667   2.876  10.321  0.00  0.00    +0.000 HD
ENDBRANCH   4   2
BRANCH  11  12
ATOM     12  C   UNL     1      49.143   9.276  12.636  0.00  0.00    +0.000 C 
ATOM     13  C   UNL     1      48.571  10.492  13.351  0.00  0.00    +0.000 C 
ATOM     14  C   UNL     1      48.540  10.433  11.864  0.00  0.00    +0.000 C 
ENDBRANCH  11  12
BRANCH  15  16
ATOM     16  C   UNL     1      49.413   6.965  14.852  0.00  0.00    +0.000 C 
BRANCH  16  17
ATOM     17  C   UNL     1      48.885   7.425  16.202  0.00  0.00    +0.000 C 
ATOM     18  O   UNL     1      48.444   8.561  16.380  0.00  0.00    +0.000 OA
ATOM     19  N   UNL     1      48.930   6.507  17.254  0.00  0.00    +0.000 N 
ATOM     20  C   UNL     1      49.476   5.143  17.217  0.00  0.00    +0.000 C 
ATOM     21  C   UNL     1      48.415   4.099  17.635  0.00  0.00    +0.000 C 
ATOM     22  N   UNL     1      47.723   4.420  18.900  0.00  0.00    +0.000 NA
ATOM     23  C   UNL     1      47.181   5.794  18.836  0.00  0.00    +0.000 C 
ATOM     24  C   UNL     1      48.265   6.840  18.516  0.00  0.00    +0.000 C 
ATOM     27  H   UNL     1      48.396   4.377  19.665  0.00  0.00    +0.000 HD
ENDBRANCH  16  17
ENDBRANCH  15  16
TORSDOF 4
ENDMDL
MODEL 5
REMARK VINA RESULT:    -6.172      2.172      6.758
REMARK INTER + INTRA:          -8.469
REMARK INTER:                  -7.865
REMARK INTRA:                  -0.603
REMARK UNBOUND:                -0.853
REMARK  Name = 
REMARK  4 active torsions:
REMARK  status: ('A' for Active; 'I' for Inactive)
REMARK    1  A    between atoms: C_2  and  C_4
REMARK    2  A    between atoms: C_11  and  C_12
REMARK    3  A    between atoms: N_15  and  C_16
REMARK    4  A    between atoms: C_16  and  C_17
REMARK                            x       y       z     vdW  Elec       q    Type
REMARK                         _______ _______ _______ _____ _____    ______ ____
ROOT
ATOM      4  C   UNL     1      47.637   4.313  15.724  0.00  0.00    +0.000 A 
ATOM      5  C   UNL     1      46.583   3.966  14.885  0.00  0.00    +0.000 A 
ATOM      6  N   UNL     1      46.068   4.735  13.883  0.00  0.00    +0.000 NA
ATOM      7  C   UNL     1      46.713   5.915  13.737  0.00  0.00    +0.000 A 
ATOM      8  C   UNL     1      47.786   6.363  14.502  0.00  0.00    +0.000 A 
ATOM      9  C   UNL     1      48.278   5.537  15.524  0.00  0.00    +0.000 A 
ATOM     10  C   UNL     1      48.137   7.641  14.022  0.00  0.00    +0.000 A 
ATOM     11  C   UNL     1      47.290   7.955  12.979  0.00  0.00    +0.000 A 
ATOM     15  N   UNL     1      46.415   6.896  12.809  0.00  0.00    +0.000 N 
ENDROOT
BRANCH   4   2
ATOM      1  N   UNL     1      47.084   2.873  17.598  0.00  0.00    +0.000 N 
ATOM      2  C   UNL     1      48.061   3.388  16.792  0.00  0.00    +0.000 C 
ATOM      3  O   UNL     1      49.236   3.067  16.932  0.00  0.00    +0.000 OA
ATOM     25  H   UNL     1      47.371   2.176  18.277  0.00  0.00    +0.000 HD
ATOM     26  H   UNL     1      46.098   2.945  17.388  0.00  0.00    +0.000 HD
ENDBRANCH   4   2
BRANCH  11  12
ATOM     12  C   UNL     1      47.374   9.240  12.157  0.00  0.00    +0.000 C 
ATOM     13  C   UNL     1      48.715   9.572  11.518  0.00  0.00    +0.000 C 
ATOM     14  C   UNL     1      48.225  10.388  12.662  0.00  0.00    +0.000 C 
ENDBRANCH  11  12
BRANCH  15  16
ATOM     16  C   UNL     1      45.255   6.837  11.917  0.00  0.00    +0.000 C 
BRANCH  16  17
ATOM     17  C   UNL     1      45.438   5.971  10.680  0.00  0.00    +0.000 C 
ATOM     18  O   UNL     1      46.353   6.159   9.878  0.00  0.00    +0.000 OA
ATOM     19  N   UNL     1      44.510   4.947  10.473  0.00  0.00    +0.000 N 
ATOM     20  C   UNL     1      43.337   4.632  11.300  0.00  0.00    +0.000 C 
ATOM     21  C   UNL     1      43.379   3.173  11.807  0.00  0.00    +0.000 C 
ATOM     22  N   UNL     1      43.633   2.176  10.747  0.00  0.00    +0.000 NA
ATOM     23  C   UNL     1      44.845   2.554   9.988  0.00  0.00    +0.000 C 
ATOM     24  C   UNL     1      44.753   3.975   9.403  0.00  0.00    +0.000 C 
ATOM     27  H   UNL     1      42.842   2.169  10.103  0.00  0.00    +0.000 HD
ENDBRANCH  16  17
ENDBRANCH  15  16
TORSDOF 4
ENDMDL
MODEL 6
REMARK VINA RESULT:    -6.128      2.768      4.588
REMARK INTER + INTRA:          -8.414
REMARK INTER:                  -7.655
REMARK INTRA:                  -0.759
REMARK UNBOUND:                -0.853
REMARK  Name = 
REMARK  4 active torsions:
REMARK  status: ('A' for Active; 'I' for Inactive)
REMARK    1  A    between atoms: C_2  and  C_4
REMARK    2  A    between atoms: C_11  and  C_12
REMARK    3  A    between atoms: N_15  and  C_16
REMARK    4  A    between atoms: C_16  and  C_17
REMARK                            x       y       z     vdW  Elec       q    Type
REMARK                         _______ _______ _______ _____ _____    ______ ____
ROOT
ATOM      4  C   UNL     1      49.739   8.126  12.161  0.00  0.00    +0.000 A 
ATOM      5  C   UNL     1      49.900   7.592  13.435  0.00  0.00    +0.000 A 
ATOM      6  N   UNL     1      49.031   6.753  14.069  0.00  0.00    +0.000 NA
ATOM      7  C   UNL     1      47.953   6.439  13.313  0.00  0.00    +0.000 A 
ATOM      8  C   UNL     1      47.694   6.896  12.025  0.00  0.00    +0.000 A 
ATOM      9  C   UNL     1      48.616   7.760  11.416  0.00  0.00    +0.000 A 
ATOM     10  C   UNL     1      46.466   6.334  11.621  0.00  0.00    +0.000 A 
ATOM     11  C   UNL     1      45.996   5.545  12.651  0.00  0.00    +0.000 A 
ATOM     15  N   UNL     1      46.909   5.614  13.689  0.00  0.00    +0.000 N 
ENDROOT
BRANCH   4   2
ATOM      1  N   UNL     1      50.565  10.388  11.851  0.00  0.00    +0.000 N 
ATOM      2  C   UNL     1      50.751   9.054  11.620  0.00  0.00    +0.000 C 
ATOM      3  O   UNL     1      51.738   8.644  11.019  0.00  0.00    +0.000 OA
ATOM     25  H   UNL     1      51.304  11.013  11.548  0.00  0.00    +0.000 HD
ATOM     26  H   UNL     1      49.889  10.747  12.511  0.00  0.00    +0.000 HD
ENDBRANCH   4   2
BRANCH  11  12
ATOM     12  C   UNL     1      44.711   4.722  12.589  0.00  0.00    +0.000 C 
ATOM     13  C   UNL     1      44.832   3.272  12.142  0.00  0.00    +0.000 C 
ATOM     14  C   UNL     1      44.186   4.266  11.242  0.00  0.00    +0.000 C 
ENDBRANCH  11  12
BRANCH  15  16
ATOM     16  C   UNL     1      46.767   5.054  15.035  0.00  0.00    +0.000 C 
BRANCH  16  17
ATOM     17  C   UNL     1      47.458   3.716  15.252  0.00  0.00    +0.000 C 
ATOM     18  O   UNL     1      47.608   2.901  14.340  0.00  0.00    +0.000 OA
ATOM     19  N   UNL     1      47.912   3.432  16.542  0.00  0.00    +0.000 N 
ATOM     20  C   UNL     1      47.759   4.268  17.740  0.00  0.00    +0.000 C 
ATOM     21  C   UNL     1      49.129   4.597  18.377  0.00  0.00    +0.000 C 
ATOM     22  N   UNL     1      49.989   3.416  18.592  0.00  0.00    +0.000 NA
ATOM     23  C   UNL     1      50.112   2.653  17.332  0.00  0.00    +0.000 C 
ATOM     24  C   UNL     1      48.744   2.244  16.756  0.00  0.00    +0.000 C 
ATOM     27  H   UNL     1      49.555   2.813  19.290  0.00  0.00    +0.000 HD
ENDBRANCH  16  17
ENDBRANCH  15  16
TORSDOF 4
ENDMDL
MODEL 7
REMARK VINA RESULT:    -5.579      2.172      7.064
REMARK INTER + INTRA:          -7.736
REMARK INTER:                  -6.930
REMARK INTRA:                  -0.806
REMARK UNBOUND:                -0.853
REMARK  Name = 
REMARK  4 active torsions:
REMARK  status: ('A' for Active; 'I' for Inactive)
REMARK    1  A    between atoms: C_2  and  C_4
REMARK    2  A    between atoms: C_11  and  C_12
REMARK    3  A    between atoms: N_15  and  C_16
REMARK    4  A    between atoms: C_16  and  C_17
REMARK                            x       y       z     vdW  Elec       q    Type
REMARK                         _______ _______ _______ _____ _____    ______ ____
ROOT
ATOM      4  C   UNL     1      51.049   5.617  17.525  0.00  0.00    +0.000 A 
ATOM      5  C   UNL     1      50.016   4.685  17.570  0.00  0.00    +0.000 A 
ATOM      6  N   UNL     1      48.907   4.679  16.776  0.00  0.00    +0.000 NA
ATOM      7  C   UNL     1      48.897   5.686  15.872  0.00  0.00    +0.000 A 
ATOM      8  C   UNL     1      49.877   6.663  15.722  0.00  0.00    +0.000 A 
ATOM      9  C   UNL     1      50.998   6.630  16.565  0.00  0.00    +0.000 A 
ATOM     10  C   UNL     1      49.462   7.515  14.679  0.00  0.00    +0.000 A 
ATOM     11  C   UNL     1      48.252   7.053  14.203  0.00  0.00    +0.000 A 
ATOM     15  N   UNL     1      47.906   5.933  14.940  0.00  0.00    +0.000 N 
ENDROOT
BRANCH   4   2
ATOM      1  N   UNL     1      52.918   4.371  18.444  0.00  0.00    +0.000 N 
ATOM      2  C   UNL     1      52.171   5.515  18.477  0.00  0.00    +0.000 C 
ATOM      3  O   UNL     1      52.445   6.432  19.244  0.00  0.00    +0.000 OA
ATOM     25  H   UNL     1      53.736   4.340  19.042  0.00  0.00    +0.000 HD
ATOM     26  H   UNL     1      52.858   3.692  17.698  0.00  0.00    +0.000 HD
ENDBRANCH   4   2
BRANCH  11  12
ATOM     12  C   UNL     1      47.490   7.676  13.036  0.00  0.00    +0.000 C 
ATOM     13  C   UNL     1      47.744   7.100  11.650  0.00  0.00    +0.000 C 
ATOM     14  C   UNL     1      48.253   8.457  11.985  0.00  0.00    +0.000 C 
ENDBRANCH  11  12
BRANCH  15  16
ATOM     16  C   UNL     1      46.646   5.189  14.886  0.00  0.00    +0.000 C 
BRANCH  16  17
ATOM     17  C   UNL     1      46.510   4.236  13.710  0.00  0.00    +0.000 C 
ATOM     18  O   UNL     1      47.284   3.294  13.537  0.00  0.00    +0.000 OA
ATOM     19  N   UNL     1      45.469   4.474  12.808  0.00  0.00    +0.000 N 
ATOM     20  C   UNL     1      44.504   5.582  12.842  0.00  0.00    +0.000 C 
ATOM     21  C   UNL     1      43.049   5.060  12.885  0.00  0.00    +0.000 C 
ATOM     22  N   UNL     1      42.744   4.048  11.854  0.00  0.00    +0.000 NA
ATOM     23  C   UNL     1      43.744   2.960  11.913  0.00  0.00    +0.000 C 
ATOM     24  C   UNL     1      45.187   3.479  11.770  0.00  0.00    +0.000 C 
ATOM     27  H   UNL     1      42.800   4.484  10.934  0.00  0.00    +0.000 HD
ENDBRANCH  16  17
ENDBRANCH  15  16
TORSDOF 4
ENDMDL
MODEL 8
REMARK VINA RESULT:    -5.447      2.533      4.019
REMARK INTER + INTRA:          -7.574
REMARK INTER:                  -6.823
REMARK INTRA:                  -0.751
REMARK UNBOUND:                -0.853
REMARK  Name = 
REMARK  4 active torsions:
REMARK  status: ('A' for Active; 'I' for Inactive)
REMARK    1  A    between atoms: C_2  and  C_4
REMARK    2  A    between atoms: C_11  and  C_12
REMARK    3  A    between atoms: N_15  and  C_16
REMARK    4  A    between atoms: C_16  and  C_17
REMARK                            x       y       z     vdW  Elec       q    Type
REMARK                         _______ _______ _______ _____ _____    ______ ____
ROOT
ATOM      4  C   UNL     1      46.049   5.638  11.768  0.00  0.00    +0.000 A 
ATOM      5  C   UNL     1      47.027   6.624  11.868  0.00  0.00    +0.000 A 
ATOM      6  N   UNL     1      47.842   6.839  12.940  0.00  0.00    +0.000 NA
ATOM      7  C   UNL     1      47.638   5.956  13.945  0.00  0.00    +0.000 A 
ATOM      8  C   UNL     1      46.706   4.923  13.953  0.00  0.00    +0.000 A 
ATOM      9  C   UNL     1      45.887   4.744  12.827  0.00  0.00    +0.000 A 
ATOM     10  C   UNL     1      46.822   4.263  15.192  0.00  0.00    +0.000 A 
ATOM     11  C   UNL     1      47.816   4.888  15.919  0.00  0.00    +0.000 A 
ATOM     15  N   UNL     1      48.312   5.928  15.153  0.00  0.00    +0.000 N 
ENDROOT
BRANCH   4   2
ATOM      1  N   UNL     1      43.895   5.879  10.675  0.00  0.00    +0.000 N 
ATOM      2  C   UNL     1      45.217   5.551  10.553  0.00  0.00    +0.000 C 
ATOM      3  O   UNL     1      45.696   5.232   9.470  0.00  0.00    +0.000 OA
ATOM     25  H   UNL     1      43.347   5.896   9.822  0.00  0.00    +0.000 HD
ATOM     26  H   UNL     1      43.512   6.341  11.488  0.00  0.00    +0.000 HD
ENDBRANCH   4   2
BRANCH  11  12
ATOM     12  C   UNL     1      48.282   4.441  17.303  0.00  0.00    +0.000 C 
ATOM     13  C   UNL     1      49.382   3.391  17.364  0.00  0.00    +0.000 C 
ATOM     14  C   UNL     1      47.995   3.025  17.761  0.00  0.00    +0.000 C 
ENDBRANCH  11  12
BRANCH  15  16
ATOM     16  C   UNL     1      49.277   6.951  15.562  0.00  0.00    +0.000 C 
BRANCH  16  17
ATOM     17  C   UNL     1      48.673   8.174  16.234  0.00  0.00    +0.000 C 
ATOM     18  O   UNL     1      47.974   8.980  15.619  0.00  0.00    +0.000 OA
ATOM     19  N   UNL     1      48.954   8.364  17.589  0.00  0.00    +0.000 N 
ATOM     20  C   UNL     1      49.812   7.531  18.442  0.00  0.00    +0.000 C 
ATOM     21  C   UNL     1      49.041   7.002  19.673  0.00  0.00    +0.000 C 
ATOM     22  N   UNL     1      48.311   8.046  20.418  0.00  0.00    +0.000 NA
ATOM     23  C   UNL     1      47.452   8.813  19.490  0.00  0.00    +0.000 C 
ATOM     24  C   UNL     1      48.246   9.420  18.319  0.00  0.00    +0.000 C 
ATOM     27  H   UNL     1      48.985   8.689  20.834  0.00  0.00    +0.000 HD
ENDBRANCH  16  17
ENDBRANCH  15  16
TORSDOF 4
ENDMDL
MODEL 9
REMARK VINA RESULT:    -5.388      2.643      4.716
REMARK INTER + INTRA:          -7.501
REMARK INTER:                  -6.611
REMARK INTRA:                  -0.889
REMARK UNBOUND:                -0.853
REMARK  Name = 
REMARK  4 active torsions:
REMARK  status: ('A' for Active; 'I' for Inactive)
REMARK    1  A    between atoms: C_2  and  C_4
REMARK    2  A    between atoms: C_11  and  C_12
REMARK    3  A    between atoms: N_15  and  C_16
REMARK    4  A    between atoms: C_16  and  C_17
REMARK                            x       y       z     vdW  Elec       q    Type
REMARK                         _______ _______ _______ _____ _____    ______ ____
ROOT
ATOM      4  C   UNL     1      45.798   5.049  11.956  0.00  0.00    +0.000 A 
ATOM      5  C   UNL     1      46.453   6.277  11.965  0.00  0.00    +0.000 A 
ATOM      6  N   UNL     1      47.230   6.763  12.975  0.00  0.00    +0.000 NA
ATOM      7  C   UNL     1      47.346   5.905  14.014  0.00  0.00    +0.000 A 
ATOM      8  C   UNL     1      46.754   4.649  14.110  0.00  0.00    +0.000 A 
ATOM      9  C   UNL     1      45.961   4.193  13.046  0.00  0.00    +0.000 A 
ATOM     10  C   UNL     1      47.126   4.106  15.356  0.00  0.00    +0.000 A 
ATOM     11  C   UNL     1      47.936   5.020  15.999  0.00  0.00    +0.000 A 
ATOM     15  N   UNL     1      48.066   6.124  15.175  0.00  0.00    +0.000 N 
ENDROOT
BRANCH   4   2
ATOM      1  N   UNL     1      45.252   5.254   9.599  0.00  0.00    +0.000 N 
ATOM      2  C   UNL     1      44.959   4.673  10.802  0.00  0.00    +0.000 C 
ATOM      3  O   UNL     1      44.058   3.848  10.907  0.00  0.00    +0.000 OA
ATOM     25  H   UNL     1      44.726   4.931   8.795  0.00  0.00    +0.000 HD
ATOM     26  H   UNL     1      46.104   5.769   9.426  0.00  0.00    +0.000 HD
ENDBRANCH   4   2
BRANCH  11  12
ATOM     12  C   UNL     1      48.587   4.787  17.360  0.00  0.00    +0.000 C 
ATOM     13  C   UNL     1      49.847   3.934  17.393  0.00  0.00    +0.000 C 
ATOM     14  C   UNL     1      48.581   3.394  17.957  0.00  0.00    +0.000 C 
ENDBRANCH  11  12
BRANCH  15  16
ATOM     16  C   UNL     1      48.716   7.398  15.492  0.00  0.00    +0.000 C 
BRANCH  16  17
ATOM     17  C   UNL     1      50.169   7.505  15.057  0.00  0.00    +0.000 C 
ATOM     18  O   UNL     1      51.043   6.761  15.504  0.00  0.00    +0.000 OA
ATOM     19  N   UNL     1      50.488   8.500  14.131  0.00  0.00    +0.000 N 
ATOM     20  C   UNL     1      49.578   9.498  13.551  0.00  0.00    +0.000 C 
ATOM     21  C   UNL     1      49.566   9.421  12.007  0.00  0.00    +0.000 C 
ATOM     22  N   UNL     1      50.909   9.429  11.395  0.00  0.00    +0.000 NA
ATOM     23  C   UNL     1      51.745   8.378  12.014  0.00  0.00    +0.000 C 
ATOM     24  C   UNL     1      51.832   8.521  13.545  0.00  0.00    +0.000 C 
ATOM     27  H   UNL     1      51.349  10.332  11.573  0.00  0.00    +0.000 HD
ENDBRANCH  16  17
ENDBRANCH  15  16
TORSDOF 4
ENDMDL
