MODEL 1
REMARK VINA RESULT:    -8.633      0.000      0.000
REMARK INTER + INTRA:         -12.950
REMARK INTER:                 -11.661
REMARK INTRA:                  -1.289
REMARK UNBOUND:                -1.289
REMARK  Name = 
REMARK  6 active torsions:
REMARK  status: ('A' for Active; 'I' for Inactive)
REMARK    1  A    between atoms: C_2  and  C_19
REMARK    2  A    between atoms: N_3  and  C_4
REMARK    3  A    between atoms: C_4  and  C_5
REMARK    4  A    between atoms: C_8  and  C_9
REMARK    5  A    between atoms: C_9  and  N_10
REMARK    6  A    between atoms: N_10  and  C_11
REMARK                            x       y       z     vdW  Elec       q    Type
REMARK                         _______ _______ _______ _____ _____    ______ ____
ROOT
ATOM      4  C   UNL     1      46.832   7.957  13.262  0.00  0.00    +0.000 C 
ENDROOT
BRANCH   4   5
ATOM      5  C   UNL     1      46.114   6.978  12.372  0.00  0.00    +0.000 A 
ATOM      6  C   UNL     1      46.603   6.698  11.089  0.00  0.00    +0.000 A 
ATOM      7  C   UNL     1      45.959   5.768  10.270  0.00  0.00    +0.000 A 
ATOM      8  C   UNL     1      44.806   5.107  10.713  0.00  0.00    +0.000 A 
ATOM     17  C   UNL     1      44.301   5.411  11.986  0.00  0.00    +0.000 A 
ATOM     18  C   UNL     1      44.943   6.344  12.804  0.00  0.00    +0.000 A 
BRANCH   8   9
ATOM      9  C   UNL     1      44.098   4.106   9.829  0.00  0.00    +0.000 C 
BRANCH   9  10
ATOM     10  N   UNL     1      44.374   4.339   8.411  0.00  0.00    +0.000 NA
ATOM     30  H   UNL     1      44.954   5.173   8.320  0.00  0.00    +0.000 HD
BRANCH  10  11
ATOM     11  C   UNL     1      45.017   3.197   7.743  0.00  0.00    +0.000 C 
ATOM     12  C   UNL     1      45.485   2.111   8.731  0.00  0.00    +0.000 C 
ATOM     13  C   UNL     1      46.268   0.999   8.039  0.00  0.00    +0.000 C 
ATOM     14  C   UNL     1      47.450   1.554   7.257  0.00  0.00    +0.000 C 
ATOM     15  C   UNL     1      46.996   2.603   6.250  0.00  0.00    +0.000 C 
ATOM     16  C   UNL     1      46.208   3.728   6.924  0.00  0.00    +0.000 C 
ENDBRANCH  10  11
ENDBRANCH   9  10
ENDBRANCH   8   9
ENDBRANCH   4   5
BRANCH   4   3
ATOM      1  O   UNL     1      49.366   6.780  13.541  0.00  0.00    +0.000 OA
ATOM      2  C   UNL     1      48.611   6.798  14.511  0.00  0.00    +0.000 C 
ATOM      3  N   UNL     1      47.347   7.320  14.447  0.00  0.00    +0.000 N 
ATOM     29  H   UNL     1      46.827   7.475  15.303  0.00  0.00    +0.000 HD
BRANCH   2  19
ATOM     19  C   UNL     1      49.004   6.196  15.793  0.00  0.00    +0.000 A 
ATOM     20  C   UNL     1      50.031   6.772  16.530  0.00  0.00    +0.000 A 
ATOM     21  S   UNL     1      50.368   5.953  17.986  0.00  0.00    +0.000 S 
ATOM     22  C   UNL     1      49.124   4.827  17.708  0.00  0.00    +0.000 A 
ATOM     23  N   UNL     1      48.842   3.852  18.614  0.00  0.00    +0.000 NA
ATOM     24  C   UNL     1      47.848   3.097  18.291  0.00  0.00    +0.000 A 
ATOM     25  N   UNL     1      47.116   3.214  17.138  0.00  0.00    +0.000 N 
ATOM     26  C   UNL     1      47.415   4.128  16.159  0.00  0.00    +0.000 A 
ATOM     27  O   UNL     1      46.833   4.114  15.079  0.00  0.00    +0.000 OA
ATOM     28  C   UNL     1      48.489   5.042  16.498  0.00  0.00    +0.000 A 
ATOM     31  H   UNL     1      46.372   2.566  16.933  0.00  0.00    +0.000 HD
ENDBRANCH   2  19
ENDBRANCH   4   3
TORSDOF 6
ENDMDL
MODEL 2
REMARK VINA RESULT:    -7.921      1.623      1.985
REMARK INTER + INTRA:         -11.988
REMARK INTER:                 -10.998
REMARK INTRA:                  -0.991
REMARK UNBOUND:                -1.289
REMARK  Name = 
REMARK  6 active torsions:
REMARK  status: ('A' for Active; 'I' for Inactive)
REMARK    1  A    between atoms: C_2  and  C_19
REMARK    2  A    between atoms: N_3  and  C_4
REMARK    3  A    between atoms: C_4  and  C_5
REMARK    4  A    between atoms: C_8  and  C_9
REMARK    5  A    between atoms: C_9  and  N_10
REMARK    6  A    between atoms: N_10  and  C_11
REMARK                            x       y       z     vdW  Elec       q    Type
REMARK                         _______ _______ _______ _____ _____    ______ ____
ROOT
ATOM      4  C   UNL     1      48.186   7.357  13.549  0.00  0.00    +0.000 C 
ENDROOT
BRANCH   4   5
ATOM      5  C   UNL     1      47.212   6.479  12.810  0.00  0.00    +0.000 A 
ATOM      6  C   UNL     1      46.658   5.354  13.437  0.00  0.00    +0.000 A 
ATOM      7  C   UNL     1      45.730   4.553  12.768  0.00  0.00    +0.000 A 
ATOM      8  C   UNL     1      45.345   4.853  11.455  0.00  0.00    +0.000 A 
ATOM     17  C   UNL     1      45.924   5.962  10.820  0.00  0.00    +0.000 A 
ATOM     18  C   UNL     1      46.854   6.762  11.487  0.00  0.00    +0.000 A 
BRANCH   8   9
ATOM      9  C   UNL     1      44.348   3.986  10.722  0.00  0.00    +0.000 C 
BRANCH   9  10
ATOM     10  N   UNL     1      44.219   4.373   9.316  0.00  0.00    +0.000 NA
ATOM     30  H   UNL     1      44.655   5.285   9.184  0.00  0.00    +0.000 HD
BRANCH  10  11
ATOM     11  C   UNL     1      44.794   3.393   8.383  0.00  0.00    +0.000 C 
ATOM     12  C   UNL     1      45.301   2.120   9.087  0.00  0.00    +0.000 C 
ATOM     13  C   UNL     1      46.015   1.173   8.126  0.00  0.00    +0.000 C 
ATOM     14  C   UNL     1      47.156   1.872   7.401  0.00  0.00    +0.000 C 
ATOM     15  C   UNL     1      46.661   3.113   6.669  0.00  0.00    +0.000 C 
ATOM     16  C   UNL     1      45.942   4.076   7.616  0.00  0.00    +0.000 C 
ENDBRANCH  10  11
ENDBRANCH   9  10
ENDBRANCH   8   9
ENDBRANCH   4   5
BRANCH   4   3
ATOM      1  O   UNL     1      50.206   6.734  15.398  0.00  0.00    +0.000 OA
ATOM      2  C   UNL     1      49.074   6.970  15.814  0.00  0.00    +0.000 C 
ATOM      3  N   UNL     1      48.026   7.246  14.976  0.00  0.00    +0.000 N 
ATOM     29  H   UNL     1      47.160   7.605  15.361  0.00  0.00    +0.000 HD
BRANCH   2  19
ATOM     19  C   UNL     1      48.762   6.907  17.249  0.00  0.00    +0.000 A 
ATOM     20  C   UNL     1      48.272   8.038  17.890  0.00  0.00    +0.000 A 
ATOM     21  S   UNL     1      47.966   7.803  19.550  0.00  0.00    +0.000 S 
ATOM     22  C   UNL     1      48.433   6.169  19.463  0.00  0.00    +0.000 A 
ATOM     23  N   UNL     1      48.367   5.360  20.555  0.00  0.00    +0.000 NA
ATOM     24  C   UNL     1      48.711   4.137  20.332  0.00  0.00    +0.000 A 
ATOM     25  N   UNL     1      49.130   3.648  19.122  0.00  0.00    +0.000 N 
ATOM     26  C   UNL     1      49.290   4.444  18.015  0.00  0.00    +0.000 A 
ATOM     27  O   UNL     1      49.802   4.007  16.989  0.00  0.00    +0.000 OA
ATOM     28  C   UNL     1      48.861   5.817  18.196  0.00  0.00    +0.000 A 
ATOM     31  H   UNL     1      49.418   2.687  19.027  0.00  0.00    +0.000 HD
ENDBRANCH   2  19
ENDBRANCH   4   3
TORSDOF 6
ENDMDL
MODEL 3
REMARK VINA RESULT:    -7.904      2.254      2.640
REMARK INTER + INTRA:         -11.965
REMARK INTER:                 -10.864
REMARK INTRA:                  -1.101
REMARK UNBOUND:                -1.289
REMARK  Name = 
REMARK  6 active torsions:
REMARK  status: ('A' for Active; 'I' for Inactive)
REMARK    1  A    between atoms: C_2  and  C_19
REMARK    2  A    between atoms: N_3  and  C_4
REMARK    3  A    between atoms: C_4  and  C_5
REMARK    4  A    between atoms: C_8  and  C_9
REMARK    5  A    between atoms: C_9  and  N_10
REMARK    6  A    between atoms: N_10  and  C_11
REMARK                            x       y       z     vdW  Elec       q    Type
REMARK                         _______ _______ _______ _____ _____    ______ ____
ROOT
ATOM      4  C   UNL     1      48.005   7.069  13.741  0.00  0.00    +0.000 C 
ENDROOT
BRANCH   4   5
ATOM      5  C   UNL     1      47.031   6.279  12.908  0.00  0.00    +0.000 A 
ATOM      6  C   UNL     1      46.693   6.709  11.618  0.00  0.00    +0.000 A 
ATOM      7  C   UNL     1      45.814   5.965  10.829  0.00  0.00    +0.000 A 
ATOM      8  C   UNL     1      45.247   4.780  11.317  0.00  0.00    +0.000 A 
ATOM     17  C   UNL     1      45.565   4.368  12.620  0.00  0.00    +0.000 A 
ATOM     18  C   UNL     1      46.441   5.114  13.411  0.00  0.00    +0.000 A 
BRANCH   8   9
ATOM      9  C   UNL     1      44.289   3.973  10.472  0.00  0.00    +0.000 C 
BRANCH   9  10
ATOM     10  N   UNL     1      44.327   4.378   9.066  0.00  0.00    +0.000 NA
ATOM     30  H   UNL     1      44.831   5.262   8.991  0.00  0.00    +0.000 HD
BRANCH  10  11
ATOM     11  C   UNL     1      44.930   3.371   8.181  0.00  0.00    +0.000 C 
ATOM     12  C   UNL     1      45.412   2.119   8.939  0.00  0.00    +0.000 C 
ATOM     13  C   UNL     1      46.156   1.144   8.031  0.00  0.00    +0.000 C 
ATOM     14  C   UNL     1      47.321   1.820   7.323  0.00  0.00    +0.000 C 
ATOM     15  C   UNL     1      46.851   3.039   6.538  0.00  0.00    +0.000 C 
ATOM     16  C   UNL     1      46.103   4.030   7.432  0.00  0.00    +0.000 C 
ENDBRANCH  10  11
ENDBRANCH   9  10
ENDBRANCH   8   9
ENDBRANCH   4   5
BRANCH   4   3
ATOM      1  O   UNL     1      50.135   6.489  15.477  0.00  0.00    +0.000 OA
ATOM      2  C   UNL     1      48.992   6.505  15.926  0.00  0.00    +0.000 C 
ATOM      3  N   UNL     1      47.896   6.743  15.140  0.00  0.00    +0.000 N 
ATOM     29  H   UNL     1      46.998   6.921  15.575  0.00  0.00    +0.000 HD
BRANCH   2  19
ATOM     19  C   UNL     1      48.726   6.203  17.340  0.00  0.00    +0.000 A 
ATOM     20  C   UNL     1      48.957   4.920  17.819  0.00  0.00    +0.000 A 
ATOM     21  S   UNL     1      48.596   4.732  19.474  0.00  0.00    +0.000 S 
ATOM     22  C   UNL     1      48.161   6.370  19.623  0.00  0.00    +0.000 A 
ATOM     23  N   UNL     1      47.783   6.891  20.822  0.00  0.00    +0.000 NA
ATOM     24  C   UNL     1      47.522   8.154  20.794  0.00  0.00    +0.000 A 
ATOM     25  N   UNL     1      47.590   8.945  19.677  0.00  0.00    +0.000 N 
ATOM     26  C   UNL     1      47.886   8.447  18.432  0.00  0.00    +0.000 A 
ATOM     27  O   UNL     1      47.798   9.151  17.431  0.00  0.00    +0.000 OA
ATOM     28  C   UNL     1      48.245   7.042  18.417  0.00  0.00    +0.000 A 
ATOM     31  H   UNL     1      47.339   9.920  19.720  0.00  0.00    +0.000 HD
ENDBRANCH   2  19
ENDBRANCH   4   3
TORSDOF 6
ENDMDL
MODEL 4
REMARK VINA RESULT:    -7.617      2.177      3.752
REMARK INTER + INTRA:         -11.577
REMARK INTER:                 -10.604
REMARK INTRA:                  -0.973
REMARK UNBOUND:                -1.289
REMARK  Name = 
REMARK  6 active torsions:
REMARK  status: ('A' for Active; 'I' for Inactive)
REMARK    1  A    between atoms: C_2  and  C_19
REMARK    2  A    between atoms: N_3  and  C_4
REMARK    3  A    between atoms: C_4  and  C_5
REMARK    4  A    between atoms: C_8  and  C_9
REMARK    5  A    between atoms: C_9  and  N_10
REMARK    6  A    between atoms: N_10  and  C_11
REMARK                            x       y       z     vdW  Elec       q    Type
REMARK                         _______ _______ _______ _____ _____    ______ ____
ROOT
ATOM      4  C   UNL     1      46.843   4.748  14.650  0.00  0.00    +0.000 C 
ENDROOT
BRANCH   4   5
ATOM      5  C   UNL     1      46.133   4.625  13.329  0.00  0.00    +0.000 A 
ATOM      6  C   UNL     1      46.118   5.702  12.431  0.00  0.00    +0.000 A 
ATOM      7  C   UNL     1      45.488   5.584  11.191  0.00  0.00    +0.000 A 
ATOM      8  C   UNL     1      44.849   4.392  10.826  0.00  0.00    +0.000 A 
ATOM     17  C   UNL     1      44.839   3.326  11.738  0.00  0.00    +0.000 A 
ATOM     18  C   UNL     1      45.467   3.444  12.981  0.00  0.00    +0.000 A 
BRANCH   8   9
ATOM      9  C   UNL     1      44.157   4.260   9.489  0.00  0.00    +0.000 C 
BRANCH   9  10
ATOM     10  N   UNL     1      45.062   4.548   8.376  0.00  0.00    +0.000 NA
ATOM     30  H   UNL     1      45.872   5.056   8.731  0.00  0.00    +0.000 HD
BRANCH  10  11
ATOM     11  C   UNL     1      45.495   3.347   7.646  0.00  0.00    +0.000 C 
ATOM     12  C   UNL     1      45.869   2.181   8.580  0.00  0.00    +0.000 C 
ATOM     13  C   UNL     1      46.443   0.990   7.817  0.00  0.00    +0.000 C 
ATOM     14  C   UNL     1      47.638   1.397   6.966  0.00  0.00    +0.000 C 
ATOM     15  C   UNL     1      47.270   2.526   6.011  0.00  0.00    +0.000 C 
ATOM     16  C   UNL     1      46.693   3.730   6.757  0.00  0.00    +0.000 C 
ENDBRANCH  10  11
ENDBRANCH   9  10
ENDBRANCH   8   9
ENDBRANCH   4   5
BRANCH   4   3
ATOM      1  O   UNL     1      49.051   5.240  16.314  0.00  0.00    +0.000 OA
ATOM      2  C   UNL     1      48.662   6.134  15.566  0.00  0.00    +0.000 C 
ATOM      3  N   UNL     1      47.571   5.986  14.750  0.00  0.00    +0.000 N 
ATOM     29  H   UNL     1      47.392   6.674  14.027  0.00  0.00    +0.000 HD
BRANCH   2  19
ATOM     19  C   UNL     1      49.315   7.450  15.548  0.00  0.00    +0.000 A 
ATOM     20  C   UNL     1      49.484   8.143  16.740  0.00  0.00    +0.000 A 
ATOM     21  S   UNL     1      50.253   9.652  16.550  0.00  0.00    +0.000 S 
ATOM     22  C   UNL     1      50.430   9.415  14.874  0.00  0.00    +0.000 A 
ATOM     23  N   UNL     1      51.061  10.335  14.096  0.00  0.00    +0.000 NA
ATOM     24  C   UNL     1      51.159  10.004  12.853  0.00  0.00    +0.000 A 
ATOM     25  N   UNL     1      50.672   8.844  12.310  0.00  0.00    +0.000 N 
ATOM     26  C   UNL     1      49.958   7.925  13.039  0.00  0.00    +0.000 A 
ATOM     27  O   UNL     1      49.414   6.970  12.496  0.00  0.00    +0.000 OA
ATOM     28  C   UNL     1      49.869   8.221  14.456  0.00  0.00    +0.000 A 
ATOM     31  H   UNL     1      50.753   8.664  11.322  0.00  0.00    +0.000 HD
ENDBRANCH   2  19
ENDBRANCH   4   3
TORSDOF 6
ENDMDL
MODEL 5
REMARK VINA RESULT:    -7.495      1.864      2.696
REMARK INTER + INTRA:         -11.413
REMARK INTER:                 -10.570
REMARK INTRA:                  -0.843
REMARK UNBOUND:                -1.289
REMARK  Name = 
REMARK  6 active torsions:
REMARK  status: ('A' for Active; 'I' for Inactive)
REMARK    1  A    between atoms: C_2  and  C_19
REMARK    2  A    between atoms: N_3  and  C_4
REMARK    3  A    between atoms: C_4  and  C_5
REMARK    4  A    between atoms: C_8  and  C_9
REMARK    5  A    between atoms: C_9  and  N_10
REMARK    6  A    between atoms: N_10  and  C_11
REMARK                            x       y       z     vdW  Elec       q    Type
REMARK                         _______ _______ _______ _____ _____    ______ ____
ROOT
ATOM      4  C   UNL     1      47.473   6.901  13.574  0.00  0.00    +0.000 C 
ENDROOT
BRANCH   4   5
ATOM      5  C   UNL     1      46.582   6.054  12.705  0.00  0.00    +0.000 A 
ATOM      6  C   UNL     1      46.222   6.490  11.422  0.00  0.00    +0.000 A 
ATOM      7  C   UNL     1      45.421   5.696  10.600  0.00  0.00    +0.000 A 
ATOM      8  C   UNL     1      44.954   4.453  11.045  0.00  0.00    +0.000 A 
ATOM     17  C   UNL     1      45.291   4.031  12.341  0.00  0.00    +0.000 A 
ATOM     18  C   UNL     1      46.089   4.827  13.165  0.00  0.00    +0.000 A 
BRANCH   8   9
ATOM      9  C   UNL     1      44.080   3.591  10.164  0.00  0.00    +0.000 C 
BRANCH   9  10
ATOM     10  N   UNL     1      44.747   2.345   9.785  0.00  0.00    +0.000 NA
ATOM     30  H   UNL     1      44.052   1.699   9.410  0.00  0.00    +0.000 HD
BRANCH  10  11
ATOM     11  C   UNL     1      45.839   2.536   8.818  0.00  0.00    +0.000 C 
ATOM     12  C   UNL     1      45.479   3.527   7.695  0.00  0.00    +0.000 C 
ATOM     13  C   UNL     1      46.567   3.612   6.628  0.00  0.00    +0.000 C 
ATOM     14  C   UNL     1      46.886   2.242   6.047  0.00  0.00    +0.000 C 
ATOM     15  C   UNL     1      47.280   1.261   7.145  0.00  0.00    +0.000 C 
ATOM     16  C   UNL     1      46.202   1.161   8.225  0.00  0.00    +0.000 C 
ENDBRANCH  10  11
ENDBRANCH   9  10
ENDBRANCH   8   9
ENDBRANCH   4   5
BRANCH   4   3
ATOM      1  O   UNL     1      48.671   7.949  15.887  0.00  0.00    +0.000 OA
ATOM      2  C   UNL     1      48.579   6.729  15.768  0.00  0.00    +0.000 C 
ATOM      3  N   UNL     1      48.041   6.138  14.656  0.00  0.00    +0.000 N 
ATOM     29  H   UNL     1      47.823   5.148  14.672  0.00  0.00    +0.000 HD
BRANCH   2  19
ATOM     19  C   UNL     1      49.104   5.822  16.798  0.00  0.00    +0.000 A 
ATOM     20  C   UNL     1      48.218   5.093  17.580  0.00  0.00    +0.000 A 
ATOM     21  S   UNL     1      48.983   4.094  18.730  0.00  0.00    +0.000 S 
ATOM     22  C   UNL     1      50.528   4.565  18.194  0.00  0.00    +0.000 A 
ATOM     23  N   UNL     1      51.654   4.035  18.743  0.00  0.00    +0.000 NA
ATOM     24  C   UNL     1      52.752   4.452  18.210  0.00  0.00    +0.000 A 
ATOM     25  N   UNL     1      52.833   5.361  17.188  0.00  0.00    +0.000 N 
ATOM     26  C   UNL     1      51.729   5.982  16.659  0.00  0.00    +0.000 A 
ATOM     27  O   UNL     1      51.843   6.894  15.847  0.00  0.00    +0.000 OA
ATOM     28  C   UNL     1      50.463   5.506  17.183  0.00  0.00    +0.000 A 
ATOM     31  H   UNL     1      53.728   5.669  16.842  0.00  0.00    +0.000 HD
ENDBRANCH   2  19
ENDBRANCH   4   3
TORSDOF 6
ENDMDL
MODEL 6
REMARK VINA RESULT:    -7.266      4.156      8.991
REMARK INTER + INTRA:         -11.103
REMARK INTER:                 -10.078
REMARK INTRA:                  -1.026
REMARK UNBOUND:                -1.289
REMARK  Name = 
REMARK  6 active torsions:
REMARK  status: ('A' for Active; 'I' for Inactive)
REMARK    1  A    between atoms: C_2  and  C_19
REMARK    2  A    between atoms: N_3  and  C_4
REMARK    3  A    between atoms: C_4  and  C_5
REMARK    4  A    between atoms: C_8  and  C_9
REMARK    5  A    between atoms: C_9  and  N_10
REMARK    6  A    between atoms: N_10  and  C_11
REMARK                            x       y       z     vdW  Elec       q    Type
REMARK                         _______ _______ _______ _____ _____    ______ ____
ROOT
ATOM      4  C   UNL     1      47.129   3.399  16.926  0.00  0.00    +0.000 C 
ENDROOT
BRANCH   4   5
ATOM      5  C   UNL     1      48.605   3.414  17.223  0.00  0.00    +0.000 A 
ATOM      6  C   UNL     1      49.216   4.578  17.710  0.00  0.00    +0.000 A 
ATOM      7  C   UNL     1      50.579   4.590  18.016  0.00  0.00    +0.000 A 
ATOM      8  C   UNL     1      51.360   3.442  17.832  0.00  0.00    +0.000 A 
ATOM     17  C   UNL     1      50.752   2.287  17.317  0.00  0.00    +0.000 A 
ATOM     18  C   UNL     1      49.390   2.276  17.007  0.00  0.00    +0.000 A 
BRANCH   8   9
ATOM      9  C   UNL     1      52.837   3.450  18.153  0.00  0.00    +0.000 C 
BRANCH   9  10
ATOM     10  N   UNL     1      53.224   2.298  18.969  0.00  0.00    +0.000 NA
ATOM     30  H   UNL     1      52.393   1.739  19.166  0.00  0.00    +0.000 HD
BRANCH  10  11
ATOM     11  C   UNL     1      54.264   1.463  18.349  0.00  0.00    +0.000 C 
ATOM     12  C   UNL     1      54.796   2.051  17.029  0.00  0.00    +0.000 C 
ATOM     13  C   UNL     1      55.775   1.111  16.330  0.00  0.00    +0.000 C 
ATOM     14  C   UNL     1      55.158  -0.260  16.093  0.00  0.00    +0.000 C 
ATOM     15  C   UNL     1      54.660  -0.869  17.398  0.00  0.00    +0.000 C 
ATOM     16  C   UNL     1      53.677   0.059  18.115  0.00  0.00    +0.000 C 
ENDBRANCH  10  11
ENDBRANCH   9  10
ENDBRANCH   8   9
ENDBRANCH   4   5
BRANCH   4   3
ATOM      1  O   UNL     1      47.289   3.078  14.141  0.00  0.00    +0.000 OA
ATOM      2  C   UNL     1      46.852   4.134  14.592  0.00  0.00    +0.000 C 
ATOM      3  N   UNL     1      46.775   4.383  15.936  0.00  0.00    +0.000 N 
ATOM     29  H   UNL     1      46.251   5.186  16.266  0.00  0.00    +0.000 HD
BRANCH   2  19
ATOM     19  C   UNL     1      46.439   5.228  13.701  0.00  0.00    +0.000 A 
ATOM     20  C   UNL     1      47.317   6.276  13.456  0.00  0.00    +0.000 A 
ATOM     21  S   UNL     1      46.687   7.464  12.409  0.00  0.00    +0.000 S 
ATOM     22  C   UNL     1      45.236   6.599  12.208  0.00  0.00    +0.000 A 
ATOM     23  N   UNL     1      44.255   7.054  11.382  0.00  0.00    +0.000 NA
ATOM     24  C   UNL     1      43.230   6.276  11.295  0.00  0.00    +0.000 A 
ATOM     25  N   UNL     1      43.085   5.091  11.968  0.00  0.00    +0.000 N 
ATOM     26  C   UNL     1      44.011   4.634  12.873  0.00  0.00    +0.000 A 
ATOM     27  O   UNL     1      43.787   3.645  13.564  0.00  0.00    +0.000 OA
ATOM     28  C   UNL     1      45.211   5.442  12.966  0.00  0.00    +0.000 A 
ATOM     31  H   UNL     1      42.241   4.548  11.880  0.00  0.00    +0.000 HD
ENDBRANCH   2  19
ENDBRANCH   4   3
TORSDOF 6
ENDMDL
MODEL 7
REMARK VINA RESULT:    -7.170      2.577      3.191
REMARK INTER + INTRA:         -10.974
REMARK INTER:                  -9.977
REMARK INTRA:                  -0.998
REMARK UNBOUND:                -1.289
REMARK  Name = 
REMARK  6 active torsions:
REMARK  status: ('A' for Active; 'I' for Inactive)
REMARK    1  A    between atoms: C_2  and  C_19
REMARK    2  A    between atoms: N_3  and  C_4
REMARK    3  A    between atoms: C_4  and  C_5
REMARK    4  A    between atoms: C_8  and  C_9
REMARK    5  A    between atoms: C_9  and  N_10
REMARK    6  A    between atoms: N_10  and  C_11
REMARK                            x       y       z     vdW  Elec       q    Type
REMARK                         _______ _______ _______ _____ _____    ______ ____
ROOT
ATOM      4  C   UNL     1      47.119   4.417  15.067  0.00  0.00    +0.000 C 
ENDROOT
BRANCH   4   5
ATOM      5  C   UNL     1      46.497   4.554  13.703  0.00  0.00    +0.000 A 
ATOM      6  C   UNL     1      46.658   5.736  12.967  0.00  0.00    +0.000 A 
ATOM      7  C   UNL     1      46.108   5.858  11.689  0.00  0.00    +0.000 A 
ATOM      8  C   UNL     1      45.378   4.805  11.124  0.00  0.00    +0.000 A 
ATOM     17  C   UNL     1      45.193   3.634  11.875  0.00  0.00    +0.000 A 
ATOM     18  C   UNL     1      45.739   3.513  13.155  0.00  0.00    +0.000 A 
BRANCH   8   9
ATOM      9  C   UNL     1      44.774   4.932   9.745  0.00  0.00    +0.000 C 
BRANCH   9  10
ATOM     10  N   UNL     1      44.141   3.687   9.310  0.00  0.00    +0.000 NA
ATOM     30  H   UNL     1      43.194   3.892   8.989  0.00  0.00    +0.000 HD
BRANCH  10  11
ATOM     11  C   UNL     1      44.892   2.982   8.260  0.00  0.00    +0.000 C 
ATOM     12  C   UNL     1      45.623   1.731   8.784  0.00  0.00    +0.000 C 
ATOM     13  C   UNL     1      46.506   1.088   7.718  0.00  0.00    +0.000 C 
ATOM     14  C   UNL     1      47.501   2.085   7.143  0.00  0.00    +0.000 C 
ATOM     15  C   UNL     1      46.787   3.312   6.587  0.00  0.00    +0.000 C 
ATOM     16  C   UNL     1      45.897   3.972   7.641  0.00  0.00    +0.000 C 
ENDBRANCH  10  11
ENDBRANCH   9  10
ENDBRANCH   8   9
ENDBRANCH   4   5
BRANCH   4   3
ATOM      1  O   UNL     1      49.401   4.844  16.647  0.00  0.00    +0.000 OA
ATOM      2  C   UNL     1      48.723   5.812  16.311  0.00  0.00    +0.000 C 
ATOM      3  N   UNL     1      47.577   5.686  15.573  0.00  0.00    +0.000 N 
ATOM     29  H   UNL     1      47.148   6.512  15.171  0.00  0.00    +0.000 HD
BRANCH   2  19
ATOM     19  C   UNL     1      49.074   7.173  16.742  0.00  0.00    +0.000 A 
ATOM     20  C   UNL     1      49.978   7.914  15.993  0.00  0.00    +0.000 A 
ATOM     21  S   UNL     1      50.282   9.466  16.627  0.00  0.00    +0.000 S 
ATOM     22  C   UNL     1      49.181   9.223  17.902  0.00  0.00    +0.000 A 
ATOM     23  N   UNL     1      48.929  10.204  18.809  0.00  0.00    +0.000 NA
ATOM     24  C   UNL     1      48.042   9.895  19.694  0.00  0.00    +0.000 A 
ATOM     25  N   UNL     1      47.393   8.690  19.766  0.00  0.00    +0.000 N 
ATOM     26  C   UNL     1      47.675   7.644  18.923  0.00  0.00    +0.000 A 
ATOM     27  O   UNL     1      47.182   6.535  19.103  0.00  0.00    +0.000 OA
ATOM     28  C   UNL     1      48.623   7.958  17.872  0.00  0.00    +0.000 A 
ATOM     31  H   UNL     1      46.735   8.503  20.506  0.00  0.00    +0.000 HD
ENDBRANCH   2  19
ENDBRANCH   4   3
TORSDOF 6
ENDMDL
MODEL 8
REMARK VINA RESULT:    -7.011      2.323      3.209
REMARK INTER + INTRA:         -10.759
REMARK INTER:                 -10.226
REMARK INTRA:                  -0.532
REMARK UNBOUND:                -1.289
REMARK  Name = 
REMARK  6 active torsions:
REMARK  status: ('A' for Active; 'I' for Inactive)
REMARK    1  A    between atoms: C_2  and  C_19
REMARK    2  A    between atoms: N_3  and  C_4
REMARK    3  A    between atoms: C_4  and  C_5
REMARK    4  A    between atoms: C_8  and  C_9
REMARK    5  A    between atoms: C_9  and  N_10
REMARK    6  A    between atoms: N_10  and  C_11
REMARK                            x       y       z     vdW  Elec       q    Type
REMARK                         _______ _______ _______ _____ _____    ______ ____
ROOT
ATOM      4  C   UNL     1      46.635   4.476  14.845  0.00  0.00    +0.000 C 
ENDROOT
BRANCH   4   5
ATOM      5  C   UNL     1      46.050   4.473  13.458  0.00  0.00    +0.000 A 
ATOM      6  C   UNL     1      45.587   3.279  12.888  0.00  0.00    +0.000 A 
ATOM      7  C   UNL     1      45.015   3.275  11.614  0.00  0.00    +0.000 A 
ATOM      8  C   UNL     1      44.904   4.463  10.879  0.00  0.00    +0.000 A 
ATOM     17  C   UNL     1      45.395   5.651  11.440  0.00  0.00    +0.000 A 
ATOM     18  C   UNL     1      45.971   5.655  12.713  0.00  0.00    +0.000 A 
BRANCH   8   9
ATOM      9  C   UNL     1      44.294   4.465   9.496  0.00  0.00    +0.000 C 
BRANCH   9  10
ATOM     10  N   UNL     1      45.303   4.665   8.455  0.00  0.00    +0.000 NA
ATOM     30  H   UNL     1      46.153   5.030   8.885  0.00  0.00    +0.000 HD
BRANCH  10  11
ATOM     11  C   UNL     1      45.604   3.447   7.688  0.00  0.00    +0.000 C 
ATOM     12  C   UNL     1      46.002   2.258   8.583  0.00  0.00    +0.000 C 
ATOM     13  C   UNL     1      46.440   1.043   7.770  0.00  0.00    +0.000 C 
ATOM     14  C   UNL     1      47.572   1.392   6.814  0.00  0.00    +0.000 C 
ATOM     15  C   UNL     1      47.176   2.544   5.896  0.00  0.00    +0.000 C 
ATOM     16  C   UNL     1      46.733   3.772   6.693  0.00  0.00    +0.000 C 
ENDBRANCH  10  11
ENDBRANCH   9  10
ENDBRANCH   8   9
ENDBRANCH   4   5
BRANCH   4   3
ATOM      1  O   UNL     1      47.939   5.188  17.227  0.00  0.00    +0.000 OA
ATOM      2  C   UNL     1      48.286   5.725  16.178  0.00  0.00    +0.000 C 
ATOM      3  N   UNL     1      47.677   5.460  14.981  0.00  0.00    +0.000 N 
ATOM     29  H   UNL     1      48.104   5.787  14.121  0.00  0.00    +0.000 HD
BRANCH   2  19
ATOM     19  C   UNL     1      49.347   6.742  16.159  0.00  0.00    +0.000 A 
ATOM     20  C   UNL     1      49.047   8.034  15.747  0.00  0.00    +0.000 A 
ATOM     21  S   UNL     1      50.384   9.090  15.777  0.00  0.00    +0.000 S 
ATOM     22  C   UNL     1      51.404   7.872  16.386  0.00  0.00    +0.000 A 
ATOM     23  N   UNL     1      52.706   8.129  16.683  0.00  0.00    +0.000 NA
ATOM     24  C   UNL     1      53.348   7.124  17.176  0.00  0.00    +0.000 A 
ATOM     25  N   UNL     1      52.814   5.880  17.386  0.00  0.00    +0.000 N 
ATOM     26  C   UNL     1      51.530   5.552  17.027  0.00  0.00    +0.000 A 
ATOM     27  O   UNL     1      51.129   4.395  17.096  0.00  0.00    +0.000 OA
ATOM     28  C   UNL     1      50.746   6.662  16.521  0.00  0.00    +0.000 A 
ATOM     31  H   UNL     1      53.384   5.129  17.744  0.00  0.00    +0.000 HD
ENDBRANCH   2  19
ENDBRANCH   4   3
TORSDOF 6
ENDMDL
MODEL 9
REMARK VINA RESULT:    -7.007      3.094      4.451
REMARK INTER + INTRA:         -10.753
REMARK INTER:                  -9.630
REMARK INTRA:                  -1.123
REMARK UNBOUND:                -1.289
REMARK  Name = 
REMARK  6 active torsions:
REMARK  status: ('A' for Active; 'I' for Inactive)
REMARK    1  A    between atoms: C_2  and  C_19
REMARK    2  A    between atoms: N_3  and  C_4
REMARK    3  A    between atoms: C_4  and  C_5
REMARK    4  A    between atoms: C_8  and  C_9
REMARK    5  A    between atoms: C_9  and  N_10
REMARK    6  A    between atoms: N_10  and  C_11
REMARK                            x       y       z     vdW  Elec       q    Type
REMARK                         _______ _______ _______ _____ _____    ______ ____
ROOT
ATOM      4  C   UNL     1      47.126   6.095  14.079  0.00  0.00    +0.000 C 
ENDROOT
BRANCH   4   5
ATOM      5  C   UNL     1      46.337   5.342  13.042  0.00  0.00    +0.000 A 
ATOM      6  C   UNL     1      45.950   5.974  11.852  0.00  0.00    +0.000 A 
ATOM      7  C   UNL     1      45.245   5.272  10.872  0.00  0.00    +0.000 A 
ATOM      8  C   UNL     1      44.903   3.927  11.065  0.00  0.00    +0.000 A 
ATOM     17  C   UNL     1      45.266   3.306  12.270  0.00  0.00    +0.000 A 
ATOM     18  C   UNL     1      45.969   4.008  13.252  0.00  0.00    +0.000 A 
BRANCH   8   9
ATOM      9  C   UNL     1      44.132   3.164  10.014  0.00  0.00    +0.000 C 
BRANCH   9  10
ATOM     10  N   UNL     1      44.886   2.014   9.512  0.00  0.00    +0.000 NA
ATOM     30  H   UNL     1      44.241   1.371   9.053  0.00  0.00    +0.000 HD
BRANCH  10  11
ATOM     11  C   UNL     1      45.976   2.382   8.595  0.00  0.00    +0.000 C 
ATOM     12  C   UNL     1      45.552   3.433   7.551  0.00  0.00    +0.000 C 
ATOM     13  C   UNL     1      46.649   3.704   6.526  0.00  0.00    +0.000 C 
ATOM     14  C   UNL     1      47.099   2.423   5.839  0.00  0.00    +0.000 C 
ATOM     15  C   UNL     1      47.557   1.387   6.860  0.00  0.00    +0.000 C 
ATOM     16  C   UNL     1      46.470   1.101   7.898  0.00  0.00    +0.000 C 
ENDBRANCH  10  11
ENDBRANCH   9  10
ENDBRANCH   8   9
ENDBRANCH   4   5
BRANCH   4   3
ATOM      1  O   UNL     1      47.552   8.825  13.579  0.00  0.00    +0.000 OA
ATOM      2  C   UNL     1      48.458   8.030  13.339  0.00  0.00    +0.000 C 
ATOM      3  N   UNL     1      48.318   6.680  13.521  0.00  0.00    +0.000 N 
ATOM     29  H   UNL     1      49.137   6.083  13.480  0.00  0.00    +0.000 HD
BRANCH   2  19
ATOM     19  C   UNL     1      49.738   8.483  12.776  0.00  0.00    +0.000 A 
ATOM     20  C   UNL     1      49.757   9.097  11.531  0.00  0.00    +0.000 A 
ATOM     21  S   UNL     1      51.316   9.558  11.019  0.00  0.00    +0.000 S 
ATOM     22  C   UNL     1      52.018   8.995  12.463  0.00  0.00    +0.000 A 
ATOM     23  N   UNL     1      53.352   9.127  12.694  0.00  0.00    +0.000 NA
ATOM     24  C   UNL     1      53.737   8.694  13.846  0.00  0.00    +0.000 A 
ATOM     25  N   UNL     1      52.917   8.127  14.786  0.00  0.00    +0.000 N 
ATOM     26  C   UNL     1      51.581   7.899  14.564  0.00  0.00    +0.000 A 
ATOM     27  O   UNL     1      50.906   7.262  15.366  0.00  0.00    +0.000 OA
ATOM     28  C   UNL     1      51.084   8.420  13.306  0.00  0.00    +0.000 A 
ATOM     31  H   UNL     1      53.292   7.778  15.654  0.00  0.00    +0.000 HD
ENDBRANCH   2  19
ENDBRANCH   4   3
TORSDOF 6
ENDMDL
