MODEL 1
REMARK VINA RESULT:    -6.608      0.000      0.000
REMARK INTER + INTRA:         -15.345
REMARK INTER:                 -13.561
REMARK INTRA:                  -1.784
REMARK UNBOUND:                -1.784
REMARK  Name = 
REMARK  20 active torsions:
REMARK  status: ('A' for Active; 'I' for Inactive)
REMARK    1  A    between atoms: C_1  and  C_2
REMARK    2  A    between atoms: C_2  and  C_3
REMARK    3  A    between atoms: C_3  and  C_4
REMARK    4  A    between atoms: C_4  and  C_5
REMARK    5  A    between atoms: C_5  and  C_6
REMARK    6  A    between atoms: C_6  and  C_7
REMARK    7  A    between atoms: C_7  and  C_8
REMARK    8  A    between atoms: C_8  and  N_9
REMARK    9  A    between atoms: N_9  and  C_10
REMARK   10  A    between atoms: C_10  and  C_11
REMARK   11  A    between atoms: C_14  and  C_15
REMARK   12  A    between atoms: C_15  and  N_16
REMARK   13  A    between atoms: C_17  and  C_19
REMARK   14  A    between atoms: C_26  and  O_27
REMARK   15  A    between atoms: O_27  and  C_28
REMARK   16  A    between atoms: C_28  and  C_29
REMARK   17  A    between atoms: C_29  and  C_30
REMARK   18  A    between atoms: C_30  and  C_31
REMARK   19  A    between atoms: C_31  and  C_32
REMARK   20  A    between atoms: C_32  and  C_33
REMARK                            x       y       z     vdW  Elec       q    Type
REMARK                         _______ _______ _______ _____ _____    ______ ____
ROOT
ATOM     16  N   UNL     1      48.249   7.932  15.103  0.00  0.00    +0.000 N 
ATOM     17  C   UNL     1      49.185   7.349  15.915  0.00  0.00    +0.000 C 
ATOM     18  O   UNL     1      50.005   6.537  15.490  0.00  0.00    +0.000 OA
ATOM     38  H   UNL     1      47.590   8.588  15.498  0.00  0.00    +0.000 HD
ENDROOT
BRANCH  17  19
ATOM     19  C   UNL     1      49.197   7.777  17.324  0.00  0.00    +0.000 A 
ATOM     20  C   UNL     1      49.912   8.904  17.705  0.00  0.00    +0.000 A 
ATOM     21  S   UNL     1      49.790   9.259  19.367  0.00  0.00    +0.000 S 
ATOM     22  C   UNL     1      48.813   7.895  19.640  0.00  0.00    +0.000 A 
ATOM     23  N   UNL     1      48.381   7.608  20.881  0.00  0.00    +0.000 NA
ATOM     24  C   UNL     1      47.649   6.492  20.920  0.00  0.00    +0.000 A 
ATOM     25  N   UNL     1      47.320   5.700  19.900  0.00  0.00    +0.000 NA
ATOM     26  C   UNL     1      47.758   6.039  18.677  0.00  0.00    +0.000 A 
ATOM     34  C   UNL     1      48.556   7.179  18.482  0.00  0.00    +0.000 A 
BRANCH  26  27
ATOM     27  O   UNL     1      47.490   5.225  17.612  0.00  0.00    +0.000 OA
BRANCH  27  28
ATOM     28  C   UNL     1      47.534   3.822  17.863  0.00  0.00    +0.000 C 
BRANCH  28  29
ATOM     29  C   UNL     1      48.550   3.196  16.925  0.00  0.00    +0.000 C 
BRANCH  29  30
ATOM     30  C   UNL     1      49.951   3.213  17.517  0.00  0.00    +0.000 C 
BRANCH  30  31
ATOM     31  C   UNL     1      50.704   1.935  17.176  0.00  0.00    +0.000 C 
BRANCH  31  32
ATOM     32  C   UNL     1      52.170   2.078  17.563  0.00  0.00    +0.000 C 
ATOM     33  C   UNL     1      52.874   0.734  17.552  0.00  0.00    +0.000 C 
ENDBRANCH  31  32
ENDBRANCH  30  31
ENDBRANCH  29  30
ENDBRANCH  28  29
ENDBRANCH  27  28
ENDBRANCH  26  27
ENDBRANCH  17  19
BRANCH  16  15
ATOM     15  C   UNL     1      48.121   7.624  13.700  0.00  0.00    +0.000 C 
BRANCH  15  14
ATOM     11  C   UNL     1      44.837   4.889  12.943  0.00  0.00    +0.000 A 
ATOM     12  C   UNL     1      46.092   4.403  13.339  0.00  0.00    +0.000 A 
ATOM     13  C   UNL     1      47.153   5.280  13.588  0.00  0.00    +0.000 A 
ATOM     14  C   UNL     1      46.989   6.663  13.425  0.00  0.00    +0.000 A 
ATOM     35  C   UNL     1      45.747   7.142  12.989  0.00  0.00    +0.000 A 
ATOM     36  C   UNL     1      44.678   6.267  12.768  0.00  0.00    +0.000 A 
BRANCH  11  10
ATOM     10  C   UNL     1      43.677   3.948  12.712  0.00  0.00    +0.000 C 
BRANCH  10   9
ATOM      9  N   UNL     1      42.902   4.374  11.551  0.00  0.00    +0.000 NA
ATOM     37  H   UNL     1      42.051   3.820  11.489  0.00  0.00    +0.000 HD
BRANCH   9   8
ATOM      8  C   UNL     1      43.668   4.235  10.321  0.00  0.00    +0.000 C 
BRANCH   8   7
ATOM      7  C   UNL     1      44.384   2.889  10.347  0.00  0.00    +0.000 C 
BRANCH   7   6
ATOM      6  C   UNL     1      44.540   2.347   8.932  0.00  0.00    +0.000 C 
BRANCH   6   5
ATOM      5  C   UNL     1      44.714   3.483   7.934  0.00  0.00    +0.000 C 
BRANCH   5   4
ATOM      4  C   UNL     1      46.192   3.698   7.627  0.00  0.00    +0.000 C 
BRANCH   4   3
ATOM      3  C   UNL     1      46.551   3.106   6.270  0.00  0.00    +0.000 C 
BRANCH   3   2
ATOM      1  C   UNL     1      47.301   0.944   7.287  0.00  0.00    +0.000 C 
ATOM      2  C   UNL     1      47.696   2.106   6.397  0.00  0.00    +0.000 C 
ENDBRANCH   3   2
ENDBRANCH   4   3
ENDBRANCH   5   4
ENDBRANCH   6   5
ENDBRANCH   7   6
ENDBRANCH   8   7
ENDBRANCH   9   8
ENDBRANCH  10   9
ENDBRANCH  11  10
ENDBRANCH  15  14
ENDBRANCH  16  15
TORSDOF 18
ENDMDL
MODEL 2
REMARK VINA RESULT:    -6.526      2.753      9.146
REMARK INTER + INTRA:         -15.177
REMARK INTER:                 -12.306
REMARK INTRA:                  -2.871
REMARK UNBOUND:                -1.784
REMARK  Name = 
REMARK  20 active torsions:
REMARK  status: ('A' for Active; 'I' for Inactive)
REMARK    1  A    between atoms: C_1  and  C_2
REMARK    2  A    between atoms: C_2  and  C_3
REMARK    3  A    between atoms: C_3  and  C_4
REMARK    4  A    between atoms: C_4  and  C_5
REMARK    5  A    between atoms: C_5  and  C_6
REMARK    6  A    between atoms: C_6  and  C_7
REMARK    7  A    between atoms: C_7  and  C_8
REMARK    8  A    between atoms: C_8  and  N_9
REMARK    9  A    between atoms: N_9  and  C_10
REMARK   10  A    between atoms: C_10  and  C_11
REMARK   11  A    between atoms: C_14  and  C_15
REMARK   12  A    between atoms: C_15  and  N_16
REMARK   13  A    between atoms: C_17  and  C_19
REMARK   14  A    between atoms: C_26  and  O_27
REMARK   15  A    between atoms: O_27  and  C_28
REMARK   16  A    between atoms: C_28  and  C_29
REMARK   17  A    between atoms: C_29  and  C_30
REMARK   18  A    between atoms: C_30  and  C_31
REMARK   19  A    between atoms: C_31  and  C_32
REMARK   20  A    between atoms: C_32  and  C_33
REMARK                            x       y       z     vdW  Elec       q    Type
REMARK                         _______ _______ _______ _____ _____    ______ ____
ROOT
ATOM     16  N   UNL     1      46.958   4.484  15.875  0.00  0.00    +0.000 N 
ATOM     17  C   UNL     1      47.014   4.320  14.518  0.00  0.00    +0.000 C 
ATOM     18  O   UNL     1      47.224   3.226  13.998  0.00  0.00    +0.000 OA
ATOM     38  H   UNL     1      46.791   5.405  16.258  0.00  0.00    +0.000 HD
ENDROOT
BRANCH  17  19
ATOM     19  C   UNL     1      46.762   5.517  13.696  0.00  0.00    +0.000 A 
ATOM     20  C   UNL     1      47.711   6.528  13.627  0.00  0.00    +0.000 A 
ATOM     21  S   UNL     1      47.258   7.820  12.612  0.00  0.00    +0.000 S 
ATOM     22  C   UNL     1      45.761   7.092  12.267  0.00  0.00    +0.000 A 
ATOM     23  N   UNL     1      44.876   7.709  11.465  0.00  0.00    +0.000 NA
ATOM     24  C   UNL     1      43.745   7.012  11.321  0.00  0.00    +0.000 A 
ATOM     25  N   UNL     1      43.446   5.830  11.858  0.00  0.00    +0.000 NA
ATOM     26  C   UNL     1      44.370   5.244  12.636  0.00  0.00    +0.000 A 
ATOM     34  C   UNL     1      45.603   5.866  12.894  0.00  0.00    +0.000 A 
BRANCH  26  27
ATOM     27  O   UNL     1      44.084   4.057  13.251  0.00  0.00    +0.000 OA
BRANCH  27  28
ATOM     28  C   UNL     1      43.820   2.949  12.392  0.00  0.00    +0.000 C 
BRANCH  28  29
ATOM     29  C   UNL     1      44.878   2.920  11.303  0.00  0.00    +0.000 C 
BRANCH  29  30
ATOM     30  C   UNL     1      44.258   2.826   9.917  0.00  0.00    +0.000 C 
BRANCH  30  31
ATOM     31  C   UNL     1      45.293   2.399   8.885  0.00  0.00    +0.000 C 
BRANCH  31  32
ATOM     32  C   UNL     1      45.612   3.565   7.958  0.00  0.00    +0.000 C 
ATOM     33  C   UNL     1      46.545   3.139   6.841  0.00  0.00    +0.000 C 
ENDBRANCH  31  32
ENDBRANCH  30  31
ENDBRANCH  29  30
ENDBRANCH  28  29
ENDBRANCH  27  28
ENDBRANCH  26  27
ENDBRANCH  17  19
BRANCH  16  15
ATOM     15  C   UNL     1      47.171   3.406  16.809  0.00  0.00    +0.000 C 
BRANCH  15  14
ATOM     11  C   UNL     1      51.370   2.966  17.815  0.00  0.00    +0.000 A 
ATOM     12  C   UNL     1      50.712   1.984  17.060  0.00  0.00    +0.000 A 
ATOM     13  C   UNL     1      49.359   2.122  16.729  0.00  0.00    +0.000 A 
ATOM     14  C   UNL     1      48.628   3.236  17.167  0.00  0.00    +0.000 A 
ATOM     35  C   UNL     1      49.278   4.194  17.956  0.00  0.00    +0.000 A 
ATOM     36  C   UNL     1      50.637   4.070  18.262  0.00  0.00    +0.000 A 
BRANCH  11  10
ATOM     10  C   UNL     1      52.841   2.840  18.141  0.00  0.00    +0.000 C 
BRANCH  10   9
ATOM      9  N   UNL     1      53.594   3.922  17.515  0.00  0.00    +0.000 NA
ATOM     37  H   UNL     1      54.266   3.533  16.859  0.00  0.00    +0.000 HD
BRANCH   9   8
ATOM      8  C   UNL     1      54.289   4.729  18.508  0.00  0.00    +0.000 C 
BRANCH   8   7
ATOM      7  C   UNL     1      54.213   6.190  18.081  0.00  0.00    +0.000 C 
BRANCH   7   6
ATOM      6  C   UNL     1      52.952   6.838  18.637  0.00  0.00    +0.000 C 
BRANCH   6   5
ATOM      5  C   UNL     1      52.301   7.738  17.595  0.00  0.00    +0.000 C 
BRANCH   5   4
ATOM      4  C   UNL     1      52.117   6.984  16.284  0.00  0.00    +0.000 C 
BRANCH   4   3
ATOM      3  C   UNL     1      50.638   6.865  15.934  0.00  0.00    +0.000 C 
BRANCH   3   2
ATOM      1  C   UNL     1      48.643   7.904  17.036  0.00  0.00    +0.000 C 
ATOM      2  C   UNL     1      49.901   8.167  16.231  0.00  0.00    +0.000 C 
ENDBRANCH   3   2
ENDBRANCH   4   3
ENDBRANCH   5   4
ENDBRANCH   6   5
ENDBRANCH   7   6
ENDBRANCH   8   7
ENDBRANCH   9   8
ENDBRANCH  10   9
ENDBRANCH  11  10
ENDBRANCH  15  14
ENDBRANCH  16  15
TORSDOF 18
ENDMDL
MODEL 3
REMARK VINA RESULT:    -6.415      2.551      3.955
REMARK INTER + INTRA:         -14.949
REMARK INTER:                 -12.226
REMARK INTRA:                  -2.723
REMARK UNBOUND:                -1.784
REMARK  Name = 
REMARK  20 active torsions:
REMARK  status: ('A' for Active; 'I' for Inactive)
REMARK    1  A    between atoms: C_1  and  C_2
REMARK    2  A    between atoms: C_2  and  C_3
REMARK    3  A    between atoms: C_3  and  C_4
REMARK    4  A    between atoms: C_4  and  C_5
REMARK    5  A    between atoms: C_5  and  C_6
REMARK    6  A    between atoms: C_6  and  C_7
REMARK    7  A    between atoms: C_7  and  C_8
REMARK    8  A    between atoms: C_8  and  N_9
REMARK    9  A    between atoms: N_9  and  C_10
REMARK   10  A    between atoms: C_10  and  C_11
REMARK   11  A    between atoms: C_14  and  C_15
REMARK   12  A    between atoms: C_15  and  N_16
REMARK   13  A    between atoms: C_17  and  C_19
REMARK   14  A    between atoms: C_26  and  O_27
REMARK   15  A    between atoms: O_27  and  C_28
REMARK   16  A    between atoms: C_28  and  C_29
REMARK   17  A    between atoms: C_29  and  C_30
REMARK   18  A    between atoms: C_30  and  C_31
REMARK   19  A    between atoms: C_31  and  C_32
REMARK   20  A    between atoms: C_32  and  C_33
REMARK                            x       y       z     vdW  Elec       q    Type
REMARK                         _______ _______ _______ _____ _____    ______ ____
ROOT
ATOM     16  N   UNL     1      51.107   6.630  15.826  0.00  0.00    +0.000 N 
ATOM     17  C   UNL     1      51.329   6.400  17.157  0.00  0.00    +0.000 C 
ATOM     18  O   UNL     1      50.900   7.149  18.032  0.00  0.00    +0.000 OA
ATOM     38  H   UNL     1      51.486   5.991  15.141  0.00  0.00    +0.000 HD
ENDROOT
BRANCH  17  19
ATOM     19  C   UNL     1      52.075   5.177  17.500  0.00  0.00    +0.000 A 
ATOM     20  C   UNL     1      53.402   5.257  17.899  0.00  0.00    +0.000 A 
ATOM     21  S   UNL     1      54.092   3.745  18.278  0.00  0.00    +0.000 S 
ATOM     22  C   UNL     1      52.654   2.930  17.880  0.00  0.00    +0.000 A 
ATOM     23  N   UNL     1      52.589   1.590  17.965  0.00  0.00    +0.000 NA
ATOM     24  C   UNL     1      51.398   1.113  17.593  0.00  0.00    +0.000 A 
ATOM     25  N   UNL     1      50.336   1.807  17.185  0.00  0.00    +0.000 NA
ATOM     26  C   UNL     1      50.443   3.145  17.137  0.00  0.00    +0.000 A 
ATOM     34  C   UNL     1      51.642   3.790  17.482  0.00  0.00    +0.000 A 
BRANCH  26  27
ATOM     27  O   UNL     1      49.397   3.891  16.673  0.00  0.00    +0.000 OA
BRANCH  27  28
ATOM     28  C   UNL     1      48.110   3.277  16.726  0.00  0.00    +0.000 C 
BRANCH  28  29
ATOM     29  C   UNL     1      47.194   4.148  17.566  0.00  0.00    +0.000 C 
BRANCH  29  30
ATOM     30  C   UNL     1      47.886   5.427  18.013  0.00  0.00    +0.000 C 
BRANCH  30  31
ATOM     31  C   UNL     1      47.875   5.551  19.531  0.00  0.00    +0.000 C 
BRANCH  31  32
ATOM     32  C   UNL     1      48.755   4.471  20.145  0.00  0.00    +0.000 C 
ATOM     33  C   UNL     1      50.042   5.058  20.693  0.00  0.00    +0.000 C 
ENDBRANCH  31  32
ENDBRANCH  30  31
ENDBRANCH  29  30
ENDBRANCH  28  29
ENDBRANCH  27  28
ENDBRANCH  26  27
ENDBRANCH  17  19
BRANCH  16  15
ATOM     15  C   UNL     1      50.384   7.778  15.335  0.00  0.00    +0.000 C 
BRANCH  15  14
ATOM     11  C   UNL     1      47.436   6.654  12.354  0.00  0.00    +0.000 A 
ATOM     12  C   UNL     1      48.489   7.520  12.024  0.00  0.00    +0.000 A 
ATOM     13  C   UNL     1      49.445   7.883  12.979  0.00  0.00    +0.000 A 
ATOM     14  C   UNL     1      49.355   7.405  14.294  0.00  0.00    +0.000 A 
ATOM     35  C   UNL     1      48.279   6.574  14.632  0.00  0.00    +0.000 A 
ATOM     36  C   UNL     1      47.340   6.188  13.669  0.00  0.00    +0.000 A 
BRANCH  11  10
ATOM     10  C   UNL     1      46.425   6.228  11.315  0.00  0.00    +0.000 C 
BRANCH  10   9
ATOM      9  N   UNL     1      45.620   5.118  11.814  0.00  0.00    +0.000 NA
ATOM     37  H   UNL     1      45.827   4.280  11.277  0.00  0.00    +0.000 HD
BRANCH   9   8
ATOM      8  C   UNL     1      44.197   5.414  11.732  0.00  0.00    +0.000 C 
BRANCH   8   7
ATOM      7  C   UNL     1      43.497   4.235  11.064  0.00  0.00    +0.000 C 
BRANCH   7   6
ATOM      6  C   UNL     1      44.519   3.324  10.398  0.00  0.00    +0.000 C 
BRANCH   6   5
ATOM      5  C   UNL     1      44.511   3.516   8.887  0.00  0.00    +0.000 C 
BRANCH   5   4
ATOM      4  C   UNL     1      45.644   2.725   8.245  0.00  0.00    +0.000 C 
BRANCH   4   3
ATOM      3  C   UNL     1      46.271   3.513   7.101  0.00  0.00    +0.000 C 
BRANCH   3   2
ATOM      1  C   UNL     1      47.534   1.352   7.027  0.00  0.00    +0.000 C 
ATOM      2  C   UNL     1      47.212   2.634   6.284  0.00  0.00    +0.000 C 
ENDBRANCH   3   2
ENDBRANCH   4   3
ENDBRANCH   5   4
ENDBRANCH   6   5
ENDBRANCH   7   6
ENDBRANCH   8   7
ENDBRANCH   9   8
ENDBRANCH  10   9
ENDBRANCH  11  10
ENDBRANCH  15  14
ENDBRANCH  16  15
TORSDOF 18
ENDMDL
MODEL 4
REMARK VINA RESULT:    -6.328      2.979      5.286
REMARK INTER + INTRA:         -14.772
REMARK INTER:                 -12.139
REMARK INTRA:                  -2.632
REMARK UNBOUND:                -1.784
REMARK  Name = 
REMARK  20 active torsions:
REMARK  status: ('A' for Active; 'I' for Inactive)
REMARK    1  A    between atoms: C_1  and  C_2
REMARK    2  A    between atoms: C_2  and  C_3
REMARK    3  A    between atoms: C_3  and  C_4
REMARK    4  A    between atoms: C_4  and  C_5
REMARK    5  A    between atoms: C_5  and  C_6
REMARK    6  A    between atoms: C_6  and  C_7
REMARK    7  A    between atoms: C_7  and  C_8
REMARK    8  A    between atoms: C_8  and  N_9
REMARK    9  A    between atoms: N_9  and  C_10
REMARK   10  A    between atoms: C_10  and  C_11
REMARK   11  A    between atoms: C_14  and  C_15
REMARK   12  A    between atoms: C_15  and  N_16
REMARK   13  A    between atoms: C_17  and  C_19
REMARK   14  A    between atoms: C_26  and  O_27
REMARK   15  A    between atoms: O_27  and  C_28
REMARK   16  A    between atoms: C_28  and  C_29
REMARK   17  A    between atoms: C_29  and  C_30
REMARK   18  A    between atoms: C_30  and  C_31
REMARK   19  A    between atoms: C_31  and  C_32
REMARK   20  A    between atoms: C_32  and  C_33
REMARK                            x       y       z     vdW  Elec       q    Type
REMARK                         _______ _______ _______ _____ _____    ______ ____
ROOT
ATOM     16  N   UNL     1      49.311   3.157  17.786  0.00  0.00    +0.000 N 
ATOM     17  C   UNL     1      50.078   2.294  17.051  0.00  0.00    +0.000 C 
ATOM     18  O   UNL     1      49.640   1.709  16.062  0.00  0.00    +0.000 OA
ATOM     38  H   UNL     1      49.712   3.610  18.596  0.00  0.00    +0.000 HD
ENDROOT
BRANCH  17  19
ATOM     19  C   UNL     1      51.480   2.131  17.473  0.00  0.00    +0.000 A 
ATOM     20  C   UNL     1      52.013   0.862  17.646  0.00  0.00    +0.000 A 
ATOM     21  S   UNL     1      53.653   0.869  18.113  0.00  0.00    +0.000 S 
ATOM     22  C   UNL     1      53.690   2.569  18.142  0.00  0.00    +0.000 A 
ATOM     23  N   UNL     1      54.815   3.216  18.495  0.00  0.00    +0.000 NA
ATOM     24  C   UNL     1      54.663   4.543  18.489  0.00  0.00    +0.000 A 
ATOM     25  N   UNL     1      53.569   5.234  18.171  0.00  0.00    +0.000 NA
ATOM     26  C   UNL     1      52.477   4.543  17.804  0.00  0.00    +0.000 A 
ATOM     34  C   UNL     1      52.480   3.139  17.780  0.00  0.00    +0.000 A 
BRANCH  26  27
ATOM     27  O   UNL     1      51.318   5.210  17.522  0.00  0.00    +0.000 OA
BRANCH  27  28
ATOM     28  C   UNL     1      51.095   6.422  18.242  0.00  0.00    +0.000 C 
BRANCH  28  29
ATOM     29  C   UNL     1      50.211   6.116  19.438  0.00  0.00    +0.000 C 
BRANCH  29  30
ATOM     30  C   UNL     1      49.369   7.319  19.838  0.00  0.00    +0.000 C 
BRANCH  30  31
ATOM     31  C   UNL     1      47.897   7.081  19.529  0.00  0.00    +0.000 C 
BRANCH  31  32
ATOM     32  C   UNL     1      47.295   8.326  18.891  0.00  0.00    +0.000 C 
ATOM     33  C   UNL     1      48.185   8.861  17.785  0.00  0.00    +0.000 C 
ENDBRANCH  31  32
ENDBRANCH  30  31
ENDBRANCH  29  30
ENDBRANCH  28  29
ENDBRANCH  27  28
ENDBRANCH  26  27
ENDBRANCH  17  19
BRANCH  16  15
ATOM     15  C   UNL     1      47.926   3.429  17.490  0.00  0.00    +0.000 C 
BRANCH  15  14
ATOM     11  C   UNL     1      47.419   5.749  13.856  0.00  0.00    +0.000 A 
ATOM     12  C   UNL     1      46.900   4.449  13.950  0.00  0.00    +0.000 A 
ATOM     13  C   UNL     1      47.056   3.698  15.120  0.00  0.00    +0.000 A 
ATOM     14  C   UNL     1      47.758   4.222  16.216  0.00  0.00    +0.000 A 
ATOM     35  C   UNL     1      48.311   5.504  16.104  0.00  0.00    +0.000 A 
ATOM     36  C   UNL     1      48.130   6.266  14.944  0.00  0.00    +0.000 A 
BRANCH  11  10
ATOM     10  C   UNL     1      47.218   6.579  12.610  0.00  0.00    +0.000 C 
BRANCH  10   9
ATOM      9  N   UNL     1      45.963   7.318  12.689  0.00  0.00    +0.000 NA
ATOM     37  H   UNL     1      45.571   7.224  13.622  0.00  0.00    +0.000 HD
BRANCH   9   8
ATOM      8  C   UNL     1      45.002   6.842  11.704  0.00  0.00    +0.000 C 
BRANCH   8   7
ATOM      7  C   UNL     1      45.724   5.913  10.735  0.00  0.00    +0.000 C 
BRANCH   7   6
ATOM      6  C   UNL     1      44.882   4.673  10.466  0.00  0.00    +0.000 C 
BRANCH   6   5
ATOM      5  C   UNL     1      45.057   4.201   9.029  0.00  0.00    +0.000 C 
BRANCH   5   4
ATOM      4  C   UNL     1      45.067   2.679   8.967  0.00  0.00    +0.000 C 
BRANCH   4   3
ATOM      3  C   UNL     1      46.152   2.185   8.018  0.00  0.00    +0.000 C 
BRANCH   3   2
ATOM      1  C   UNL     1      46.842   2.869   5.709  0.00  0.00    +0.000 C 
ATOM      2  C   UNL     1      46.673   3.323   7.146  0.00  0.00    +0.000 C 
ENDBRANCH   3   2
ENDBRANCH   4   3
ENDBRANCH   5   4
ENDBRANCH   6   5
ENDBRANCH   7   6
ENDBRANCH   8   7
ENDBRANCH   9   8
ENDBRANCH  10   9
ENDBRANCH  11  10
ENDBRANCH  15  14
ENDBRANCH  16  15
TORSDOF 18
ENDMDL
MODEL 5
REMARK VINA RESULT:    -6.295      3.209      9.550
REMARK INTER + INTRA:         -14.703
REMARK INTER:                 -13.029
REMARK INTRA:                  -1.675
REMARK UNBOUND:                -1.784
REMARK  Name = 
REMARK  20 active torsions:
REMARK  status: ('A' for Active; 'I' for Inactive)
REMARK    1  A    between atoms: C_1  and  C_2
REMARK    2  A    between atoms: C_2  and  C_3
REMARK    3  A    between atoms: C_3  and  C_4
REMARK    4  A    between atoms: C_4  and  C_5
REMARK    5  A    between atoms: C_5  and  C_6
REMARK    6  A    between atoms: C_6  and  C_7
REMARK    7  A    between atoms: C_7  and  C_8
REMARK    8  A    between atoms: C_8  and  N_9
REMARK    9  A    between atoms: N_9  and  C_10
REMARK   10  A    between atoms: C_10  and  C_11
REMARK   11  A    between atoms: C_14  and  C_15
REMARK   12  A    between atoms: C_15  and  N_16
REMARK   13  A    between atoms: C_17  and  C_19
REMARK   14  A    between atoms: C_26  and  O_27
REMARK   15  A    between atoms: O_27  and  C_28
REMARK   16  A    between atoms: C_28  and  C_29
REMARK   17  A    between atoms: C_29  and  C_30
REMARK   18  A    between atoms: C_30  and  C_31
REMARK   19  A    between atoms: C_31  and  C_32
REMARK   20  A    between atoms: C_32  and  C_33
REMARK                            x       y       z     vdW  Elec       q    Type
REMARK                         _______ _______ _______ _____ _____    ______ ____
ROOT
ATOM     16  N   UNL     1      47.104   4.574  15.873  0.00  0.00    +0.000 N 
ATOM     17  C   UNL     1      47.062   4.393  14.517  0.00  0.00    +0.000 C 
ATOM     18  O   UNL     1      47.185   3.285  14.000  0.00  0.00    +0.000 OA
ATOM     38  H   UNL     1      47.006   5.505  16.254  0.00  0.00    +0.000 HD
ENDROOT
BRANCH  17  19
ATOM     19  C   UNL     1      46.813   5.592  13.698  0.00  0.00    +0.000 A 
ATOM     20  C   UNL     1      47.762   6.603  13.634  0.00  0.00    +0.000 A 
ATOM     21  S   UNL     1      47.312   7.898  12.621  0.00  0.00    +0.000 S 
ATOM     22  C   UNL     1      45.816   7.171  12.270  0.00  0.00    +0.000 A 
ATOM     23  N   UNL     1      44.934   7.790  11.466  0.00  0.00    +0.000 NA
ATOM     24  C   UNL     1      43.803   7.094  11.317  0.00  0.00    +0.000 A 
ATOM     25  N   UNL     1      43.502   5.910  11.851  0.00  0.00    +0.000 NA
ATOM     26  C   UNL     1      44.424   5.322  12.630  0.00  0.00    +0.000 A 
ATOM     34  C   UNL     1      45.656   5.943  12.893  0.00  0.00    +0.000 A 
BRANCH  26  27
ATOM     27  O   UNL     1      44.135   4.134  13.240  0.00  0.00    +0.000 OA
BRANCH  27  28
ATOM     28  C   UNL     1      43.772   3.054  12.381  0.00  0.00    +0.000 C 
BRANCH  28  29
ATOM     29  C   UNL     1      44.825   2.927  11.295  0.00  0.00    +0.000 C 
BRANCH  29  30
ATOM     30  C   UNL     1      44.204   2.917   9.906  0.00  0.00    +0.000 C 
BRANCH  30  31
ATOM     31  C   UNL     1      45.044   3.727   8.928  0.00  0.00    +0.000 C 
BRANCH  31  32
ATOM     32  C   UNL     1      45.980   2.803   8.159  0.00  0.00    +0.000 C 
ATOM     33  C   UNL     1      46.227   3.317   6.754  0.00  0.00    +0.000 C 
ENDBRANCH  31  32
ENDBRANCH  30  31
ENDBRANCH  29  30
ENDBRANCH  28  29
ENDBRANCH  27  28
ENDBRANCH  26  27
ENDBRANCH  17  19
BRANCH  16  15
ATOM     15  C   UNL     1      47.327   3.496  16.805  0.00  0.00    +0.000 C 
BRANCH  15  14
ATOM     11  C   UNL     1      51.518   2.938  17.785  0.00  0.00    +0.000 A 
ATOM     12  C   UNL     1      50.881   4.160  18.048  0.00  0.00    +0.000 A 
ATOM     13  C   UNL     1      49.530   4.345  17.739  0.00  0.00    +0.000 A 
ATOM     14  C   UNL     1      48.790   3.317  17.136  0.00  0.00    +0.000 A 
ATOM     35  C   UNL     1      49.439   2.113  16.836  0.00  0.00    +0.000 A 
ATOM     36  C   UNL     1      50.783   1.918  17.173  0.00  0.00    +0.000 A 
BRANCH  11  10
ATOM     10  C   UNL     1      52.968   2.721  18.155  0.00  0.00    +0.000 C 
BRANCH  10   9
ATOM      9  N   UNL     1      53.168   1.362  18.647  0.00  0.00    +0.000 NA
ATOM     37  H   UNL     1      53.194   1.369  19.663  0.00  0.00    +0.000 HD
BRANCH   9   8
ATOM      8  C   UNL     1      54.401   0.786  18.130  0.00  0.00    +0.000 C 
BRANCH   8   7
ATOM      7  C   UNL     1      54.093   0.093  16.807  0.00  0.00    +0.000 C 
BRANCH   7   6
ATOM      6  C   UNL     1      55.156  -0.955  16.501  0.00  0.00    +0.000 C 
BRANCH   6   5
ATOM      5  C   UNL     1      55.015  -2.154  17.430  0.00  0.00    +0.000 C 
BRANCH   5   4
ATOM      4  C   UNL     1      55.440  -3.431  16.715  0.00  0.00    +0.000 C 
BRANCH   4   3
ATOM      3  C   UNL     1      54.253  -4.372  16.542  0.00  0.00    +0.000 C 
BRANCH   3   2
ATOM      1  C   UNL     1      54.060  -4.145  14.055  0.00  0.00    +0.000 C 
ATOM      2  C   UNL     1      54.324  -5.099  15.204  0.00  0.00    +0.000 C 
ENDBRANCH   3   2
ENDBRANCH   4   3
ENDBRANCH   5   4
ENDBRANCH   6   5
ENDBRANCH   7   6
ENDBRANCH   8   7
ENDBRANCH   9   8
ENDBRANCH  10   9
ENDBRANCH  11  10
ENDBRANCH  15  14
ENDBRANCH  16  15
TORSDOF 18
ENDMDL
MODEL 6
REMARK VINA RESULT:    -6.237      1.988      2.395
REMARK INTER + INTRA:         -14.585
REMARK INTER:                 -11.827
REMARK INTRA:                  -2.757
REMARK UNBOUND:                -1.784
REMARK  Name = 
REMARK  20 active torsions:
REMARK  status: ('A' for Active; 'I' for Inactive)
REMARK    1  A    between atoms: C_1  and  C_2
REMARK    2  A    between atoms: C_2  and  C_3
REMARK    3  A    between atoms: C_3  and  C_4
REMARK    4  A    between atoms: C_4  and  C_5
REMARK    5  A    between atoms: C_5  and  C_6
REMARK    6  A    between atoms: C_6  and  C_7
REMARK    7  A    between atoms: C_7  and  C_8
REMARK    8  A    between atoms: C_8  and  N_9
REMARK    9  A    between atoms: N_9  and  C_10
REMARK   10  A    between atoms: C_10  and  C_11
REMARK   11  A    between atoms: C_14  and  C_15
REMARK   12  A    between atoms: C_15  and  N_16
REMARK   13  A    between atoms: C_17  and  C_19
REMARK   14  A    between atoms: C_26  and  O_27
REMARK   15  A    between atoms: O_27  and  C_28
REMARK   16  A    between atoms: C_28  and  C_29
REMARK   17  A    between atoms: C_29  and  C_30
REMARK   18  A    between atoms: C_30  and  C_31
REMARK   19  A    between atoms: C_31  and  C_32
REMARK   20  A    between atoms: C_32  and  C_33
REMARK                            x       y       z     vdW  Elec       q    Type
REMARK                         _______ _______ _______ _____ _____    ______ ____
ROOT
ATOM     16  N   UNL     1      49.841   7.029  14.236  0.00  0.00    +0.000 N 
ATOM     17  C   UNL     1      50.168   7.681  15.394  0.00  0.00    +0.000 C 
ATOM     18  O   UNL     1      49.607   8.717  15.742  0.00  0.00    +0.000 OA
ATOM     38  H   UNL     1      50.334   6.182  13.986  0.00  0.00    +0.000 HD
ENDROOT
BRANCH  17  19
ATOM     19  C   UNL     1      51.200   7.053  16.237  0.00  0.00    +0.000 A 
ATOM     20  C   UNL     1      52.522   7.023  15.815  0.00  0.00    +0.000 A 
ATOM     21  S   UNL     1      53.577   6.279  16.928  0.00  0.00    +0.000 S 
ATOM     22  C   UNL     1      52.295   5.934  17.990  0.00  0.00    +0.000 A 
ATOM     23  N   UNL     1      52.526   5.275  19.139  0.00  0.00    +0.000 NA
ATOM     24  C   UNL     1      51.409   5.065  19.841  0.00  0.00    +0.000 A 
ATOM     25  N   UNL     1      50.170   5.441  19.525  0.00  0.00    +0.000 NA
ATOM     26  C   UNL     1      49.992   6.115  18.377  0.00  0.00    +0.000 A 
ATOM     34  C   UNL     1      51.073   6.395  17.525  0.00  0.00    +0.000 A 
BRANCH  26  27
ATOM     27  O   UNL     1      48.731   6.472  17.990  0.00  0.00    +0.000 OA
BRANCH  27  28
ATOM     28  C   UNL     1      47.657   5.766  18.609  0.00  0.00    +0.000 C 
BRANCH  28  29
ATOM     29  C   UNL     1      47.116   4.748  17.620  0.00  0.00    +0.000 C 
BRANCH  29  30
ATOM     30  C   UNL     1      47.778   3.389  17.792  0.00  0.00    +0.000 C 
BRANCH  30  31
ATOM     31  C   UNL     1      48.280   2.854  16.457  0.00  0.00    +0.000 C 
BRANCH  31  32
ATOM     32  C   UNL     1      49.435   1.889  16.687  0.00  0.00    +0.000 C 
ATOM     33  C   UNL     1      50.638   2.604  17.272  0.00  0.00    +0.000 C 
ENDBRANCH  31  32
ENDBRANCH  30  31
ENDBRANCH  29  30
ENDBRANCH  28  29
ENDBRANCH  27  28
ENDBRANCH  26  27
ENDBRANCH  17  19
BRANCH  16  15
ATOM     15  C   UNL     1      48.842   7.512  13.314  0.00  0.00    +0.000 C 
BRANCH  15  14
ATOM     11  C   UNL     1      45.185   5.178  13.448  0.00  0.00    +0.000 A 
ATOM     12  C   UNL     1      46.375   4.669  13.988  0.00  0.00    +0.000 A 
ATOM     13  C   UNL     1      47.556   5.418  13.952  0.00  0.00    +0.000 A 
ATOM     14  C   UNL     1      47.579   6.686  13.352  0.00  0.00    +0.000 A 
ATOM     35  C   UNL     1      46.399   7.174  12.776  0.00  0.00    +0.000 A 
ATOM     36  C   UNL     1      45.211   6.436  12.838  0.00  0.00    +0.000 A 
BRANCH  11  10
ATOM     10  C   UNL     1      43.898   4.389  13.520  0.00  0.00    +0.000 C 
BRANCH  10   9
ATOM      9  N   UNL     1      43.879   3.353  12.493  0.00  0.00    +0.000 NA
ATOM     37  H   UNL     1      44.829   3.160  12.187  0.00  0.00    +0.000 HD
BRANCH   9   8
ATOM      8  C   UNL     1      43.068   3.751  11.352  0.00  0.00    +0.000 C 
BRANCH   8   7
ATOM      7  C   UNL     1      43.976   3.872  10.133  0.00  0.00    +0.000 C 
BRANCH   7   6
ATOM      6  C   UNL     1      44.974   2.722  10.103  0.00  0.00    +0.000 C 
BRANCH   6   5
ATOM      5  C   UNL     1      44.991   2.056   8.734  0.00  0.00    +0.000 C 
BRANCH   5   4
ATOM      4  C   UNL     1      46.332   2.285   8.049  0.00  0.00    +0.000 C 
BRANCH   4   3
ATOM      3  C   UNL     1      46.236   3.430   7.047  0.00  0.00    +0.000 C 
BRANCH   3   2
ATOM      1  C   UNL     1      47.893   1.984   5.847  0.00  0.00    +0.000 C 
ATOM      2  C   UNL     1      46.789   3.013   5.688  0.00  0.00    +0.000 C 
ENDBRANCH   3   2
ENDBRANCH   4   3
ENDBRANCH   5   4
ENDBRANCH   6   5
ENDBRANCH   7   6
ENDBRANCH   8   7
ENDBRANCH   9   8
ENDBRANCH  10   9
ENDBRANCH  11  10
ENDBRANCH  15  14
ENDBRANCH  16  15
TORSDOF 18
ENDMDL
MODEL 7
REMARK VINA RESULT:    -6.184      2.584      3.577
REMARK INTER + INTRA:         -14.475
REMARK INTER:                 -11.768
REMARK INTRA:                  -2.707
REMARK UNBOUND:                -1.784
REMARK  Name = 
REMARK  20 active torsions:
REMARK  status: ('A' for Active; 'I' for Inactive)
REMARK    1  A    between atoms: C_1  and  C_2
REMARK    2  A    between atoms: C_2  and  C_3
REMARK    3  A    between atoms: C_3  and  C_4
REMARK    4  A    between atoms: C_4  and  C_5
REMARK    5  A    between atoms: C_5  and  C_6
REMARK    6  A    between atoms: C_6  and  C_7
REMARK    7  A    between atoms: C_7  and  C_8
REMARK    8  A    between atoms: C_8  and  N_9
REMARK    9  A    between atoms: N_9  and  C_10
REMARK   10  A    between atoms: C_10  and  C_11
REMARK   11  A    between atoms: C_14  and  C_15
REMARK   12  A    between atoms: C_15  and  N_16
REMARK   13  A    between atoms: C_17  and  C_19
REMARK   14  A    between atoms: C_26  and  O_27
REMARK   15  A    between atoms: O_27  and  C_28
REMARK   16  A    between atoms: C_28  and  C_29
REMARK   17  A    between atoms: C_29  and  C_30
REMARK   18  A    between atoms: C_30  and  C_31
REMARK   19  A    between atoms: C_31  and  C_32
REMARK   20  A    between atoms: C_32  and  C_33
REMARK                            x       y       z     vdW  Elec       q    Type
REMARK                         _______ _______ _______ _____ _____    ______ ____
ROOT
ATOM     16  N   UNL     1      50.161   7.684  12.863  0.00  0.00    +0.000 N 
ATOM     17  C   UNL     1      50.774   8.557  13.722  0.00  0.00    +0.000 C 
ATOM     18  O   UNL     1      50.315   9.673  13.959  0.00  0.00    +0.000 OA
ATOM     38  H   UNL     1      50.579   6.780  12.693  0.00  0.00    +0.000 HD
ENDROOT
BRANCH  17  19
ATOM     19  C   UNL     1      51.995   8.077  14.392  0.00  0.00    +0.000 A 
ATOM     20  C   UNL     1      53.242   8.501  13.957  0.00  0.00    +0.000 A 
ATOM     21  S   UNL     1      54.535   7.862  14.866  0.00  0.00    +0.000 S 
ATOM     22  C   UNL     1      53.472   6.964  15.842  0.00  0.00    +0.000 A 
ATOM     23  N   UNL     1      53.953   6.170  16.815  0.00  0.00    +0.000 NA
ATOM     24  C   UNL     1      52.986   5.519  17.467  0.00  0.00    +0.000 A 
ATOM     25  N   UNL     1      51.672   5.596  17.258  0.00  0.00    +0.000 NA
ATOM     26  C   UNL     1      51.239   6.418  16.289  0.00  0.00    +0.000 A 
ATOM     34  C   UNL     1      52.141   7.156  15.505  0.00  0.00    +0.000 A 
BRANCH  26  27
ATOM     27  O   UNL     1      49.903   6.486  16.006  0.00  0.00    +0.000 OA
BRANCH  27  28
ATOM     28  C   UNL     1      49.151   7.451  16.739  0.00  0.00    +0.000 C 
BRANCH  28  29
ATOM     29  C   UNL     1      48.173   6.718  17.639  0.00  0.00    +0.000 C 
BRANCH  29  30
ATOM     30  C   UNL     1      48.480   5.229  17.710  0.00  0.00    +0.000 C 
BRANCH  30  31
ATOM     31  C   UNL     1      47.278   4.403  17.274  0.00  0.00    +0.000 C 
BRANCH  31  32
ATOM     32  C   UNL     1      47.724   2.995  16.900  0.00  0.00    +0.000 C 
ATOM     33  C   UNL     1      49.181   2.769  17.257  0.00  0.00    +0.000 C 
ENDBRANCH  31  32
ENDBRANCH  30  31
ENDBRANCH  29  30
ENDBRANCH  28  29
ENDBRANCH  27  28
ENDBRANCH  26  27
ENDBRANCH  17  19
BRANCH  16  15
ATOM     15  C   UNL     1      48.954   8.005  12.142  0.00  0.00    +0.000 C 
BRANCH  15  14
ATOM     11  C   UNL     1      45.755   5.203  13.011  0.00  0.00    +0.000 A 
ATOM     12  C   UNL     1      45.537   6.290  12.152  0.00  0.00    +0.000 A 
ATOM     13  C   UNL     1      46.565   7.194  11.865  0.00  0.00    +0.000 A 
ATOM     14  C   UNL     1      47.830   7.044  12.450  0.00  0.00    +0.000 A 
ATOM     35  C   UNL     1      48.034   5.982  13.340  0.00  0.00    +0.000 A 
ATOM     36  C   UNL     1      47.014   5.061  13.604  0.00  0.00    +0.000 A 
BRANCH  11  10
ATOM     10  C   UNL     1      44.660   4.200  13.292  0.00  0.00    +0.000 C 
BRANCH  10   9
ATOM      9  N   UNL     1      44.775   3.056  12.394  0.00  0.00    +0.000 NA
ATOM     37  H   UNL     1      45.616   3.150  11.830  0.00  0.00    +0.000 HD
BRANCH   9   8
ATOM      8  C   UNL     1      43.612   2.944  11.525  0.00  0.00    +0.000 C 
BRANCH   8   7
ATOM      7  C   UNL     1      44.086   2.527  10.136  0.00  0.00    +0.000 C 
BRANCH   7   6
ATOM      6  C   UNL     1      45.368   3.265   9.774  0.00  0.00    +0.000 C 
BRANCH   6   5
ATOM      5  C   UNL     1      45.144   4.185   8.581  0.00  0.00    +0.000 C 
BRANCH   5   4
ATOM      4  C   UNL     1      46.390   4.230   7.705  0.00  0.00    +0.000 C 
BRANCH   4   3
ATOM      3  C   UNL     1      46.354   3.122   6.659  0.00  0.00    +0.000 C 
BRANCH   3   2
ATOM      1  C   UNL     1      47.011   0.838   7.449  0.00  0.00    +0.000 C 
ATOM      2  C   UNL     1      47.507   2.145   6.861  0.00  0.00    +0.000 C 
ENDBRANCH   3   2
ENDBRANCH   4   3
ENDBRANCH   5   4
ENDBRANCH   6   5
ENDBRANCH   7   6
ENDBRANCH   8   7
ENDBRANCH   9   8
ENDBRANCH  10   9
ENDBRANCH  11  10
ENDBRANCH  15  14
ENDBRANCH  16  15
TORSDOF 18
ENDMDL
MODEL 8
REMARK VINA RESULT:    -6.134      2.833      3.909
REMARK INTER + INTRA:         -14.373
REMARK INTER:                 -11.799
REMARK INTRA:                  -2.574
REMARK UNBOUND:                -1.784
REMARK  Name = 
REMARK  20 active torsions:
REMARK  status: ('A' for Active; 'I' for Inactive)
REMARK    1  A    between atoms: C_1  and  C_2
REMARK    2  A    between atoms: C_2  and  C_3
REMARK    3  A    between atoms: C_3  and  C_4
REMARK    4  A    between atoms: C_4  and  C_5
REMARK    5  A    between atoms: C_5  and  C_6
REMARK    6  A    between atoms: C_6  and  C_7
REMARK    7  A    between atoms: C_7  and  C_8
REMARK    8  A    between atoms: C_8  and  N_9
REMARK    9  A    between atoms: N_9  and  C_10
REMARK   10  A    between atoms: C_10  and  C_11
REMARK   11  A    between atoms: C_14  and  C_15
REMARK   12  A    between atoms: C_15  and  N_16
REMARK   13  A    between atoms: C_17  and  C_19
REMARK   14  A    between atoms: C_26  and  O_27
REMARK   15  A    between atoms: O_27  and  C_28
REMARK   16  A    between atoms: C_28  and  C_29
REMARK   17  A    between atoms: C_29  and  C_30
REMARK   18  A    between atoms: C_30  and  C_31
REMARK   19  A    between atoms: C_31  and  C_32
REMARK   20  A    between atoms: C_32  and  C_33
REMARK                            x       y       z     vdW  Elec       q    Type
REMARK                         _______ _______ _______ _____ _____    ______ ____
ROOT
ATOM     16  N   UNL     1      51.567   7.268  14.989  0.00  0.00    +0.000 N 
ATOM     17  C   UNL     1      52.573   7.585  15.861  0.00  0.00    +0.000 C 
ATOM     18  O   UNL     1      52.783   8.740  16.225  0.00  0.00    +0.000 OA
ATOM     38  H   UNL     1      51.436   6.305  14.712  0.00  0.00    +0.000 HD
ENDROOT
BRANCH  17  19
ATOM     19  C   UNL     1      53.371   6.464  16.386  0.00  0.00    +0.000 A 
ATOM     20  C   UNL     1      54.745   6.434  16.192  0.00  0.00    +0.000 A 
ATOM     21  S   UNL     1      55.502   5.075  16.889  0.00  0.00    +0.000 S 
ATOM     22  C   UNL     1      54.014   4.460  17.434  0.00  0.00    +0.000 A 
ATOM     23  N   UNL     1      53.965   3.289  18.093  0.00  0.00    +0.000 NA
ATOM     24  C   UNL     1      52.719   2.942  18.426  0.00  0.00    +0.000 A 
ATOM     25  N   UNL     1      51.597   3.621  18.187  0.00  0.00    +0.000 NA
ATOM     26  C   UNL     1      51.699   4.795  17.544  0.00  0.00    +0.000 A 
ATOM     34  C   UNL     1      52.944   5.282  17.115  0.00  0.00    +0.000 A 
BRANCH  26  27
ATOM     27  O   UNL     1      50.568   5.496  17.232  0.00  0.00    +0.000 OA
BRANCH  27  28
ATOM     28  C   UNL     1      49.901   6.135  18.319  0.00  0.00    +0.000 C 
BRANCH  28  29
ATOM     29  C   UNL     1      48.469   6.421  17.905  0.00  0.00    +0.000 C 
BRANCH  29  30
ATOM     30  C   UNL     1      47.511   5.354  18.412  0.00  0.00    +0.000 C 
BRANCH  30  31
ATOM     31  C   UNL     1      47.202   4.336  17.322  0.00  0.00    +0.000 C 
BRANCH  31  32
ATOM     32  C   UNL     1      47.803   2.985  17.690  0.00  0.00    +0.000 C 
ATOM     33  C   UNL     1      48.567   2.389  16.523  0.00  0.00    +0.000 C 
ENDBRANCH  31  32
ENDBRANCH  30  31
ENDBRANCH  29  30
ENDBRANCH  28  29
ENDBRANCH  27  28
ENDBRANCH  26  27
ENDBRANCH  17  19
BRANCH  16  15
ATOM     15  C   UNL     1      50.694   8.253  14.400  0.00  0.00    +0.000 C 
BRANCH  15  14
ATOM     11  C   UNL     1      47.269   6.504  12.389  0.00  0.00    +0.000 A 
ATOM     12  C   UNL     1      47.531   6.212  13.736  0.00  0.00    +0.000 A 
ATOM     13  C   UNL     1      48.631   6.775  14.391  0.00  0.00    +0.000 A 
ATOM     14  C   UNL     1      49.508   7.628  13.705  0.00  0.00    +0.000 A 
ATOM     35  C   UNL     1      49.269   7.885  12.349  0.00  0.00    +0.000 A 
ATOM     36  C   UNL     1      48.152   7.344  11.703  0.00  0.00    +0.000 A 
BRANCH  11  10
ATOM     10  C   UNL     1      46.059   5.929  11.689  0.00  0.00    +0.000 C 
BRANCH  10   9
ATOM      9  N   UNL     1      45.356   5.001  12.569  0.00  0.00    +0.000 NA
ATOM     37  H   UNL     1      45.931   4.804  13.384  0.00  0.00    +0.000 HD
BRANCH   9   8
ATOM      8  C   UNL     1      45.037   3.757  11.883  0.00  0.00    +0.000 C 
BRANCH   8   7
ATOM      7  C   UNL     1      44.459   4.095  10.513  0.00  0.00    +0.000 C 
BRANCH   7   6
ATOM      6  C   UNL     1      44.575   2.896   9.581  0.00  0.00    +0.000 C 
BRANCH   6   5
ATOM      5  C   UNL     1      44.631   3.345   8.127  0.00  0.00    +0.000 C 
BRANCH   5   4
ATOM      4  C   UNL     1      45.980   3.983   7.821  0.00  0.00    +0.000 C 
BRANCH   4   3
ATOM      3  C   UNL     1      46.577   3.395   6.548  0.00  0.00    +0.000 C 
BRANCH   3   2
ATOM      1  C   UNL     1      47.262   1.105   7.295  0.00  0.00    +0.000 C 
ATOM      2  C   UNL     1      47.751   2.476   6.870  0.00  0.00    +0.000 C 
ENDBRANCH   3   2
ENDBRANCH   4   3
ENDBRANCH   5   4
ENDBRANCH   6   5
ENDBRANCH   7   6
ENDBRANCH   8   7
ENDBRANCH   9   8
ENDBRANCH  10   9
ENDBRANCH  11  10
ENDBRANCH  15  14
ENDBRANCH  16  15
TORSDOF 18
ENDMDL
MODEL 9
REMARK VINA RESULT:    -6.091      2.616      8.968
REMARK INTER + INTRA:         -14.285
REMARK INTER:                 -10.556
REMARK INTRA:                  -3.729
REMARK UNBOUND:                -1.784
REMARK  Name = 
REMARK  20 active torsions:
REMARK  status: ('A' for Active; 'I' for Inactive)
REMARK    1  A    between atoms: C_1  and  C_2
REMARK    2  A    between atoms: C_2  and  C_3
REMARK    3  A    between atoms: C_3  and  C_4
REMARK    4  A    between atoms: C_4  and  C_5
REMARK    5  A    between atoms: C_5  and  C_6
REMARK    6  A    between atoms: C_6  and  C_7
REMARK    7  A    between atoms: C_7  and  C_8
REMARK    8  A    between atoms: C_8  and  N_9
REMARK    9  A    between atoms: N_9  and  C_10
REMARK   10  A    between atoms: C_10  and  C_11
REMARK   11  A    between atoms: C_14  and  C_15
REMARK   12  A    between atoms: C_15  and  N_16
REMARK   13  A    between atoms: C_17  and  C_19
REMARK   14  A    between atoms: C_26  and  O_27
REMARK   15  A    between atoms: O_27  and  C_28
REMARK   16  A    between atoms: C_28  and  C_29
REMARK   17  A    between atoms: C_29  and  C_30
REMARK   18  A    between atoms: C_30  and  C_31
REMARK   19  A    between atoms: C_31  and  C_32
REMARK   20  A    between atoms: C_32  and  C_33
REMARK                            x       y       z     vdW  Elec       q    Type
REMARK                         _______ _______ _______ _____ _____    ______ ____
ROOT
ATOM     16  N   UNL     1      46.736   5.523  14.424  0.00  0.00    +0.000 N 
ATOM     17  C   UNL     1      47.563   6.151  13.533  0.00  0.00    +0.000 C 
ATOM     18  O   UNL     1      48.568   5.609  13.078  0.00  0.00    +0.000 OA
ATOM     38  H   UNL     1      45.924   6.011  14.777  0.00  0.00    +0.000 HD
ENDROOT
BRANCH  17  19
ATOM     19  C   UNL     1      47.165   7.502  13.100  0.00  0.00    +0.000 A 
ATOM     20  C   UNL     1      47.948   8.599  13.430  0.00  0.00    +0.000 A 
ATOM     21  S   UNL     1      47.344  10.074  12.826  0.00  0.00    +0.000 S 
ATOM     22  C   UNL     1      45.994   9.301  12.142  0.00  0.00    +0.000 A 
ATOM     23  N   UNL     1      45.060  10.017  11.492  0.00  0.00    +0.000 NA
ATOM     24  C   UNL     1      44.057   9.258  11.041  0.00  0.00    +0.000 A 
ATOM     25  N   UNL     1      43.921   7.938  11.160  0.00  0.00    +0.000 NA
ATOM     26  C   UNL     1      44.891   7.263  11.799  0.00  0.00    +0.000 A 
ATOM     34  C   UNL     1      46.000   7.930  12.344  0.00  0.00    +0.000 A 
BRANCH  26  27
ATOM     27  O   UNL     1      44.765   5.916  11.990  0.00  0.00    +0.000 OA
BRANCH  27  28
ATOM     28  C   UNL     1      45.309   5.080  10.971  0.00  0.00    +0.000 C 
BRANCH  28  29
ATOM     29  C   UNL     1      44.274   4.033  10.602  0.00  0.00    +0.000 C 
BRANCH  29  30
ATOM     30  C   UNL     1      44.767   3.120   9.489  0.00  0.00    +0.000 C 
BRANCH  30  31
ATOM     31  C   UNL     1      44.872   3.875   8.170  0.00  0.00    +0.000 C 
BRANCH  31  32
ATOM     32  C   UNL     1      46.311   3.846   7.671  0.00  0.00    +0.000 C 
ATOM     33  C   UNL     1      46.439   3.005   6.415  0.00  0.00    +0.000 C 
ENDBRANCH  31  32
ENDBRANCH  30  31
ENDBRANCH  29  30
ENDBRANCH  28  29
ENDBRANCH  27  28
ENDBRANCH  26  27
ENDBRANCH  17  19
BRANCH  16  15
ATOM     15  C   UNL     1      46.985   4.196  14.931  0.00  0.00    +0.000 C 
BRANCH  15  14
ATOM     11  C   UNL     1      48.524   4.294  18.988  0.00  0.00    +0.000 A 
ATOM     12  C   UNL     1      48.961   3.315  18.084  0.00  0.00    +0.000 A 
ATOM     13  C   UNL     1      48.472   3.280  16.773  0.00  0.00    +0.000 A 
ATOM     14  C   UNL     1      47.516   4.212  16.345  0.00  0.00    +0.000 A 
ATOM     35  C   UNL     1      47.050   5.163  17.262  0.00  0.00    +0.000 A 
ATOM     36  C   UNL     1      47.561   5.215  18.564  0.00  0.00    +0.000 A 
BRANCH  11  10
ATOM     10  C   UNL     1      49.080   4.359  20.392  0.00  0.00    +0.000 C 
BRANCH  10   9
ATOM      9  N   UNL     1      50.539   4.360  20.362  0.00  0.00    +0.000 NA
ATOM     37  H   UNL     1      50.898   4.217  21.302  0.00  0.00    +0.000 HD
BRANCH   9   8
ATOM      8  C   UNL     1      51.059   5.608  19.823  0.00  0.00    +0.000 C 
BRANCH   8   7
ATOM      7  C   UNL     1      52.033   5.279  18.697  0.00  0.00    +0.000 C 
BRANCH   7   6
ATOM      6  C   UNL     1      51.538   5.869  17.383  0.00  0.00    +0.000 C 
BRANCH   6   5
ATOM      5  C   UNL     1      50.803   7.181  17.623  0.00  0.00    +0.000 C 
BRANCH   5   4
ATOM      4  C   UNL     1      49.794   7.436  16.509  0.00  0.00    +0.000 C 
BRANCH   4   3
ATOM      3  C   UNL     1      48.701   8.387  16.981  0.00  0.00    +0.000 C 
BRANCH   3   2
ATOM      1  C   UNL     1      47.399   9.018  19.026  0.00  0.00    +0.000 C 
ATOM      2  C   UNL     1      48.744   8.560  18.496  0.00  0.00    +0.000 C 
ENDBRANCH   3   2
ENDBRANCH   4   3
ENDBRANCH   5   4
ENDBRANCH   6   5
ENDBRANCH   7   6
ENDBRANCH   8   7
ENDBRANCH   9   8
ENDBRANCH  10   9
ENDBRANCH  11  10
ENDBRANCH  15  14
ENDBRANCH  16  15
TORSDOF 18
ENDMDL
