MODEL 1
REMARK VINA RESULT:    -7.287      0.000      0.000
REMARK INTER + INTRA:          -9.054
REMARK INTER:                  -8.990
REMARK INTRA:                  -0.063
REMARK UNBOUND:                -0.063
REMARK  Name = 
REMARK  5 active torsions:
REMARK  status: ('A' for Active; 'I' for Inactive)
REMARK    1  A    between atoms: C_1  and  N_2
REMARK    2  A    between atoms: N_2  and  C_18
REMARK    3  A    between atoms: C_3  and  C_5
REMARK    4  A    between atoms: C_5  and  N_6
REMARK    5  A    between atoms: C_11  and  C_12
REMARK                            x       y       z     vdW  Elec       q    Type
REMARK                         _______ _______ _______ _____ _____    ______ ____
ROOT
ATOM      6  N   UNL     1      44.211   4.211  10.451  0.00  0.00    +0.000 N 
ATOM      7  C   UNL     1      43.634   3.068  10.950  0.00  0.00    +0.000 A 
ATOM      8  C   UNL     1      44.165   1.989  10.278  0.00  0.00    +0.000 A 
ATOM      9  C   UNL     1      45.040   2.495   9.283  0.00  0.00    +0.000 A 
ATOM     10  C   UNL     1      45.836   1.920   8.277  0.00  0.00    +0.000 A 
ATOM     11  C   UNL     1      46.557   2.776   7.442  0.00  0.00    +0.000 A 
ATOM     15  C   UNL     1      46.452   4.151   7.657  0.00  0.00    +0.000 A 
ATOM     16  N   UNL     1      45.713   4.758   8.623  0.00  0.00    +0.000 NA
ATOM     17  C   UNL     1      45.039   3.882   9.398  0.00  0.00    +0.000 A 
ENDROOT
BRANCH  11  12
ATOM     12  C   UNL     1      47.421   2.298   6.335  0.00  0.00    +0.000 C 
ATOM     13  N   UNL     1      47.358   2.937   5.129  0.00  0.00    +0.000 N 
ATOM     14  O   UNL     1      48.182   1.347   6.490  0.00  0.00    +0.000 OA
ATOM     24  H   UNL     1      46.759   3.716   4.908  0.00  0.00    +0.000 HD
ATOM     25  H   UNL     1      47.956   2.585   4.392  0.00  0.00    +0.000 HD
ENDBRANCH  11  12
BRANCH   6   5
ATOM      5  C   UNL     1      43.921   5.576  10.881  0.00  0.00    +0.000 C 
BRANCH   5   3
ATOM      1  C   UNL     1      46.622   6.799  10.841  0.00  0.00    +0.000 C 
ATOM      2  N   UNL     1      45.919   6.543  12.096  0.00  0.00    +0.000 N 
ATOM      3  C   UNL     1      44.629   5.990  12.172  0.00  0.00    +0.000 C 
ATOM      4  O   UNL     1      44.053   5.901  13.261  0.00  0.00    +0.000 OA
BRANCH   2  18
ATOM     18  C   UNL     1      46.523   7.024  13.372  0.00  0.00    +0.000 C 
ATOM     19  C   UNL     1      46.644   8.557  13.430  0.00  0.00    +0.000 C 
ATOM     20  C   UNL     1      47.907   9.075  12.752  0.00  0.00    +0.000 C 
ATOM     21  N   UNL     1      49.115   8.451  13.291  0.00  0.00    +0.000 NA
ATOM     22  C   UNL     1      49.085   6.996  13.158  0.00  0.00    +0.000 C 
ATOM     23  C   UNL     1      47.846   6.363  13.789  0.00  0.00    +0.000 C 
ATOM     26  H   UNL     1      49.208   8.699  14.277  0.00  0.00    +0.000 HD
ENDBRANCH   2  18
ENDBRANCH   5   3
ENDBRANCH   6   5
TORSDOF 4
ENDMDL
MODEL 2
REMARK VINA RESULT:    -6.477      3.831      8.461
REMARK INTER + INTRA:          -8.055
REMARK INTER:                  -7.862
REMARK INTRA:                  -0.193
REMARK UNBOUND:                -0.063
REMARK  Name = 
REMARK  5 active torsions:
REMARK  status: ('A' for Active; 'I' for Inactive)
REMARK    1  A    between atoms: C_1  and  N_2
REMARK    2  A    between atoms: N_2  and  C_18
REMARK    3  A    between atoms: C_3  and  C_5
REMARK    4  A    between atoms: C_5  and  N_6
REMARK    5  A    between atoms: C_11  and  C_12
REMARK                            x       y       z     vdW  Elec       q    Type
REMARK                         _______ _______ _______ _____ _____    ______ ____
ROOT
ATOM      6  N   UNL     1      48.430   6.876  14.663  0.00  0.00    +0.000 N 
ATOM      7  C   UNL     1      48.656   8.193  14.986  0.00  0.00    +0.000 A 
ATOM      8  C   UNL     1      48.962   8.259  16.328  0.00  0.00    +0.000 A 
ATOM      9  C   UNL     1      48.843   6.949  16.858  0.00  0.00    +0.000 A 
ATOM     10  C   UNL     1      48.986   6.381  18.135  0.00  0.00    +0.000 A 
ATOM     11  C   UNL     1      48.747   5.011  18.273  0.00  0.00    +0.000 A 
ATOM     15  C   UNL     1      48.386   4.286  17.137  0.00  0.00    +0.000 A 
ATOM     16  N   UNL     1      48.251   4.782  15.878  0.00  0.00    +0.000 NA
ATOM     17  C   UNL     1      48.494   6.108  15.806  0.00  0.00    +0.000 A 
ENDROOT
BRANCH  11  12
ATOM     12  C   UNL     1      48.848   4.292  19.567  0.00  0.00    +0.000 C 
ATOM     13  N   UNL     1      48.418   2.997  19.635  0.00  0.00    +0.000 N 
ATOM     14  O   UNL     1      49.309   4.842  20.563  0.00  0.00    +0.000 OA
ATOM     24  H   UNL     1      48.019   2.471  18.875  0.00  0.00    +0.000 HD
ATOM     25  H   UNL     1      48.497   2.535  20.532  0.00  0.00    +0.000 HD
ENDBRANCH  11  12
BRANCH   6   5
ATOM      5  C   UNL     1      48.069   6.367  13.342  0.00  0.00    +0.000 C 
BRANCH   5   3
ATOM      1  C   UNL     1      46.361   3.955  13.114  0.00  0.00    +0.000 C 
ATOM      2  N   UNL     1      45.821   5.295  12.896  0.00  0.00    +0.000 N 
ATOM      3  C   UNL     1      46.579   6.473  13.016  0.00  0.00    +0.000 C 
ATOM      4  O   UNL     1      46.032   7.577  12.923  0.00  0.00    +0.000 OA
BRANCH   2  18
ATOM     18  C   UNL     1      44.354   5.455  12.680  0.00  0.00    +0.000 C 
ATOM     19  C   UNL     1      43.533   4.319  13.313  0.00  0.00    +0.000 C 
ATOM     20  C   UNL     1      43.431   3.092  12.414  0.00  0.00    +0.000 C 
ATOM     21  N   UNL     1      42.901   3.423  11.091  0.00  0.00    +0.000 NA
ATOM     22  C   UNL     1      43.717   4.427  10.411  0.00  0.00    +0.000 C 
ATOM     23  C   UNL     1      43.904   5.702  11.232  0.00  0.00    +0.000 C 
ATOM     26  H   UNL     1      41.948   3.773  11.192  0.00  0.00    +0.000 HD
ENDBRANCH   2  18
ENDBRANCH   5   3
ENDBRANCH   6   5
TORSDOF 4
ENDMDL
MODEL 3
REMARK VINA RESULT:    -6.242      4.222      6.068
REMARK INTER + INTRA:          -7.765
REMARK INTER:                  -7.617
REMARK INTRA:                  -0.148
REMARK UNBOUND:                -0.063
REMARK  Name = 
REMARK  5 active torsions:
REMARK  status: ('A' for Active; 'I' for Inactive)
REMARK    1  A    between atoms: C_1  and  N_2
REMARK    2  A    between atoms: N_2  and  C_18
REMARK    3  A    between atoms: C_3  and  C_5
REMARK    4  A    between atoms: C_5  and  N_6
REMARK    5  A    between atoms: C_11  and  C_12
REMARK                            x       y       z     vdW  Elec       q    Type
REMARK                         _______ _______ _______ _____ _____    ______ ____
ROOT
ATOM      6  N   UNL     1      47.448   4.578  14.601  0.00  0.00    +0.000 N 
ATOM      7  C   UNL     1      47.907   5.874  14.574  0.00  0.00    +0.000 A 
ATOM      8  C   UNL     1      47.257   6.538  13.557  0.00  0.00    +0.000 A 
ATOM      9  C   UNL     1      46.430   5.596  12.892  0.00  0.00    +0.000 A 
ATOM     10  C   UNL     1      45.569   5.644  11.783  0.00  0.00    +0.000 A 
ATOM     11  C   UNL     1      44.933   4.461  11.396  0.00  0.00    +0.000 A 
ATOM     15  C   UNL     1      45.185   3.305  12.134  0.00  0.00    +0.000 A 
ATOM     16  N   UNL     1      45.994   3.208  13.223  0.00  0.00    +0.000 NA
ATOM     17  C   UNL     1      46.580   4.379  13.550  0.00  0.00    +0.000 A 
ENDROOT
BRANCH  11  12
ATOM     12  C   UNL     1      44.012   4.372  10.236  0.00  0.00    +0.000 C 
ATOM     13  N   UNL     1      44.216   3.391   9.308  0.00  0.00    +0.000 N 
ATOM     14  O   UNL     1      43.081   5.162  10.104  0.00  0.00    +0.000 OA
ATOM     24  H   UNL     1      44.956   2.708   9.329  0.00  0.00    +0.000 HD
ATOM     25  H   UNL     1      43.574   3.359   8.526  0.00  0.00    +0.000 HD
ENDBRANCH  11  12
BRANCH   6   5
ATOM      5  C   UNL     1      47.885   3.534  15.524  0.00  0.00    +0.000 C 
BRANCH   5   3
ATOM      1  C   UNL     1      49.838   4.819  17.347  0.00  0.00    +0.000 C 
ATOM      2  N   UNL     1      48.519   4.400  17.815  0.00  0.00    +0.000 N 
ATOM      3  C   UNL     1      47.546   3.810  16.989  0.00  0.00    +0.000 C 
ATOM      4  O   UNL     1      46.414   3.580  17.428  0.00  0.00    +0.000 OA
BRANCH   2  18
ATOM     18  C   UNL     1      48.105   4.744  19.206  0.00  0.00    +0.000 C 
ATOM     19  C   UNL     1      47.289   6.046  19.278  0.00  0.00    +0.000 C 
ATOM     20  C   UNL     1      48.166   7.290  19.338  0.00  0.00    +0.000 C 
ATOM     21  N   UNL     1      49.126   7.233  20.440  0.00  0.00    +0.000 NA
ATOM     22  C   UNL     1      49.994   6.061  20.349  0.00  0.00    +0.000 C 
ATOM     23  C   UNL     1      49.219   4.747  20.265  0.00  0.00    +0.000 C 
ATOM     26  H   UNL     1      48.618   7.210  21.325  0.00  0.00    +0.000 HD
ENDBRANCH   2  18
ENDBRANCH   5   3
ENDBRANCH   6   5
TORSDOF 4
ENDMDL
MODEL 4
REMARK VINA RESULT:    -6.218      3.053      6.858
REMARK INTER + INTRA:          -7.735
REMARK INTER:                  -7.481
REMARK INTRA:                  -0.255
REMARK UNBOUND:                -0.063
REMARK  Name = 
REMARK  5 active torsions:
REMARK  status: ('A' for Active; 'I' for Inactive)
REMARK    1  A    between atoms: C_1  and  N_2
REMARK    2  A    between atoms: N_2  and  C_18
REMARK    3  A    between atoms: C_3  and  C_5
REMARK    4  A    between atoms: C_5  and  N_6
REMARK    5  A    between atoms: C_11  and  C_12
REMARK                            x       y       z     vdW  Elec       q    Type
REMARK                         _______ _______ _______ _____ _____    ______ ____
ROOT
ATOM      6  N   UNL     1      46.824   8.822  12.359  0.00  0.00    +0.000 N 
ATOM      7  C   UNL     1      46.542  10.149  12.135  0.00  0.00    +0.000 A 
ATOM      8  C   UNL     1      47.666  10.744  11.607  0.00  0.00    +0.000 A 
ATOM      9  C   UNL     1      48.693   9.767  11.579  0.00  0.00    +0.000 A 
ATOM     10  C   UNL     1      50.045   9.761  11.196  0.00  0.00    +0.000 A 
ATOM     11  C   UNL     1      50.766   8.574  11.351  0.00  0.00    +0.000 A 
ATOM     15  C   UNL     1      50.102   7.463  11.871  0.00  0.00    +0.000 A 
ATOM     16  N   UNL     1      48.794   7.409  12.240  0.00  0.00    +0.000 NA
ATOM     17  C   UNL     1      48.150   8.582  12.068  0.00  0.00    +0.000 A 
ENDROOT
BRANCH  11  12
ATOM     12  C   UNL     1      52.201   8.439  10.999  0.00  0.00    +0.000 C 
ATOM     13  N   UNL     1      53.023   7.751  11.845  0.00  0.00    +0.000 N 
ATOM     14  O   UNL     1      52.650   8.935   9.969  0.00  0.00    +0.000 OA
ATOM     24  H   UNL     1      52.746   7.321  12.712  0.00  0.00    +0.000 HD
ATOM     25  H   UNL     1      53.998   7.679  11.579  0.00  0.00    +0.000 HD
ENDBRANCH  11  12
BRANCH   6   5
ATOM      5  C   UNL     1      45.907   7.833  12.920  0.00  0.00    +0.000 C 
BRANCH   5   3
ATOM      1  C   UNL     1      45.915   4.901  12.479  0.00  0.00    +0.000 C 
ATOM      2  N   UNL     1      45.048   5.786  11.706  0.00  0.00    +0.000 N 
ATOM      3  C   UNL     1      44.985   7.179  11.891  0.00  0.00    +0.000 C 
ATOM      4  O   UNL     1      44.151   7.851  11.276  0.00  0.00    +0.000 OA
BRANCH   2  18
ATOM     18  C   UNL     1      44.057   5.185  10.767  0.00  0.00    +0.000 C 
ATOM     19  C   UNL     1      42.950   4.401  11.493  0.00  0.00    +0.000 C 
ATOM     20  C   UNL     1      43.359   2.969  11.821  0.00  0.00    +0.000 C 
ATOM     21  N   UNL     1      43.801   2.239  10.634  0.00  0.00    +0.000 NA
ATOM     22  C   UNL     1      44.924   2.900   9.972  0.00  0.00    +0.000 C 
ATOM     23  C   UNL     1      44.634   4.355   9.610  0.00  0.00    +0.000 C 
ATOM     26  H   UNL     1      43.021   2.162   9.980  0.00  0.00    +0.000 HD
ENDBRANCH   2  18
ENDBRANCH   5   3
ENDBRANCH   6   5
TORSDOF 4
ENDMDL
MODEL 5
REMARK VINA RESULT:    -6.212      3.828      6.345
REMARK INTER + INTRA:          -7.728
REMARK INTER:                  -7.468
REMARK INTRA:                  -0.261
REMARK UNBOUND:                -0.063
REMARK  Name = 
REMARK  5 active torsions:
REMARK  status: ('A' for Active; 'I' for Inactive)
REMARK    1  A    between atoms: C_1  and  N_2
REMARK    2  A    between atoms: N_2  and  C_18
REMARK    3  A    between atoms: C_3  and  C_5
REMARK    4  A    between atoms: C_5  and  N_6
REMARK    5  A    between atoms: C_11  and  C_12
REMARK                            x       y       z     vdW  Elec       q    Type
REMARK                         _______ _______ _______ _____ _____    ______ ____
ROOT
ATOM      6  N   UNL     1      47.497   7.186  13.714  0.00  0.00    +0.000 N 
ATOM      7  C   UNL     1      46.926   8.400  13.417  0.00  0.00    +0.000 A 
ATOM      8  C   UNL     1      45.666   8.170  12.908  0.00  0.00    +0.000 A 
ATOM      9  C   UNL     1      45.492   6.765  12.821  0.00  0.00    +0.000 A 
ATOM     10  C   UNL     1      44.467   5.921  12.362  0.00  0.00    +0.000 A 
ATOM     11  C   UNL     1      44.684   4.541  12.407  0.00  0.00    +0.000 A 
ATOM     15  C   UNL     1      45.903   4.082  12.908  0.00  0.00    +0.000 A 
ATOM     16  N   UNL     1      46.919   4.852  13.379  0.00  0.00    +0.000 NA
ATOM     17  C   UNL     1      46.653   6.174  13.311  0.00  0.00    +0.000 A 
ENDROOT
BRANCH  11  12
ATOM     12  C   UNL     1      43.690   3.543  11.941  0.00  0.00    +0.000 C 
ATOM     13  N   UNL     1      43.694   2.299  12.503  0.00  0.00    +0.000 N 
ATOM     14  O   UNL     1      42.875   3.822  11.065  0.00  0.00    +0.000 OA
ATOM     24  H   UNL     1      44.329   1.980  13.217  0.00  0.00    +0.000 HD
ATOM     25  H   UNL     1      43.007   1.639  12.162  0.00  0.00    +0.000 HD
ENDBRANCH  11  12
BRANCH   6   5
ATOM      5  C   UNL     1      48.834   6.979  14.266  0.00  0.00    +0.000 C 
BRANCH   5   3
ATOM      1  C   UNL     1      48.383   5.029  16.454  0.00  0.00    +0.000 C 
ATOM      2  N   UNL     1      48.725   6.422  16.732  0.00  0.00    +0.000 N 
ATOM      3  C   UNL     1      48.973   7.382  15.735  0.00  0.00    +0.000 C 
ATOM      4  O   UNL     1      49.362   8.513  16.042  0.00  0.00    +0.000 OA
BRANCH   2  18
ATOM     18  C   UNL     1      48.975   6.835  18.143  0.00  0.00    +0.000 C 
ATOM     19  C   UNL     1      49.908   5.865  18.889  0.00  0.00    +0.000 C 
ATOM     20  C   UNL     1      49.168   4.668  19.475  0.00  0.00    +0.000 C 
ATOM     21  N   UNL     1      48.063   5.077  20.343  0.00  0.00    +0.000 NA
ATOM     22  C   UNL     1      47.097   5.917  19.639  0.00  0.00    +0.000 C 
ATOM     23  C   UNL     1      47.732   7.146  18.990  0.00  0.00    +0.000 C 
ATOM     26  H   UNL     1      48.438   5.590  21.142  0.00  0.00    +0.000 HD
ENDBRANCH   2  18
ENDBRANCH   5   3
ENDBRANCH   6   5
TORSDOF 4
ENDMDL
MODEL 6
REMARK VINA RESULT:    -5.995      3.875      6.549
REMARK INTER + INTRA:          -7.461
REMARK INTER:                  -7.667
REMARK INTRA:                   0.207
REMARK UNBOUND:                -0.063
REMARK  Name = 
REMARK  5 active torsions:
REMARK  status: ('A' for Active; 'I' for Inactive)
REMARK    1  A    between atoms: C_1  and  N_2
REMARK    2  A    between atoms: N_2  and  C_18
REMARK    3  A    between atoms: C_3  and  C_5
REMARK    4  A    between atoms: C_5  and  N_6
REMARK    5  A    between atoms: C_11  and  C_12
REMARK                            x       y       z     vdW  Elec       q    Type
REMARK                         _______ _______ _______ _____ _____    ______ ____
ROOT
ATOM      6  N   UNL     1      46.403   5.916  12.422  0.00  0.00    +0.000 N 
ATOM      7  C   UNL     1      45.645   5.011  11.718  0.00  0.00    +0.000 A 
ATOM      8  C   UNL     1      44.672   5.705  11.034  0.00  0.00    +0.000 A 
ATOM      9  C   UNL     1      44.792   7.072  11.392  0.00  0.00    +0.000 A 
ATOM     10  C   UNL     1      44.089   8.246  11.069  0.00  0.00    +0.000 A 
ATOM     11  C   UNL     1      44.498   9.440  11.668  0.00  0.00    +0.000 A 
ATOM     15  C   UNL     1      45.582   9.400  12.546  0.00  0.00    +0.000 A 
ATOM     16  N   UNL     1      46.306   8.299  12.879  0.00  0.00    +0.000 NA
ATOM     17  C   UNL     1      45.865   7.176  12.271  0.00  0.00    +0.000 A 
ENDROOT
BRANCH  11  12
ATOM     12  C   UNL     1      43.834  10.744  11.424  0.00  0.00    +0.000 C 
ATOM     13  N   UNL     1      42.743  11.078  12.176  0.00  0.00    +0.000 N 
ATOM     14  O   UNL     1      44.249  11.516  10.564  0.00  0.00    +0.000 OA
ATOM     24  H   UNL     1      42.329  10.506  12.894  0.00  0.00    +0.000 HD
ATOM     25  H   UNL     1      42.310  11.972  11.984  0.00  0.00    +0.000 HD
ENDBRANCH  11  12
BRANCH   6   5
ATOM      5  C   UNL     1      47.536   5.597  13.287  0.00  0.00    +0.000 C 
BRANCH   5   3
ATOM      1  C   UNL     1      48.680   6.182  15.959  0.00  0.00    +0.000 C 
ATOM      2  N   UNL     1      47.763   5.064  15.750  0.00  0.00    +0.000 N 
ATOM      3  C   UNL     1      47.172   4.757  14.512  0.00  0.00    +0.000 C 
ATOM      4  O   UNL     1      46.323   3.863  14.432  0.00  0.00    +0.000 OA
BRANCH   2  18
ATOM     18  C   UNL     1      47.298   4.282  16.932  0.00  0.00    +0.000 C 
ATOM     19  C   UNL     1      47.410   5.071  18.248  0.00  0.00    +0.000 C 
ATOM     20  C   UNL     1      48.800   4.992  18.867  0.00  0.00    +0.000 C 
ATOM     21  N   UNL     1      49.234   3.610  19.068  0.00  0.00    +0.000 NA
ATOM     22  C   UNL     1      49.242   2.852  17.818  0.00  0.00    +0.000 C 
ATOM     23  C   UNL     1      47.897   2.876  17.095  0.00  0.00    +0.000 C 
ATOM     26  H   UNL     1      48.607   3.156  19.734  0.00  0.00    +0.000 HD
ENDBRANCH   2  18
ENDBRANCH   5   3
ENDBRANCH   6   5
TORSDOF 4
ENDMDL
MODEL 7
REMARK VINA RESULT:    -5.908      3.847      6.176
REMARK INTER + INTRA:          -7.353
REMARK INTER:                  -7.110
REMARK INTRA:                  -0.243
REMARK UNBOUND:                -0.063
REMARK  Name = 
REMARK  5 active torsions:
REMARK  status: ('A' for Active; 'I' for Inactive)
REMARK    1  A    between atoms: C_1  and  N_2
REMARK    2  A    between atoms: N_2  and  C_18
REMARK    3  A    between atoms: C_3  and  C_5
REMARK    4  A    between atoms: C_5  and  N_6
REMARK    5  A    between atoms: C_11  and  C_12
REMARK                            x       y       z     vdW  Elec       q    Type
REMARK                         _______ _______ _______ _____ _____    ______ ____
ROOT
ATOM      6  N   UNL     1      47.540   7.264  13.690  0.00  0.00    +0.000 N 
ATOM      7  C   UNL     1      46.954   8.484  13.448  0.00  0.00    +0.000 A 
ATOM      8  C   UNL     1      45.676   8.263  12.985  0.00  0.00    +0.000 A 
ATOM      9  C   UNL     1      45.502   6.860  12.867  0.00  0.00    +0.000 A 
ATOM     10  C   UNL     1      44.460   6.025  12.428  0.00  0.00    +0.000 A 
ATOM     11  C   UNL     1      44.683   4.646  12.427  0.00  0.00    +0.000 A 
ATOM     15  C   UNL     1      45.921   4.177  12.866  0.00  0.00    +0.000 A 
ATOM     16  N   UNL     1      46.954   4.938  13.317  0.00  0.00    +0.000 NA
ATOM     17  C   UNL     1      46.682   6.260  13.295  0.00  0.00    +0.000 A 
ENDROOT
BRANCH  11  12
ATOM     12  C   UNL     1      43.673   3.657  11.974  0.00  0.00    +0.000 C 
ATOM     13  N   UNL     1      43.685   2.406  12.524  0.00  0.00    +0.000 N 
ATOM     14  O   UNL     1      42.838   3.949  11.122  0.00  0.00    +0.000 OA
ATOM     24  H   UNL     1      44.335   2.077  13.219  0.00  0.00    +0.000 HD
ATOM     25  H   UNL     1      42.986   1.753  12.192  0.00  0.00    +0.000 HD
ENDBRANCH  11  12
BRANCH   6   5
ATOM      5  C   UNL     1      48.898   7.047  14.183  0.00  0.00    +0.000 C 
BRANCH   5   3
ATOM      1  C   UNL     1      49.152   9.067  16.338  0.00  0.00    +0.000 C 
ATOM      2  N   UNL     1      49.117   7.637  16.633  0.00  0.00    +0.000 N 
ATOM      3  C   UNL     1      48.972   6.638  15.654  0.00  0.00    +0.000 C 
ATOM      4  O   UNL     1      48.842   5.455  15.986  0.00  0.00    +0.000 OA
BRANCH   2  18
ATOM     18  C   UNL     1      49.080   7.196  18.057  0.00  0.00    +0.000 C 
ATOM     19  C   UNL     1      47.715   7.444  18.721  0.00  0.00    +0.000 C 
ATOM     20  C   UNL     1      47.570   8.863  19.260  0.00  0.00    +0.000 C 
ATOM     21  N   UNL     1      48.651   9.213  20.180  0.00  0.00    +0.000 NA
ATOM     22  C   UNL     1      49.965   9.090  19.553  0.00  0.00    +0.000 C 
ATOM     23  C   UNL     1      50.217   7.706  18.956  0.00  0.00    +0.000 C 
ATOM     26  H   UNL     1      48.608   8.601  20.996  0.00  0.00    +0.000 HD
ENDBRANCH   2  18
ENDBRANCH   5   3
ENDBRANCH   6   5
TORSDOF 4
ENDMDL
MODEL 8
REMARK VINA RESULT:    -5.839      4.595      8.777
REMARK INTER + INTRA:          -7.267
REMARK INTER:                  -7.394
REMARK INTRA:                   0.127
REMARK UNBOUND:                -0.063
REMARK  Name = 
REMARK  5 active torsions:
REMARK  status: ('A' for Active; 'I' for Inactive)
REMARK    1  A    between atoms: C_1  and  N_2
REMARK    2  A    between atoms: N_2  and  C_18
REMARK    3  A    between atoms: C_3  and  C_5
REMARK    4  A    between atoms: C_5  and  N_6
REMARK    5  A    between atoms: C_11  and  C_12
REMARK                            x       y       z     vdW  Elec       q    Type
REMARK                         _______ _______ _______ _____ _____    ______ ____
ROOT
ATOM      6  N   UNL     1      47.943   4.926  16.109  0.00  0.00    +0.000 N 
ATOM      7  C   UNL     1      47.151   4.127  16.899  0.00  0.00    +0.000 A 
ATOM      8  C   UNL     1      47.780   3.965  18.114  0.00  0.00    +0.000 A 
ATOM      9  C   UNL     1      49.033   4.625  18.037  0.00  0.00    +0.000 A 
ATOM     10  C   UNL     1      50.122   4.789  18.910  0.00  0.00    +0.000 A 
ATOM     11  C   UNL     1      51.232   5.500  18.448  0.00  0.00    +0.000 A 
ATOM     15  C   UNL     1      51.194   6.011  17.150  0.00  0.00    +0.000 A 
ATOM     16  N   UNL     1      50.163   5.897  16.272  0.00  0.00    +0.000 NA
ATOM     17  C   UNL     1      49.120   5.201  16.773  0.00  0.00    +0.000 A 
ENDROOT
BRANCH  11  12
ATOM     12  C   UNL     1      52.450   5.732  19.263  0.00  0.00    +0.000 C 
ATOM     13  N   UNL     1      52.976   4.688  19.971  0.00  0.00    +0.000 N 
ATOM     14  O   UNL     1      52.982   6.837  19.308  0.00  0.00    +0.000 OA
ATOM     24  H   UNL     1      52.602   3.753  20.002  0.00  0.00    +0.000 HD
ATOM     25  H   UNL     1      53.804   4.878  20.521  0.00  0.00    +0.000 HD
ENDBRANCH  11  12
BRANCH   6   5
ATOM      5  C   UNL     1      47.650   5.339  14.739  0.00  0.00    +0.000 C 
BRANCH   5   3
ATOM      1  C   UNL     1      45.418   6.474  13.152  0.00  0.00    +0.000 C 
ATOM      2  N   UNL     1      45.595   5.031  13.296  0.00  0.00    +0.000 N 
ATOM      3  C   UNL     1      46.648   4.439  14.015  0.00  0.00    +0.000 C 
ATOM      4  O   UNL     1      46.797   3.212  14.005  0.00  0.00    +0.000 OA
BRANCH   2  18
ATOM     18  C   UNL     1      44.707   4.115  12.523  0.00  0.00    +0.000 C 
ATOM     19  C   UNL     1      45.238   3.827  11.108  0.00  0.00    +0.000 C 
ATOM     20  C   UNL     1      44.843   4.900  10.100  0.00  0.00    +0.000 C 
ATOM     21  N   UNL     1      43.396   5.113  10.064  0.00  0.00    +0.000 NA
ATOM     22  C   UNL     1      42.867   5.492  11.372  0.00  0.00    +0.000 C 
ATOM     23  C   UNL     1      43.219   4.493  12.473  0.00  0.00    +0.000 C 
ATOM     26  H   UNL     1      42.940   4.256   9.750  0.00  0.00    +0.000 HD
ENDBRANCH   2  18
ENDBRANCH   5   3
ENDBRANCH   6   5
TORSDOF 4
ENDMDL
MODEL 9
REMARK VINA RESULT:    -5.618      3.171      5.136
REMARK INTER + INTRA:          -6.995
REMARK INTER:                  -6.742
REMARK INTRA:                  -0.253
REMARK UNBOUND:                -0.063
REMARK  Name = 
REMARK  5 active torsions:
REMARK  status: ('A' for Active; 'I' for Inactive)
REMARK    1  A    between atoms: C_1  and  N_2
REMARK    2  A    between atoms: N_2  and  C_18
REMARK    3  A    between atoms: C_3  and  C_5
REMARK    4  A    between atoms: C_5  and  N_6
REMARK    5  A    between atoms: C_11  and  C_12
REMARK                            x       y       z     vdW  Elec       q    Type
REMARK                         _______ _______ _______ _____ _____    ______ ____
ROOT
ATOM      6  N   UNL     1      46.383   7.493  12.960  0.00  0.00    +0.000 N 
ATOM      7  C   UNL     1      45.777   8.481  12.222  0.00  0.00    +0.000 A 
ATOM      8  C   UNL     1      44.805   7.897  11.439  0.00  0.00    +0.000 A 
ATOM      9  C   UNL     1      44.871   6.496  11.651  0.00  0.00    +0.000 A 
ATOM     10  C   UNL     1      44.187   5.383  11.133  0.00  0.00    +0.000 A 
ATOM     11  C   UNL     1      44.571   4.114  11.575  0.00  0.00    +0.000 A 
ATOM     15  C   UNL     1      45.605   4.026  12.508  0.00  0.00    +0.000 A 
ATOM     16  N   UNL     1      46.286   5.069  13.053  0.00  0.00    +0.000 NA
ATOM     17  C   UNL     1      45.873   6.267  12.589  0.00  0.00    +0.000 A 
ENDROOT
BRANCH  11  12
ATOM     12  C   UNL     1      43.942   2.859  11.097  0.00  0.00    +0.000 C 
ATOM     13  N   UNL     1      44.461   2.240   9.996  0.00  0.00    +0.000 N 
ATOM     14  O   UNL     1      42.971   2.377  11.675  0.00  0.00    +0.000 OA
ATOM     24  H   UNL     1      45.246   2.566   9.456  0.00  0.00    +0.000 HD
ATOM     25  H   UNL     1      44.008   1.388   9.692  0.00  0.00    +0.000 HD
ENDBRANCH  11  12
BRANCH   6   5
ATOM      5  C   UNL     1      47.474   7.681  13.913  0.00  0.00    +0.000 C 
BRANCH   5   3
ATOM      1  C   UNL     1      49.174  10.095  13.638  0.00  0.00    +0.000 C 
ATOM      2  N   UNL     1      49.622   8.788  13.165  0.00  0.00    +0.000 N 
ATOM      3  C   UNL     1      48.868   7.607  13.292  0.00  0.00    +0.000 C 
ATOM      4  O   UNL     1      49.355   6.520  12.966  0.00  0.00    +0.000 OA
BRANCH   2  18
ATOM     18  C   UNL     1      51.014   8.646  12.648  0.00  0.00    +0.000 C 
ATOM     19  C   UNL     1      52.014   9.561  13.378  0.00  0.00    +0.000 C 
ATOM     20  C   UNL     1      52.050  10.972  12.804  0.00  0.00    +0.000 C 
ATOM     21  N   UNL     1      52.319  10.974  11.366  0.00  0.00    +0.000 NA
ATOM     22  C   UNL     1      51.327  10.199  10.623  0.00  0.00    +0.000 C 
ATOM     23  C   UNL     1      51.189   8.763  11.126  0.00  0.00    +0.000 C 
ATOM     26  H   UNL     1      53.247  10.583  11.199  0.00  0.00    +0.000 HD
ENDBRANCH   2  18
ENDBRANCH   5   3
ENDBRANCH   6   5
TORSDOF 4
ENDMDL
