MODEL 1
REMARK VINA RESULT:    -8.803      0.000      0.000
REMARK INTER + INTRA:         -13.184
REMARK INTER:                 -12.405
REMARK INTRA:                  -0.780
REMARK UNBOUND:                -0.780
REMARK  Name = 
REMARK  8 active torsions:
REMARK  status: ('A' for Active; 'I' for Inactive)
REMARK    1  A    between atoms: C_2  and  C_24
REMARK    2  A    between atoms: N_3  and  C_4
REMARK    3  A    between atoms: C_4  and  C_5
REMARK    4  A    between atoms: C_8  and  C_9
REMARK    5  A    between atoms: C_9  and  N_10
REMARK    6  A    between atoms: C_11  and  C_13
REMARK    7  A    between atoms: C_17  and  O_18
REMARK    8  A    between atoms: N_20  and  O_21
REMARK                            x       y       z     vdW  Elec       q    Type
REMARK                         _______ _______ _______ _____ _____    ______ ____
ROOT
ATOM      5  C   UNL     1      46.886   8.118  13.385  0.00  0.00    +0.000 A 
ATOM      6  C   UNL     1      47.225   6.788  13.107  0.00  0.00    +0.000 A 
ATOM      7  C   UNL     1      46.374   5.974  12.350  0.00  0.00    +0.000 A 
ATOM      8  C   UNL     1      45.175   6.481  11.829  0.00  0.00    +0.000 A 
ATOM     22  C   UNL     1      44.833   7.811  12.108  0.00  0.00    +0.000 A 
ATOM     23  C   UNL     1      45.683   8.624  12.869  0.00  0.00    +0.000 A 
ENDROOT
BRANCH   8   9
ATOM      9  C   UNL     1      44.272   5.611  10.991  0.00  0.00    +0.000 C 
BRANCH   9  10
ATOM     10  N   UNL     1      44.992   4.943   9.937  0.00  0.00    +0.000 N 
ATOM     11  C   UNL     1      44.811   3.608   9.673  0.00  0.00    +0.000 C 
ATOM     12  O   UNL     1      43.939   2.932  10.210  0.00  0.00    +0.000 OA
ATOM     35  H   UNL     1      45.809   5.386   9.536  0.00  0.00    +0.000 HD
BRANCH  11  13
ATOM     13  C   UNL     1      45.751   3.032   8.641  0.00  0.00    +0.000 A 
ATOM     14  C   UNL     1      45.829   1.688   8.620  0.00  0.00    +0.000 A 
ATOM     15  C   UNL     1      46.714   1.049   7.618  0.00  0.00    +0.000 A 
ATOM     16  O   UNL     1      46.818  -0.171   7.519  0.00  0.00    +0.000 OA
ATOM     17  C   UNL     1      47.501   1.933   6.710  0.00  0.00    +0.000 A 
ATOM     19  C   UNL     1      47.342   3.254   6.848  0.00  0.00    +0.000 A 
ATOM     20  N   UNL     1      46.471   3.840   7.750  0.00  0.00    +0.000 N 
BRANCH  17  18
ATOM     18  O   UNL     1      48.363   1.369   5.795  0.00  0.00    +0.000 OA
ATOM     36  H   UNL     1      49.254   1.455   6.199  0.00  0.00    +0.000 HD
ENDBRANCH  17  18
BRANCH  20  21
ATOM     21  O   UNL     1      46.616   5.204   8.009  0.00  0.00    +0.000 OA
ATOM     37  H   UNL     1      45.722   5.491   8.270  0.00  0.00    +0.000 HD
ENDBRANCH  20  21
ENDBRANCH  11  13
ENDBRANCH   9  10
ENDBRANCH   8   9
BRANCH   5   4
ATOM      4  C   UNL     1      47.819   8.991  14.188  0.00  0.00    +0.000 C 
BRANCH   4   3
ATOM      1  O   UNL     1      49.883   7.511  15.406  0.00  0.00    +0.000 OA
ATOM      2  C   UNL     1      48.878   7.786  16.049  0.00  0.00    +0.000 C 
ATOM      3  N   UNL     1      47.860   8.577  15.566  0.00  0.00    +0.000 N 
ATOM     34  H   UNL     1      47.002   8.651  16.088  0.00  0.00    +0.000 HD
BRANCH   2  24
ATOM     24  C   UNL     1      48.557   7.147  17.325  0.00  0.00    +0.000 A 
ATOM     25  C   UNL     1      48.519   7.863  18.509  0.00  0.00    +0.000 A 
ATOM     26  S   UNL     1      48.485   6.847  19.887  0.00  0.00    +0.000 S 
ATOM     27  C   UNL     1      48.515   5.445  18.918  0.00  0.00    +0.000 A 
ATOM     28  N   UNL     1      48.713   4.204  19.438  0.00  0.00    +0.000 NA
ATOM     29  C   UNL     1      48.719   3.257  18.559  0.00  0.00    +0.000 A 
ATOM     30  N   UNL     1      48.458   3.422  17.219  0.00  0.00    +0.000 N 
ATOM     31  C   UNL     1      48.170   4.647  16.667  0.00  0.00    +0.000 A 
ATOM     32  O   UNL     1      47.804   4.766  15.503  0.00  0.00    +0.000 OA
ATOM     33  C   UNL     1      48.354   5.751  17.583  0.00  0.00    +0.000 A 
ATOM     38  H   UNL     1      48.387   2.626  16.602  0.00  0.00    +0.000 HD
ENDBRANCH   2  24
ENDBRANCH   4   3
ENDBRANCH   5   4
TORSDOF 8
ENDMDL
MODEL 2
REMARK VINA RESULT:    -8.637      2.015      2.352
REMARK INTER + INTRA:         -12.951
REMARK INTER:                 -11.793
REMARK INTRA:                  -1.158
REMARK UNBOUND:                -0.780
REMARK  Name = 
REMARK  8 active torsions:
REMARK  status: ('A' for Active; 'I' for Inactive)
REMARK    1  A    between atoms: C_2  and  C_24
REMARK    2  A    between atoms: N_3  and  C_4
REMARK    3  A    between atoms: C_4  and  C_5
REMARK    4  A    between atoms: C_8  and  C_9
REMARK    5  A    between atoms: C_9  and  N_10
REMARK    6  A    between atoms: C_11  and  C_13
REMARK    7  A    between atoms: C_17  and  O_18
REMARK    8  A    between atoms: N_20  and  O_21
REMARK                            x       y       z     vdW  Elec       q    Type
REMARK                         _______ _______ _______ _____ _____    ______ ____
ROOT
ATOM      5  C   UNL     1      47.658   6.423  14.494  0.00  0.00    +0.000 A 
ATOM      6  C   UNL     1      47.172   5.126  14.707  0.00  0.00    +0.000 A 
ATOM      7  C   UNL     1      46.244   4.555  13.828  0.00  0.00    +0.000 A 
ATOM      8  C   UNL     1      45.801   5.258  12.699  0.00  0.00    +0.000 A 
ATOM     22  C   UNL     1      46.284   6.556  12.486  0.00  0.00    +0.000 A 
ATOM     23  C   UNL     1      47.210   7.129  13.367  0.00  0.00    +0.000 A 
ENDROOT
BRANCH   8   9
ATOM      9  C   UNL     1      44.823   4.630  11.737  0.00  0.00    +0.000 C 
BRANCH   9  10
ATOM     10  N   UNL     1      45.458   4.214  10.514  0.00  0.00    +0.000 N 
ATOM     11  C   UNL     1      44.942   3.206   9.740  0.00  0.00    +0.000 C 
ATOM     12  O   UNL     1      43.849   2.690   9.953  0.00  0.00    +0.000 OA
ATOM     35  H   UNL     1      46.414   4.493  10.332  0.00  0.00    +0.000 HD
BRANCH  11  13
ATOM     13  C   UNL     1      45.810   2.792   8.575  0.00  0.00    +0.000 A 
ATOM     14  C   UNL     1      46.003   1.466   8.443  0.00  0.00    +0.000 A 
ATOM     15  C   UNL     1      46.824   0.982   7.310  0.00  0.00    +0.000 A 
ATOM     16  O   UNL     1      47.023  -0.213   7.106  0.00  0.00    +0.000 OA
ATOM     17  C   UNL     1      47.427   1.996   6.396  0.00  0.00    +0.000 A 
ATOM     19  C   UNL     1      47.169   3.283   6.650  0.00  0.00    +0.000 A 
ATOM     20  N   UNL     1      46.355   3.722   7.679  0.00  0.00    +0.000 N 
BRANCH  17  18
ATOM     18  O   UNL     1      48.230   1.579   5.356  0.00  0.00    +0.000 OA
ATOM     36  H   UNL     1      47.635   1.071   4.764  0.00  0.00    +0.000 HD
ENDBRANCH  17  18
BRANCH  20  21
ATOM     21  O   UNL     1      46.407   5.074   8.025  0.00  0.00    +0.000 OA
ATOM     37  H   UNL     1      46.609   5.525   7.185  0.00  0.00    +0.000 HD
ENDBRANCH  20  21
ENDBRANCH  11  13
ENDBRANCH   9  10
ENDBRANCH   8   9
BRANCH   5   4
ATOM      4  C   UNL     1      48.670   7.022  15.439  0.00  0.00    +0.000 C 
BRANCH   4   3
ATOM      1  O   UNL     1      48.669   6.827  18.249  0.00  0.00    +0.000 OA
ATOM      2  C   UNL     1      49.332   6.036  17.590  0.00  0.00    +0.000 C 
ATOM      3  N   UNL     1      49.324   6.001  16.215  0.00  0.00    +0.000 N 
ATOM     34  H   UNL     1      49.993   5.423  15.731  0.00  0.00    +0.000 HD
BRANCH   2  24
ATOM     24  C   UNL     1      50.353   5.174  18.185  0.00  0.00    +0.000 A 
ATOM     25  C   UNL     1      51.369   5.686  18.975  0.00  0.00    +0.000 A 
ATOM     26  S   UNL     1      52.623   4.552  19.243  0.00  0.00    +0.000 S 
ATOM     27  C   UNL     1      51.822   3.368  18.314  0.00  0.00    +0.000 A 
ATOM     28  N   UNL     1      52.421   2.205  17.943  0.00  0.00    +0.000 NA
ATOM     29  C   UNL     1      51.672   1.429  17.231  0.00  0.00    +0.000 A 
ATOM     30  N   UNL     1      50.352   1.664  16.929  0.00  0.00    +0.000 N 
ATOM     31  C   UNL     1      49.685   2.787  17.356  0.00  0.00    +0.000 A 
ATOM     32  O   UNL     1      48.476   2.924  17.202  0.00  0.00    +0.000 OA
ATOM     33  C   UNL     1      50.545   3.768  17.980  0.00  0.00    +0.000 A 
ATOM     38  H   UNL     1      49.798   0.972  16.447  0.00  0.00    +0.000 HD
ENDBRANCH   2  24
ENDBRANCH   4   3
ENDBRANCH   5   4
TORSDOF 8
ENDMDL
MODEL 3
REMARK VINA RESULT:    -8.505      1.293      1.960
REMARK INTER + INTRA:         -12.765
REMARK INTER:                 -11.188
REMARK INTRA:                  -1.577
REMARK UNBOUND:                -0.780
REMARK  Name = 
REMARK  8 active torsions:
REMARK  status: ('A' for Active; 'I' for Inactive)
REMARK    1  A    between atoms: C_2  and  C_24
REMARK    2  A    between atoms: N_3  and  C_4
REMARK    3  A    between atoms: C_4  and  C_5
REMARK    4  A    between atoms: C_8  and  C_9
REMARK    5  A    between atoms: C_9  and  N_10
REMARK    6  A    between atoms: C_11  and  C_13
REMARK    7  A    between atoms: C_17  and  O_18
REMARK    8  A    between atoms: N_20  and  O_21
REMARK                            x       y       z     vdW  Elec       q    Type
REMARK                         _______ _______ _______ _____ _____    ______ ____
ROOT
ATOM      5  C   UNL     1      48.141   8.167  13.542  0.00  0.00    +0.000 A 
ATOM      6  C   UNL     1      46.841   8.674  13.654  0.00  0.00    +0.000 A 
ATOM      7  C   UNL     1      45.817   8.215  12.817  0.00  0.00    +0.000 A 
ATOM      8  C   UNL     1      46.064   7.216  11.865  0.00  0.00    +0.000 A 
ATOM     22  C   UNL     1      47.366   6.709  11.750  0.00  0.00    +0.000 A 
ATOM     23  C   UNL     1      48.391   7.171  12.585  0.00  0.00    +0.000 A 
ENDROOT
BRANCH   8   9
ATOM      9  C   UNL     1      44.954   6.703  10.983  0.00  0.00    +0.000 C 
BRANCH   9  10
ATOM     10  N   UNL     1      45.406   5.662  10.095  0.00  0.00    +0.000 N 
ATOM     11  C   UNL     1      44.582   4.636   9.708  0.00  0.00    +0.000 C 
ATOM     12  O   UNL     1      43.383   4.604   9.969  0.00  0.00    +0.000 OA
ATOM     35  H   UNL     1      46.399   5.543   9.936  0.00  0.00    +0.000 HD
BRANCH  11  13
ATOM     13  C   UNL     1      45.256   3.551   8.900  0.00  0.00    +0.000 A 
ATOM     14  C   UNL     1      45.931   3.976   7.816  0.00  0.00    +0.000 A 
ATOM     15  C   UNL     1      46.638   2.973   6.987  0.00  0.00    +0.000 A 
ATOM     16  O   UNL     1      47.297   3.285   5.998  0.00  0.00    +0.000 OA
ATOM     17  C   UNL     1      46.531   1.538   7.380  0.00  0.00    +0.000 A 
ATOM     19  C   UNL     1      45.815   1.250   8.472  0.00  0.00    +0.000 A 
ATOM     20  N   UNL     1      45.204   2.201   9.270  0.00  0.00    +0.000 N 
BRANCH  17  18
ATOM     18  O   UNL     1      47.144   0.576   6.606  0.00  0.00    +0.000 OA
ATOM     36  H   UNL     1      47.529   1.067   5.848  0.00  0.00    +0.000 HD
ENDBRANCH  17  18
BRANCH  20  21
ATOM     21  O   UNL     1      44.247   1.767  10.189  0.00  0.00    +0.000 OA
ATOM     37  H   UNL     1      43.399   1.898   9.727  0.00  0.00    +0.000 HD
ENDBRANCH  20  21
ENDBRANCH  11  13
ENDBRANCH   9  10
ENDBRANCH   8   9
BRANCH   5   4
ATOM      4  C   UNL     1      49.233   8.657  14.461  0.00  0.00    +0.000 C 
BRANCH   4   3
ATOM      1  O   UNL     1      50.911   6.658  15.519  0.00  0.00    +0.000 OA
ATOM      2  C   UNL     1      49.940   7.034  16.164  0.00  0.00    +0.000 C 
ATOM      3  N   UNL     1      49.118   8.063  15.767  0.00  0.00    +0.000 N 
ATOM     34  H   UNL     1      48.260   8.232  16.269  0.00  0.00    +0.000 HD
BRANCH   2  24
ATOM     24  C   UNL     1      49.434   6.305  17.326  0.00  0.00    +0.000 A 
ATOM     25  C   UNL     1      49.858   6.598  18.612  0.00  0.00    +0.000 A 
ATOM     26  S   UNL     1      49.411   5.389  19.739  0.00  0.00    +0.000 S 
ATOM     27  C   UNL     1      48.645   4.468  18.526  0.00  0.00    +0.000 A 
ATOM     28  N   UNL     1      48.217   3.195  18.740  0.00  0.00    +0.000 NA
ATOM     29  C   UNL     1      47.671   2.641  17.708  0.00  0.00    +0.000 A 
ATOM     30  N   UNL     1      47.432   3.268  16.508  0.00  0.00    +0.000 N 
ATOM     31  C   UNL     1      47.772   4.580  16.280  0.00  0.00    +0.000 A 
ATOM     32  O   UNL     1      47.433   5.171  15.261  0.00  0.00    +0.000 OA
ATOM     33  C   UNL     1      48.564   5.165  17.339  0.00  0.00    +0.000 A 
ATOM     38  H   UNL     1      46.916   2.806  15.774  0.00  0.00    +0.000 HD
ENDBRANCH   2  24
ENDBRANCH   4   3
ENDBRANCH   5   4
TORSDOF 8
ENDMDL
MODEL 4
REMARK VINA RESULT:    -7.703      3.975      8.651
REMARK INTER + INTRA:         -11.635
REMARK INTER:                 -10.299
REMARK INTRA:                  -1.336
REMARK UNBOUND:                -0.780
REMARK  Name = 
REMARK  8 active torsions:
REMARK  status: ('A' for Active; 'I' for Inactive)
REMARK    1  A    between atoms: C_2  and  C_24
REMARK    2  A    between atoms: N_3  and  C_4
REMARK    3  A    between atoms: C_4  and  C_5
REMARK    4  A    between atoms: C_8  and  C_9
REMARK    5  A    between atoms: C_9  and  N_10
REMARK    6  A    between atoms: C_11  and  C_13
REMARK    7  A    between atoms: C_17  and  O_18
REMARK    8  A    between atoms: N_20  and  O_21
REMARK                            x       y       z     vdW  Elec       q    Type
REMARK                         _______ _______ _______ _____ _____    ______ ____
ROOT
ATOM      5  C   UNL     1      47.917   8.024  13.632  0.00  0.00    +0.000 A 
ATOM      6  C   UNL     1      48.122   8.946  14.666  0.00  0.00    +0.000 A 
ATOM      7  C   UNL     1      48.534   8.520  15.935  0.00  0.00    +0.000 A 
ATOM      8  C   UNL     1      48.778   7.164  16.190  0.00  0.00    +0.000 A 
ATOM     22  C   UNL     1      48.572   6.240  15.157  0.00  0.00    +0.000 A 
ATOM     23  C   UNL     1      48.156   6.666  13.889  0.00  0.00    +0.000 A 
ENDROOT
BRANCH   8   9
ATOM      9  C   UNL     1      49.249   6.710  17.549  0.00  0.00    +0.000 C 
BRANCH   9  10
ATOM     10  N   UNL     1      50.138   5.579  17.464  0.00  0.00    +0.000 N 
ATOM     11  C   UNL     1      49.717   4.308  17.766  0.00  0.00    +0.000 C 
ATOM     12  O   UNL     1      48.545   4.026  17.990  0.00  0.00    +0.000 OA
ATOM     35  H   UNL     1      51.136   5.736  17.412  0.00  0.00    +0.000 HD
BRANCH  11  13
ATOM     13  C   UNL     1      50.810   3.264  17.772  0.00  0.00    +0.000 A 
ATOM     14  C   UNL     1      51.948   3.626  18.393  0.00  0.00    +0.000 A 
ATOM     15  C   UNL     1      53.057   2.647  18.460  0.00  0.00    +0.000 A 
ATOM     16  O   UNL     1      54.116   2.892  19.032  0.00  0.00    +0.000 OA
ATOM     17  C   UNL     1      52.864   1.322  17.802  0.00  0.00    +0.000 A 
ATOM     19  C   UNL     1      51.688   1.096  17.206  0.00  0.00    +0.000 A 
ATOM     20  N   UNL     1      50.639   1.998  17.196  0.00  0.00    +0.000 N 
BRANCH  17  18
ATOM     18  O   UNL     1      53.891   0.404  17.812  0.00  0.00    +0.000 OA
ATOM     36  H   UNL     1      54.611   0.833  18.324  0.00  0.00    +0.000 HD
ENDBRANCH  17  18
BRANCH  20  21
ATOM     21  O   UNL     1      49.594   1.778  16.296  0.00  0.00    +0.000 OA
ATOM     37  H   UNL     1      49.858   2.276  15.501  0.00  0.00    +0.000 HD
ENDBRANCH  20  21
ENDBRANCH  11  13
ENDBRANCH   9  10
ENDBRANCH   8   9
BRANCH   5   4
ATOM      4  C   UNL     1      47.489   8.497  12.264  0.00  0.00    +0.000 C 
BRANCH   4   3
ATOM      1  O   UNL     1      44.851   7.819  11.547  0.00  0.00    +0.000 OA
ATOM      2  C   UNL     1      45.774   7.093  11.202  0.00  0.00    +0.000 C 
ATOM      3  N   UNL     1      47.099   7.390  11.431  0.00  0.00    +0.000 N 
ATOM     34  H   UNL     1      47.800   6.690  11.248  0.00  0.00    +0.000 HD
BRANCH   2  24
ATOM     24  C   UNL     1      45.566   5.741  10.685  0.00  0.00    +0.000 A 
ATOM     25  C   UNL     1      45.815   5.422   9.360  0.00  0.00    +0.000 A 
ATOM     26  S   UNL     1      45.158   3.903   8.919  0.00  0.00    +0.000 S 
ATOM     27  C   UNL     1      44.540   3.656  10.489  0.00  0.00    +0.000 A 
ATOM     28  N   UNL     1      43.677   2.648  10.781  0.00  0.00    +0.000 NA
ATOM     29  C   UNL     1      43.300   2.616  12.017  0.00  0.00    +0.000 A 
ATOM     30  N   UNL     1      43.772   3.444  13.008  0.00  0.00    +0.000 N 
ATOM     31  C   UNL     1      44.707   4.422  12.771  0.00  0.00    +0.000 A 
ATOM     32  O   UNL     1      45.224   5.062  13.680  0.00  0.00    +0.000 OA
ATOM     33  C   UNL     1      44.998   4.616  11.367  0.00  0.00    +0.000 A 
ATOM     38  H   UNL     1      43.506   3.305  13.972  0.00  0.00    +0.000 HD
ENDBRANCH   2  24
ENDBRANCH   4   3
ENDBRANCH   5   4
TORSDOF 8
ENDMDL
MODEL 5
REMARK VINA RESULT:    -7.596      3.562      9.025
REMARK INTER + INTRA:         -11.485
REMARK INTER:                 -10.222
REMARK INTRA:                  -1.263
REMARK UNBOUND:                -0.780
REMARK  Name = 
REMARK  8 active torsions:
REMARK  status: ('A' for Active; 'I' for Inactive)
REMARK    1  A    between atoms: C_2  and  C_24
REMARK    2  A    between atoms: N_3  and  C_4
REMARK    3  A    between atoms: C_4  and  C_5
REMARK    4  A    between atoms: C_8  and  C_9
REMARK    5  A    between atoms: C_9  and  N_10
REMARK    6  A    between atoms: C_11  and  C_13
REMARK    7  A    between atoms: C_17  and  O_18
REMARK    8  A    between atoms: N_20  and  O_21
REMARK                            x       y       z     vdW  Elec       q    Type
REMARK                         _______ _______ _______ _____ _____    ______ ____
ROOT
ATOM      5  C   UNL     1      48.078   6.900  13.591  0.00  0.00    +0.000 A 
ATOM      6  C   UNL     1      48.764   7.818  14.396  0.00  0.00    +0.000 A 
ATOM      7  C   UNL     1      48.999   7.549  15.750  0.00  0.00    +0.000 A 
ATOM      8  C   UNL     1      48.577   6.342  16.323  0.00  0.00    +0.000 A 
ATOM     22  C   UNL     1      47.889   5.423  15.520  0.00  0.00    +0.000 A 
ATOM     23  C   UNL     1      47.651   5.693  14.166  0.00  0.00    +0.000 A 
ENDROOT
BRANCH   8   9
ATOM      9  C   UNL     1      48.855   6.041  17.775  0.00  0.00    +0.000 C 
BRANCH   9  10
ATOM     10  N   UNL     1      49.622   4.833  17.940  0.00  0.00    +0.000 N 
ATOM     11  C   UNL     1      50.964   4.788  17.655  0.00  0.00    +0.000 C 
ATOM     12  O   UNL     1      51.625   5.784  17.380  0.00  0.00    +0.000 OA
ATOM     35  H   UNL     1      49.140   3.949  18.038  0.00  0.00    +0.000 HD
BRANCH  11  13
ATOM     13  C   UNL     1      51.583   3.411  17.736  0.00  0.00    +0.000 A 
ATOM     14  C   UNL     1      52.809   3.363  18.288  0.00  0.00    +0.000 A 
ATOM     15  C   UNL     1      53.471   2.045  18.423  0.00  0.00    +0.000 A 
ATOM     16  O   UNL     1      54.578   1.916  18.940  0.00  0.00    +0.000 OA
ATOM     17  C   UNL     1      52.755   0.844  17.903  0.00  0.00    +0.000 A 
ATOM     19  C   UNL     1      51.546   1.034  17.363  0.00  0.00    +0.000 A 
ATOM     20  N   UNL     1      50.914   2.262  17.292  0.00  0.00    +0.000 N 
BRANCH  17  18
ATOM     18  O   UNL     1      53.361  -0.391  17.977  0.00  0.00    +0.000 OA
ATOM     36  H   UNL     1      54.198  -0.295  17.473  0.00  0.00    +0.000 HD
ENDBRANCH  17  18
BRANCH  20  21
ATOM     21  O   UNL     1      49.810   2.383  16.446  0.00  0.00    +0.000 OA
ATOM     37  H   UNL     1      49.996   1.755  15.724  0.00  0.00    +0.000 HD
ENDBRANCH  20  21
ENDBRANCH  11  13
ENDBRANCH   9  10
ENDBRANCH   8   9
BRANCH   5   4
ATOM      4  C   UNL     1      47.846   7.193  12.129  0.00  0.00    +0.000 C 
BRANCH   4   3
ATOM      1  O   UNL     1      45.156   7.738  11.499  0.00  0.00    +0.000 OA
ATOM      2  C   UNL     1      45.590   6.602  11.356  0.00  0.00    +0.000 C 
ATOM      3  N   UNL     1      46.909   6.264  11.556  0.00  0.00    +0.000 N 
ATOM     34  H   UNL     1      47.174   5.291  11.558  0.00  0.00    +0.000 HD
BRANCH   2  24
ATOM     24  C   UNL     1      44.720   5.444  11.151  0.00  0.00    +0.000 A 
ATOM     25  C   UNL     1      43.706   5.128  12.041  0.00  0.00    +0.000 A 
ATOM     26  S   UNL     1      43.081   3.554  11.787  0.00  0.00    +0.000 S 
ATOM     27  C   UNL     1      44.151   3.282  10.488  0.00  0.00    +0.000 A 
ATOM     28  N   UNL     1      44.315   2.056   9.924  0.00  0.00    +0.000 NA
ATOM     29  C   UNL     1      45.175   2.029   8.959  0.00  0.00    +0.000 A 
ATOM     30  N   UNL     1      45.823   3.128   8.447  0.00  0.00    +0.000 N 
ATOM     31  C   UNL     1      45.621   4.397   8.932  0.00  0.00    +0.000 A 
ATOM     32  O   UNL     1      46.094   5.386   8.383  0.00  0.00    +0.000 OA
ATOM     33  C   UNL     1      44.823   4.435  10.138  0.00  0.00    +0.000 A 
ATOM     38  H   UNL     1      46.412   3.050   7.631  0.00  0.00    +0.000 HD
ENDBRANCH   2  24
ENDBRANCH   4   3
ENDBRANCH   5   4
TORSDOF 8
ENDMDL
MODEL 6
REMARK VINA RESULT:    -7.582      3.595      4.448
REMARK INTER + INTRA:         -11.464
REMARK INTER:                 -10.225
REMARK INTRA:                  -1.239
REMARK UNBOUND:                -0.780
REMARK  Name = 
REMARK  8 active torsions:
REMARK  status: ('A' for Active; 'I' for Inactive)
REMARK    1  A    between atoms: C_2  and  C_24
REMARK    2  A    between atoms: N_3  and  C_4
REMARK    3  A    between atoms: C_4  and  C_5
REMARK    4  A    between atoms: C_8  and  C_9
REMARK    5  A    between atoms: C_9  and  N_10
REMARK    6  A    between atoms: C_11  and  C_13
REMARK    7  A    between atoms: C_17  and  O_18
REMARK    8  A    between atoms: N_20  and  O_21
REMARK                            x       y       z     vdW  Elec       q    Type
REMARK                         _______ _______ _______ _____ _____    ______ ____
ROOT
ATOM      5  C   UNL     1      46.627   8.749  13.027  0.00  0.00    +0.000 A 
ATOM      6  C   UNL     1      47.102   7.457  13.283  0.00  0.00    +0.000 A 
ATOM      7  C   UNL     1      46.424   6.333  12.795  0.00  0.00    +0.000 A 
ATOM      8  C   UNL     1      45.269   6.479  12.014  0.00  0.00    +0.000 A 
ATOM     22  C   UNL     1      44.791   7.771  11.759  0.00  0.00    +0.000 A 
ATOM     23  C   UNL     1      45.467   8.894  12.251  0.00  0.00    +0.000 A 
ENDROOT
BRANCH   8   9
ATOM      9  C   UNL     1      44.555   5.268  11.465  0.00  0.00    +0.000 C 
BRANCH   9  10
ATOM     10  N   UNL     1      45.250   4.694  10.341  0.00  0.00    +0.000 N 
ATOM     11  C   UNL     1      44.817   3.540   9.738  0.00  0.00    +0.000 C 
ATOM     12  O   UNL     1      43.750   3.000  10.014  0.00  0.00    +0.000 OA
ATOM     35  H   UNL     1      46.193   4.998  10.134  0.00  0.00    +0.000 HD
BRANCH  11  13
ATOM     13  C   UNL     1      45.743   2.993   8.677  0.00  0.00    +0.000 A 
ATOM     14  C   UNL     1      45.851   1.652   8.644  0.00  0.00    +0.000 A 
ATOM     15  C   UNL     1      46.723   1.040   7.615  0.00  0.00    +0.000 A 
ATOM     16  O   UNL     1      46.853  -0.177   7.504  0.00  0.00    +0.000 OA
ATOM     17  C   UNL     1      47.465   1.948   6.693  0.00  0.00    +0.000 A 
ATOM     19  C   UNL     1      47.278   3.264   6.844  0.00  0.00    +0.000 A 
ATOM     20  N   UNL     1      46.419   3.823   7.773  0.00  0.00    +0.000 N 
BRANCH  17  18
ATOM     18  O   UNL     1      48.315   1.411   5.751  0.00  0.00    +0.000 OA
ATOM     36  H   UNL     1      49.129   1.957   5.802  0.00  0.00    +0.000 HD
ENDBRANCH  17  18
BRANCH  20  21
ATOM     21  O   UNL     1      46.539   5.189   8.038  0.00  0.00    +0.000 OA
ATOM     37  H   UNL     1      47.469   5.295   8.311  0.00  0.00    +0.000 HD
ENDBRANCH  20  21
ENDBRANCH  11  13
ENDBRANCH   9  10
ENDBRANCH   8   9
BRANCH   5   4
ATOM      4  C   UNL     1      47.375   9.953  13.545  0.00  0.00    +0.000 C 
BRANCH   4   3
ATOM      1  O   UNL     1      49.575  11.244  12.352  0.00  0.00    +0.000 OA
ATOM      2  C   UNL     1      49.766  10.280  13.081  0.00  0.00    +0.000 C 
ATOM      3  N   UNL     1      48.762   9.643  13.774  0.00  0.00    +0.000 N 
ATOM     34  H   UNL     1      48.961   8.774  14.246  0.00  0.00    +0.000 HD
BRANCH   2  24
ATOM     24  C   UNL     1      51.047   9.578  13.144  0.00  0.00    +0.000 A 
ATOM     25  C   UNL     1      52.030   9.936  14.052  0.00  0.00    +0.000 A 
ATOM     26  S   UNL     1      53.545   9.224  13.690  0.00  0.00    +0.000 S 
ATOM     27  C   UNL     1      52.903   8.429  12.325  0.00  0.00    +0.000 A 
ATOM     28  N   UNL     1      53.690   7.800  11.412  0.00  0.00    +0.000 NA
ATOM     29  C   UNL     1      53.039   7.262  10.434  0.00  0.00    +0.000 A 
ATOM     30  N   UNL     1      51.669   7.217  10.327  0.00  0.00    +0.000 N 
ATOM     31  C   UNL     1      50.836   7.767  11.271  0.00  0.00    +0.000 A 
ATOM     32  O   UNL     1      49.621   7.603  11.241  0.00  0.00    +0.000 OA
ATOM     33  C   UNL     1      51.530   8.550  12.270  0.00  0.00    +0.000 A 
ATOM     38  H   UNL     1      51.222   6.699   9.585  0.00  0.00    +0.000 HD
ENDBRANCH   2  24
ENDBRANCH   4   3
ENDBRANCH   5   4
TORSDOF 8
ENDMDL
MODEL 7
REMARK VINA RESULT:    -7.543      2.996      4.461
REMARK INTER + INTRA:         -11.410
REMARK INTER:                 -10.238
REMARK INTRA:                  -1.172
REMARK UNBOUND:                -0.780
REMARK  Name = 
REMARK  8 active torsions:
REMARK  status: ('A' for Active; 'I' for Inactive)
REMARK    1  A    between atoms: C_2  and  C_24
REMARK    2  A    between atoms: N_3  and  C_4
REMARK    3  A    between atoms: C_4  and  C_5
REMARK    4  A    between atoms: C_8  and  C_9
REMARK    5  A    between atoms: C_9  and  N_10
REMARK    6  A    between atoms: C_11  and  C_13
REMARK    7  A    between atoms: C_17  and  O_18
REMARK    8  A    between atoms: N_20  and  O_21
REMARK                            x       y       z     vdW  Elec       q    Type
REMARK                         _______ _______ _______ _____ _____    ______ ____
ROOT
ATOM      5  C   UNL     1      49.508   8.094  15.602  0.00  0.00    +0.000 A 
ATOM      6  C   UNL     1      48.279   8.730  15.386  0.00  0.00    +0.000 A 
ATOM      7  C   UNL     1      47.661   8.689  14.130  0.00  0.00    +0.000 A 
ATOM      8  C   UNL     1      48.245   7.984  13.069  0.00  0.00    +0.000 A 
ATOM     22  C   UNL     1      49.475   7.349  13.283  0.00  0.00    +0.000 A 
ATOM     23  C   UNL     1      50.095   7.394  14.538  0.00  0.00    +0.000 A 
ENDROOT
BRANCH   8   9
ATOM      9  C   UNL     1      47.564   7.917  11.724  0.00  0.00    +0.000 C 
BRANCH   9  10
ATOM     10  N   UNL     1      46.789   6.712  11.571  0.00  0.00    +0.000 N 
ATOM     11  C   UNL     1      45.417   6.734  11.557  0.00  0.00    +0.000 C 
ATOM     12  O   UNL     1      44.764   7.773  11.533  0.00  0.00    +0.000 OA
ATOM     35  H   UNL     1      47.235   5.814  11.710  0.00  0.00    +0.000 HD
BRANCH  11  13
ATOM     13  C   UNL     1      44.761   5.373  11.542  0.00  0.00    +0.000 A 
ATOM     14  C   UNL     1      45.135   4.566  10.532  0.00  0.00    +0.000 A 
ATOM     15  C   UNL     1      44.552   3.206  10.463  0.00  0.00    +0.000 A 
ATOM     16  O   UNL     1      44.863   2.401   9.589  0.00  0.00    +0.000 OA
ATOM     17  C   UNL     1      43.550   2.819  11.499  0.00  0.00    +0.000 A 
ATOM     19  C   UNL     1      43.256   3.723  12.439  0.00  0.00    +0.000 A 
ATOM     20  N   UNL     1      43.847   4.971  12.525  0.00  0.00    +0.000 N 
BRANCH  17  18
ATOM     18  O   UNL     1      42.959   1.575  11.439  0.00  0.00    +0.000 OA
ATOM     36  H   UNL     1      42.482   1.562  10.581  0.00  0.00    +0.000 HD
ENDBRANCH  17  18
BRANCH  20  21
ATOM     21  O   UNL     1      43.247   5.925  13.350  0.00  0.00    +0.000 OA
ATOM     37  H   UNL     1      42.398   5.519  13.601  0.00  0.00    +0.000 HD
ENDBRANCH  20  21
ENDBRANCH  11  13
ENDBRANCH   9  10
ENDBRANCH   8   9
BRANCH   5   4
ATOM      4  C   UNL     1      50.156   8.132  16.964  0.00  0.00    +0.000 C 
BRANCH   4   3
ATOM      1  O   UNL     1      48.978   5.862  18.143  0.00  0.00    +0.000 OA
ATOM      2  C   UNL     1      50.180   5.864  17.908  0.00  0.00    +0.000 C 
ATOM      3  N   UNL     1      50.823   6.891  17.257  0.00  0.00    +0.000 N 
ATOM     34  H   UNL     1      51.831   6.896  17.217  0.00  0.00    +0.000 HD
BRANCH   2  24
ATOM     24  C   UNL     1      51.095   4.868  18.465  0.00  0.00    +0.000 A 
ATOM     25  C   UNL     1      52.120   5.223  19.326  0.00  0.00    +0.000 A 
ATOM     26  S   UNL     1      53.257   3.961  19.545  0.00  0.00    +0.000 S 
ATOM     27  C   UNL     1      52.391   2.930  18.498  0.00  0.00    +0.000 A 
ATOM     28  N   UNL     1      52.899   1.750  18.055  0.00  0.00    +0.000 NA
ATOM     29  C   UNL     1      52.113   1.102  17.259  0.00  0.00    +0.000 A 
ATOM     30  N   UNL     1      50.832   1.480  16.933  0.00  0.00    +0.000 N 
ATOM     31  C   UNL     1      50.251   2.623  17.427  0.00  0.00    +0.000 A 
ATOM     32  O   UNL     1      49.067   2.881  17.244  0.00  0.00    +0.000 OA
ATOM     33  C   UNL     1      51.169   3.471  18.155  0.00  0.00    +0.000 A 
ATOM     38  H   UNL     1      50.239   0.881  16.380  0.00  0.00    +0.000 HD
ENDBRANCH   2  24
ENDBRANCH   4   3
ENDBRANCH   5   4
TORSDOF 8
ENDMDL
MODEL 8
REMARK VINA RESULT:    -7.533      3.601      4.875
REMARK INTER + INTRA:         -11.395
REMARK INTER:                 -10.079
REMARK INTRA:                  -1.316
REMARK UNBOUND:                -0.780
REMARK  Name = 
REMARK  8 active torsions:
REMARK  status: ('A' for Active; 'I' for Inactive)
REMARK    1  A    between atoms: C_2  and  C_24
REMARK    2  A    between atoms: N_3  and  C_4
REMARK    3  A    between atoms: C_4  and  C_5
REMARK    4  A    between atoms: C_8  and  C_9
REMARK    5  A    between atoms: C_9  and  N_10
REMARK    6  A    between atoms: C_11  and  C_13
REMARK    7  A    between atoms: C_17  and  O_18
REMARK    8  A    between atoms: N_20  and  O_21
REMARK                            x       y       z     vdW  Elec       q    Type
REMARK                         _______ _______ _______ _____ _____    ______ ____
ROOT
ATOM      5  C   UNL     1      50.146   8.361  16.461  0.00  0.00    +0.000 A 
ATOM      6  C   UNL     1      50.330   8.091  15.099  0.00  0.00    +0.000 A 
ATOM      7  C   UNL     1      49.273   8.230  14.191  0.00  0.00    +0.000 A 
ATOM      8  C   UNL     1      48.014   8.670  14.621  0.00  0.00    +0.000 A 
ATOM     22  C   UNL     1      47.828   8.939  15.984  0.00  0.00    +0.000 A 
ATOM     23  C   UNL     1      48.884   8.796  16.892  0.00  0.00    +0.000 A 
ENDROOT
BRANCH   8   9
ATOM      9  C   UNL     1      46.884   8.847  13.637  0.00  0.00    +0.000 C 
BRANCH   9  10
ATOM     10  N   UNL     1      46.290   7.588  13.266  0.00  0.00    +0.000 N 
ATOM     11  C   UNL     1      45.265   7.516  12.356  0.00  0.00    +0.000 C 
ATOM     12  O   UNL     1      44.881   8.479  11.701  0.00  0.00    +0.000 OA
ATOM     35  H   UNL     1      46.455   6.772  13.842  0.00  0.00    +0.000 HD
BRANCH  11  13
ATOM     13  C   UNL     1      44.656   6.142  12.195  0.00  0.00    +0.000 A 
ATOM     14  C   UNL     1      45.448   5.116  12.556  0.00  0.00    +0.000 A 
ATOM     15  C   UNL     1      44.913   3.739  12.449  0.00  0.00    +0.000 A 
ATOM     16  O   UNL     1      45.564   2.753  12.784  0.00  0.00    +0.000 OA
ATOM     17  C   UNL     1      43.533   3.563  11.908  0.00  0.00    +0.000 A 
ATOM     19  C   UNL     1      42.859   4.668  11.571  0.00  0.00    +0.000 A 
ATOM     20  N   UNL     1      43.349   5.952  11.727  0.00  0.00    +0.000 N 
BRANCH  17  18
ATOM     18  O   UNL     1      43.021   2.293  11.757  0.00  0.00    +0.000 OA
ATOM     36  H   UNL     1      43.709   1.798  11.262  0.00  0.00    +0.000 HD
ENDBRANCH  17  18
BRANCH  20  21
ATOM     21  O   UNL     1      42.688   6.990  11.067  0.00  0.00    +0.000 OA
ATOM     37  H   UNL     1      42.224   7.466  11.780  0.00  0.00    +0.000 HD
ENDBRANCH  20  21
ENDBRANCH  11  13
ENDBRANCH   9  10
ENDBRANCH   8   9
BRANCH   5   4
ATOM      4  C   UNL     1      51.297   8.223  17.427  0.00  0.00    +0.000 C 
BRANCH   4   3
ATOM      1  O   UNL     1      52.994   6.288  16.285  0.00  0.00    +0.000 OA
ATOM      2  C   UNL     1      52.241   5.967  17.195  0.00  0.00    +0.000 C 
ATOM      3  N   UNL     1      51.443   6.862  17.870  0.00  0.00    +0.000 N 
ATOM     34  H   UNL     1      50.747   6.516  18.512  0.00  0.00    +0.000 HD
BRANCH   2  24
ATOM     24  C   UNL     1      51.962   4.572  17.535  0.00  0.00    +0.000 A 
ATOM     25  C   UNL     1      52.966   3.704  17.932  0.00  0.00    +0.000 A 
ATOM     26  S   UNL     1      52.459   2.068  17.918  0.00  0.00    +0.000 S 
ATOM     27  C   UNL     1      50.898   2.503  17.389  0.00  0.00    +0.000 A 
ATOM     28  N   UNL     1      49.990   1.583  16.967  0.00  0.00    +0.000 NA
ATOM     29  C   UNL     1      48.862   2.089  16.589  0.00  0.00    +0.000 A 
ATOM     30  N   UNL     1      48.524   3.418  16.676  0.00  0.00    +0.000 N 
ATOM     31  C   UNL     1      49.381   4.368  17.175  0.00  0.00    +0.000 A 
ATOM     32  O   UNL     1      49.026   5.523  17.378  0.00  0.00    +0.000 OA
ATOM     33  C   UNL     1      50.718   3.870  17.417  0.00  0.00    +0.000 A 
ATOM     38  H   UNL     1      47.592   3.733  16.450  0.00  0.00    +0.000 HD
ENDBRANCH   2  24
ENDBRANCH   4   3
ENDBRANCH   5   4
TORSDOF 8
ENDMDL
MODEL 9
REMARK VINA RESULT:    -7.264      3.398      4.254
REMARK INTER + INTRA:         -11.016
REMARK INTER:                  -9.308
REMARK INTRA:                  -1.708
REMARK UNBOUND:                -0.780
REMARK  Name = 
REMARK  8 active torsions:
REMARK  status: ('A' for Active; 'I' for Inactive)
REMARK    1  A    between atoms: C_2  and  C_24
REMARK    2  A    between atoms: N_3  and  C_4
REMARK    3  A    between atoms: C_4  and  C_5
REMARK    4  A    between atoms: C_8  and  C_9
REMARK    5  A    between atoms: C_9  and  N_10
REMARK    6  A    between atoms: C_11  and  C_13
REMARK    7  A    between atoms: C_17  and  O_18
REMARK    8  A    between atoms: N_20  and  O_21
REMARK                            x       y       z     vdW  Elec       q    Type
REMARK                         _______ _______ _______ _____ _____    ______ ____
ROOT
ATOM      5  C   UNL     1      50.467   8.993  14.773  0.00  0.00    +0.000 A 
ATOM      6  C   UNL     1      49.267   9.703  14.900  0.00  0.00    +0.000 A 
ATOM      7  C   UNL     1      48.280   9.628  13.910  0.00  0.00    +0.000 A 
ATOM      8  C   UNL     1      48.460   8.816  12.782  0.00  0.00    +0.000 A 
ATOM     22  C   UNL     1      49.661   8.106  12.652  0.00  0.00    +0.000 A 
ATOM     23  C   UNL     1      50.650   8.184  13.641  0.00  0.00    +0.000 A 
ENDROOT
BRANCH   8   9
ATOM      9  C   UNL     1      47.384   8.714  11.729  0.00  0.00    +0.000 C 
BRANCH   9  10
ATOM     10  N   UNL     1      46.731   7.430  11.747  0.00  0.00    +0.000 N 
ATOM     11  C   UNL     1      45.367   7.314  11.653  0.00  0.00    +0.000 C 
ATOM     12  O   UNL     1      44.629   8.264  11.410  0.00  0.00    +0.000 OA
ATOM     35  H   UNL     1      47.243   6.618  12.067  0.00  0.00    +0.000 HD
BRANCH  11  13
ATOM     13  C   UNL     1      44.835   5.912  11.841  0.00  0.00    +0.000 A 
ATOM     14  C   UNL     1      45.711   5.029  12.353  0.00  0.00    +0.000 A 
ATOM     15  C   UNL     1      45.256   3.639  12.588  0.00  0.00    +0.000 A 
ATOM     16  O   UNL     1      45.987   2.782  13.077  0.00  0.00    +0.000 OA
ATOM     17  C   UNL     1      43.857   3.285  12.208  0.00  0.00    +0.000 A 
ATOM     19  C   UNL     1      43.095   4.256  11.693  0.00  0.00    +0.000 A 
ATOM     20  N   UNL     1      43.514   5.565  11.529  0.00  0.00    +0.000 N 
BRANCH  17  18
ATOM     18  O   UNL     1      43.416   1.991  12.376  0.00  0.00    +0.000 OA
ATOM     36  H   UNL     1      42.483   2.076  12.670  0.00  0.00    +0.000 HD
ENDBRANCH  17  18
BRANCH  20  21
ATOM     21  O   UNL     1      42.748   6.400  10.713  0.00  0.00    +0.000 OA
ATOM     37  H   UNL     1      43.132   6.279   9.825  0.00  0.00    +0.000 HD
ENDBRANCH  20  21
ENDBRANCH  11  13
ENDBRANCH   9  10
ENDBRANCH   8   9
BRANCH   5   4
ATOM      4  C   UNL     1      51.517   9.069  15.855  0.00  0.00    +0.000 C 
BRANCH   4   3
ATOM      1  O   UNL     1      52.178   6.367  16.294  0.00  0.00    +0.000 OA
ATOM      2  C   UNL     1      51.445   6.944  17.087  0.00  0.00    +0.000 C 
ATOM      3  N   UNL     1      51.140   8.283  17.000  0.00  0.00    +0.000 N 
ATOM     34  H   UNL     1      50.424   8.666  17.598  0.00  0.00    +0.000 HD
BRANCH   2  24
ATOM     24  C   UNL     1      50.659   6.235  18.095  0.00  0.00    +0.000 A 
ATOM     25  C   UNL     1      51.018   6.238  19.433  0.00  0.00    +0.000 A 
ATOM     26  S   UNL     1      50.169   5.059  20.340  0.00  0.00    +0.000 S 
ATOM     27  C   UNL     1      49.312   4.540  18.961  0.00  0.00    +0.000 A 
ATOM     28  N   UNL     1      48.553   3.412  18.957  0.00  0.00    +0.000 NA
ATOM     29  C   UNL     1      47.985   3.161  17.824  0.00  0.00    +0.000 A 
ATOM     30  N   UNL     1      48.032   3.977  16.719  0.00  0.00    +0.000 N 
ATOM     31  C   UNL     1      48.718   5.167  16.708  0.00  0.00    +0.000 A 
ATOM     32  O   UNL     1      48.642   5.953  15.770  0.00  0.00    +0.000 OA
ATOM     33  C   UNL     1      49.529   5.378  17.887  0.00  0.00    +0.000 A 
ATOM     38  H   UNL     1      47.488   3.768  15.895  0.00  0.00    +0.000 HD
ENDBRANCH   2  24
ENDBRANCH   4   3
ENDBRANCH   5   4
TORSDOF 8
ENDMDL
