MODEL 1
REMARK VINA RESULT:    -7.581      0.000      0.000
REMARK INTER + INTRA:         -13.084
REMARK INTER:                 -11.791
REMARK INTRA:                  -1.293
REMARK UNBOUND:                -1.293
REMARK  Name = 
REMARK  12 active torsions:
REMARK  status: ('A' for Active; 'I' for Inactive)
REMARK    1  A    between atoms: N_1  and  C_2
REMARK    2  A    between atoms: N_10  and  C_11
REMARK    3  A    between atoms: C_13  and  C_14
REMARK    4  A    between atoms: C_14  and  S_15
REMARK    5  A    between atoms: S_15  and  C_16
REMARK    6  A    between atoms: C_16  and  C_17
REMARK    7  A    between atoms: C_17  and  C_18
REMARK    8  A    between atoms: C_18  and  N_19
REMARK    9  A    between atoms: C_18  and  C_20
REMARK   10  A    between atoms: C_20  and  O_22
REMARK   11  A    between atoms: C_23  and  O_24
REMARK   12  A    between atoms: C_25  and  O_26
REMARK                            x       y       z     vdW  Elec       q    Type
REMARK                         _______ _______ _______ _____ _____    ______ ____
ROOT
ATOM     11  C   UNK     1      44.411   3.731   9.966  0.00  0.00    +0.000 C 
ATOM     12  O   UNK     1      43.617   4.932   9.849  0.00  0.00    +0.000 OA
ATOM     13  C   UNK     1      43.418   5.514  11.158  0.00  0.00    +0.000 C 
ATOM     23  C   UNK     1      43.964   4.503  12.159  0.00  0.00    +0.000 C 
ATOM     25  C   UNK     1      45.022   3.748  11.367  0.00  0.00    +0.000 C 
ENDROOT
BRANCH  11  10
ATOM      2  C   UNK     1      47.495   2.045   6.639  0.00  0.00    +0.000 A 
ATOM      3  N   UNK     1      47.275   0.742   6.930  0.00  0.00    +0.000 NA
ATOM      4  C   UNK     1      46.409   0.445   7.924  0.00  0.00    +0.000 A 
ATOM      5  N   UNK     1      45.684   1.289   8.686  0.00  0.00    +0.000 NA
ATOM      6  C   UNK     1      45.925   2.566   8.346  0.00  0.00    +0.000 A 
ATOM      7  C   UNK     1      46.785   3.021   7.359  0.00  0.00    +0.000 A 
ATOM      8  N   UNK     1      46.756   4.399   7.281  0.00  0.00    +0.000 NA
ATOM      9  C   UNK     1      45.892   4.768   8.205  0.00  0.00    +0.000 A 
ATOM     10  N   UNK     1      45.379   3.699   8.890  0.00  0.00    +0.000 N 
BRANCH   2   1
ATOM      1  N   UNK     1      48.406   2.354   5.638  0.00  0.00    +0.000 N 
ATOM     27  H   UNK     1      49.011   3.126   5.882  0.00  0.00    +0.000 HD
ATOM     28  H   UNK     1      48.819   1.541   5.196  0.00  0.00    +0.000 HD
ENDBRANCH   2   1
ENDBRANCH  11  10
BRANCH  25  26
ATOM     26  O   UNK     1      45.234   2.453  11.920  0.00  0.00    +0.000 OA
ATOM     33  H   UNK     1      45.628   2.590  12.808  0.00  0.00    +0.000 HD
ENDBRANCH  25  26
BRANCH  23  24
ATOM     24  O   UNK     1      42.945   3.564  12.556  0.00  0.00    +0.000 OA
ATOM     32  H   UNK     1      42.255   4.030  13.065  0.00  0.00    +0.000 HD
ENDBRANCH  23  24
BRANCH  13  14
ATOM     14  C   UNK     1      44.109   6.881  11.247  0.00  0.00    +0.000 C 
BRANCH  14  15
ATOM     15  S   UNK     1      45.068   6.942  12.800  0.00  0.00    +0.000 S 
BRANCH  15  16
ATOM     16  C   UNK     1      46.757   6.906  12.130  0.00  0.00    +0.000 C 
BRANCH  16  17
ATOM     17  C   UNK     1      47.588   5.837  12.847  0.00  0.00    +0.000 C 
BRANCH  17  18
ATOM     18  C   UNK     1      47.269   5.649  14.338  0.00  0.00    +0.000 C 
BRANCH  18  19
ATOM     19  N   UNK     1      48.369   6.234  15.141  0.00  0.00    +0.000 NA
ATOM     29  H   UNK     1      48.399   5.743  16.038  0.00  0.00    +0.000 HD
ATOM     30  H   UNK     1      48.115   7.190  15.391  0.00  0.00    +0.000 HD
ENDBRANCH  18  19
BRANCH  18  20
ATOM     20  C   UNK     1      47.112   4.155  14.682  0.00  0.00    +0.000 C 
ATOM     21  O   UNK     1      47.300   3.245  13.891  0.00  0.00    +0.000 OA
BRANCH  20  22
ATOM     22  O   UNK     1      46.717   3.932  15.957  0.00  0.00    +0.000 OA
ATOM     31  H   UNK     1      46.590   4.752  16.481  0.00  0.00    +0.000 HD
ENDBRANCH  20  22
ENDBRANCH  18  20
ENDBRANCH  17  18
ENDBRANCH  16  17
ENDBRANCH  15  16
ENDBRANCH  14  15
ENDBRANCH  13  14
TORSDOF 12
ENDMDL
MODEL 2
REMARK VINA RESULT:    -7.185      2.754      6.790
REMARK INTER + INTRA:         -12.469
REMARK INTER:                 -11.982
REMARK INTRA:                  -0.486
REMARK UNBOUND:                -1.293
REMARK  Name = 
REMARK  12 active torsions:
REMARK  status: ('A' for Active; 'I' for Inactive)
REMARK    1  A    between atoms: N_1  and  C_2
REMARK    2  A    between atoms: N_10  and  C_11
REMARK    3  A    between atoms: C_13  and  C_14
REMARK    4  A    between atoms: C_14  and  S_15
REMARK    5  A    between atoms: S_15  and  C_16
REMARK    6  A    between atoms: C_16  and  C_17
REMARK    7  A    between atoms: C_17  and  C_18
REMARK    8  A    between atoms: C_18  and  N_19
REMARK    9  A    between atoms: C_18  and  C_20
REMARK   10  A    between atoms: C_20  and  O_22
REMARK   11  A    between atoms: C_23  and  O_24
REMARK   12  A    between atoms: C_25  and  O_26
REMARK                            x       y       z     vdW  Elec       q    Type
REMARK                         _______ _______ _______ _____ _____    ______ ____
ROOT
ATOM     11  C   UNK     1      44.620   6.216  12.877  0.00  0.00    +0.000 C 
ATOM     12  O   UNK     1      44.101   4.904  13.188  0.00  0.00    +0.000 OA
ATOM     13  C   UNK     1      43.143   4.508  12.179  0.00  0.00    +0.000 C 
ATOM     23  C   UNK     1      42.922   5.733  11.300  0.00  0.00    +0.000 C 
ATOM     25  C   UNK     1      44.225   6.509  11.430  0.00  0.00    +0.000 C 
ENDROOT
BRANCH  11  10
ATOM      2  C   UNK     1      49.153   7.825  13.408  0.00  0.00    +0.000 A 
ATOM      3  N   UNK     1      48.842   9.120  13.172  0.00  0.00    +0.000 NA
ATOM      4  C   UNK     1      47.557   9.430  12.892  0.00  0.00    +0.000 A 
ATOM      5  N   UNK     1      46.489   8.608  12.832  0.00  0.00    +0.000 NA
ATOM      6  C   UNK     1      46.848   7.340  13.090  0.00  0.00    +0.000 A 
ATOM      7  C   UNK     1      48.119   6.874  13.386  0.00  0.00    +0.000 A 
ATOM      8  N   UNK     1      48.100   5.513  13.616  0.00  0.00    +0.000 NA
ATOM      9  C   UNK     1      46.839   5.165  13.463  0.00  0.00    +0.000 A 
ATOM     10  N   UNK     1      46.047   6.229  13.123  0.00  0.00    +0.000 N 
BRANCH   2   1
ATOM      1  N   UNK     1      50.477   7.499  13.668  0.00  0.00    +0.000 N 
ATOM     27  H   UNK     1      51.108   7.803  12.938  0.00  0.00    +0.000 HD
ATOM     28  H   UNK     1      50.754   7.647  14.632  0.00  0.00    +0.000 HD
ENDBRANCH   2   1
ENDBRANCH  11  10
BRANCH  25  26
ATOM     26  O   UNK     1      44.014   7.891  11.158  0.00  0.00    +0.000 OA
ATOM     33  H   UNK     1      43.112   8.105  11.478  0.00  0.00    +0.000 HD
ENDBRANCH  25  26
BRANCH  23  24
ATOM     24  O   UNK     1      41.856   6.555  11.815  0.00  0.00    +0.000 OA
ATOM     32  H   UNK     1      41.214   5.994  12.290  0.00  0.00    +0.000 HD
ENDBRANCH  23  24
BRANCH  13  14
ATOM     14  C   UNK     1      43.660   3.293  11.396  0.00  0.00    +0.000 C 
BRANCH  14  15
ATOM     15  S   UNK     1      44.176   3.853   9.737  0.00  0.00    +0.000 S 
BRANCH  15  16
ATOM     16  C   UNK     1      44.888   2.310   9.090  0.00  0.00    +0.000 C 
BRANCH  16  17
ATOM     17  C   UNK     1      45.448   2.534   7.682  0.00  0.00    +0.000 C 
BRANCH  17  18
ATOM     18  C   UNK     1      46.879   3.091   7.627  0.00  0.00    +0.000 C 
BRANCH  18  19
ATOM     19  N   UNK     1      46.859   4.393   6.918  0.00  0.00    +0.000 NA
ATOM     29  H   UNK     1      46.641   4.213   5.935  0.00  0.00    +0.000 HD
ATOM     30  H   UNK     1      47.809   4.765   6.896  0.00  0.00    +0.000 HD
ENDBRANCH  18  19
BRANCH  18  20
ATOM     20  C   UNK     1      47.821   2.115   6.896  0.00  0.00    +0.000 C 
ATOM     21  O   UNK     1      47.703   0.900   6.919  0.00  0.00    +0.000 OA
BRANCH  20  22
ATOM     22  O   UNK     1      48.825   2.730   6.228  0.00  0.00    +0.000 OA
ATOM     31  H   UNK     1      48.604   2.952   5.298  0.00  0.00    +0.000 HD
ENDBRANCH  20  22
ENDBRANCH  18  20
ENDBRANCH  17  18
ENDBRANCH  16  17
ENDBRANCH  15  16
ENDBRANCH  14  15
ENDBRANCH  13  14
TORSDOF 12
ENDMDL
MODEL 3
REMARK VINA RESULT:    -7.175      2.534      4.036
REMARK INTER + INTRA:         -12.453
REMARK INTER:                 -12.007
REMARK INTRA:                  -0.446
REMARK UNBOUND:                -1.293
REMARK  Name = 
REMARK  12 active torsions:
REMARK  status: ('A' for Active; 'I' for Inactive)
REMARK    1  A    between atoms: N_1  and  C_2
REMARK    2  A    between atoms: N_10  and  C_11
REMARK    3  A    between atoms: C_13  and  C_14
REMARK    4  A    between atoms: C_14  and  S_15
REMARK    5  A    between atoms: S_15  and  C_16
REMARK    6  A    between atoms: C_16  and  C_17
REMARK    7  A    between atoms: C_17  and  C_18
REMARK    8  A    between atoms: C_18  and  N_19
REMARK    9  A    between atoms: C_18  and  C_20
REMARK   10  A    between atoms: C_20  and  O_22
REMARK   11  A    between atoms: C_23  and  O_24
REMARK   12  A    between atoms: C_25  and  O_26
REMARK                            x       y       z     vdW  Elec       q    Type
REMARK                         _______ _______ _______ _____ _____    ______ ____
ROOT
ATOM     11  C   UNK     1      44.474   3.285  10.355  0.00  0.00    +0.000 C 
ATOM     12  O   UNK     1      43.294   4.105  10.206  0.00  0.00    +0.000 OA
ATOM     13  C   UNK     1      42.974   4.731  11.470  0.00  0.00    +0.000 C 
ATOM     23  C   UNK     1      43.905   4.106  12.502  0.00  0.00    +0.000 C 
ATOM     25  C   UNK     1      45.117   3.685  11.683  0.00  0.00    +0.000 C 
ENDROOT
BRANCH  11  10
ATOM      2  C   UNK     1      47.339   2.293   6.583  0.00  0.00    +0.000 A 
ATOM      3  N   UNK     1      47.272   0.951   6.739  0.00  0.00    +0.000 NA
ATOM      4  C   UNK     1      46.544   0.461   7.767  0.00  0.00    +0.000 A 
ATOM      5  N   UNK     1      45.827   1.139   8.687  0.00  0.00    +0.000 NA
ATOM      6  C   UNK     1      45.913   2.463   8.478  0.00  0.00    +0.000 A 
ATOM      7  C   UNK     1      46.621   3.108   7.475  0.00  0.00    +0.000 A 
ATOM      8  N   UNK     1      46.457   4.476   7.562  0.00  0.00    +0.000 NA
ATOM      9  C   UNK     1      45.664   4.652   8.598  0.00  0.00    +0.000 A 
ATOM     10  N   UNK     1      45.325   3.469   9.198  0.00  0.00    +0.000 N 
BRANCH   2   1
ATOM      1  N   UNK     1      48.110   2.800   5.545  0.00  0.00    +0.000 N 
ATOM     27  H   UNK     1      47.582   2.938   4.694  0.00  0.00    +0.000 HD
ATOM     28  H   UNK     1      48.755   3.528   5.833  0.00  0.00    +0.000 HD
ENDBRANCH   2   1
ENDBRANCH  11  10
BRANCH  25  26
ATOM     26  O   UNK     1      45.815   2.624  12.329  0.00  0.00    +0.000 OA
ATOM     33  H   UNK     1      45.968   2.913  13.253  0.00  0.00    +0.000 HD
ENDBRANCH  25  26
BRANCH  23  24
ATOM     24  O   UNK     1      43.319   2.922  13.079  0.00  0.00    +0.000 OA
ATOM     32  H   UNK     1      42.618   3.181  13.706  0.00  0.00    +0.000 HD
ENDBRANCH  23  24
BRANCH  13  14
ATOM     14  C   UNK     1      43.128   6.255  11.368  0.00  0.00    +0.000 C 
BRANCH  14  15
ATOM     15  S   UNK     1      44.612   6.749  12.310  0.00  0.00    +0.000 S 
BRANCH  15  16
ATOM     16  C   UNK     1      44.782   8.471  11.752  0.00  0.00    +0.000 C 
BRANCH  16  17
ATOM     17  C   UNK     1      43.700   8.802  10.719  0.00  0.00    +0.000 C 
BRANCH  17  18
ATOM     18  C   UNK     1      43.063  10.193  10.859  0.00  0.00    +0.000 C 
BRANCH  18  19
ATOM     19  N   UNK     1      43.402  10.743  12.193  0.00  0.00    +0.000 NA
ATOM     29  H   UNK     1      43.769  11.688  12.060  0.00  0.00    +0.000 HD
ATOM     30  H   UNK     1      44.194  10.221  12.568  0.00  0.00    +0.000 HD
ENDBRANCH  18  19
BRANCH  18  20
ATOM     20  C   UNK     1      41.532  10.115  10.703  0.00  0.00    +0.000 C 
ATOM     21  O   UNK     1      40.874  10.870  10.005  0.00  0.00    +0.000 OA
BRANCH  20  22
ATOM     22  O   UNK     1      40.962   9.131  11.437  0.00  0.00    +0.000 OA
ATOM     31  H   UNK     1      40.809   9.376  12.375  0.00  0.00    +0.000 HD
ENDBRANCH  20  22
ENDBRANCH  18  20
ENDBRANCH  17  18
ENDBRANCH  16  17
ENDBRANCH  15  16
ENDBRANCH  14  15
ENDBRANCH  13  14
TORSDOF 12
ENDMDL
MODEL 4
REMARK VINA RESULT:    -7.084      1.664      1.977
REMARK INTER + INTRA:         -12.311
REMARK INTER:                 -11.583
REMARK INTRA:                  -0.728
REMARK UNBOUND:                -1.293
REMARK  Name = 
REMARK  12 active torsions:
REMARK  status: ('A' for Active; 'I' for Inactive)
REMARK    1  A    between atoms: N_1  and  C_2
REMARK    2  A    between atoms: N_10  and  C_11
REMARK    3  A    between atoms: C_13  and  C_14
REMARK    4  A    between atoms: C_14  and  S_15
REMARK    5  A    between atoms: S_15  and  C_16
REMARK    6  A    between atoms: C_16  and  C_17
REMARK    7  A    between atoms: C_17  and  C_18
REMARK    8  A    between atoms: C_18  and  N_19
REMARK    9  A    between atoms: C_18  and  C_20
REMARK   10  A    between atoms: C_20  and  O_22
REMARK   11  A    between atoms: C_23  and  O_24
REMARK   12  A    between atoms: C_25  and  O_26
REMARK                            x       y       z     vdW  Elec       q    Type
REMARK                         _______ _______ _______ _____ _____    ______ ____
ROOT
ATOM     11  C   UNK     1      44.525   3.113  10.254  0.00  0.00    +0.000 C 
ATOM     12  O   UNK     1      43.314   3.887  10.114  0.00  0.00    +0.000 OA
ATOM     13  C   UNK     1      42.962   4.476  11.388  0.00  0.00    +0.000 C 
ATOM     23  C   UNK     1      43.915   3.871  12.412  0.00  0.00    +0.000 C 
ATOM     25  C   UNK     1      45.146   3.515  11.591  0.00  0.00    +0.000 C 
ENDROOT
BRANCH  11  10
ATOM      2  C   UNK     1      47.432   2.309   6.469  0.00  0.00    +0.000 A 
ATOM      3  N   UNK     1      47.410   0.961   6.593  0.00  0.00    +0.000 NA
ATOM      4  C   UNK     1      46.697   0.423   7.607  0.00  0.00    +0.000 A 
ATOM      5  N   UNK     1      45.955   1.055   8.540  0.00  0.00    +0.000 NA
ATOM      6  C   UNK     1      45.997   2.385   8.362  0.00  0.00    +0.000 A 
ATOM      7  C   UNK     1      46.684   3.077   7.377  0.00  0.00    +0.000 A 
ATOM      8  N   UNK     1      46.474   4.436   7.495  0.00  0.00    +0.000 NA
ATOM      9  C   UNK     1      45.672   4.562   8.533  0.00  0.00    +0.000 A 
ATOM     10  N   UNK     1      45.373   3.353   9.104  0.00  0.00    +0.000 N 
BRANCH   2   1
ATOM      1  N   UNK     1      48.187   2.866   5.446  0.00  0.00    +0.000 N 
ATOM     27  H   UNK     1      49.175   2.667   5.532  0.00  0.00    +0.000 HD
ATOM     28  H   UNK     1      47.759   2.785   4.530  0.00  0.00    +0.000 HD
ENDBRANCH   2   1
ENDBRANCH  11  10
BRANCH  25  26
ATOM     26  O   UNK     1      45.885   2.472  12.221  0.00  0.00    +0.000 OA
ATOM     33  H   UNK     1      46.604   2.226  11.602  0.00  0.00    +0.000 HD
ENDBRANCH  25  26
BRANCH  23  24
ATOM     24  O   UNK     1      43.377   2.654  12.965  0.00  0.00    +0.000 OA
ATOM     32  H   UNK     1      43.190   2.784  13.914  0.00  0.00    +0.000 HD
ENDBRANCH  23  24
BRANCH  13  14
ATOM     14  C   UNK     1      43.054   6.006  11.314  0.00  0.00    +0.000 C 
BRANCH  14  15
ATOM     15  S   UNK     1      44.252   6.575  12.569  0.00  0.00    +0.000 S 
BRANCH  15  16
ATOM     16  C   UNK     1      45.558   7.228  11.486  0.00  0.00    +0.000 C 
BRANCH  16  17
ATOM     17  C   UNK     1      46.372   8.296  12.223  0.00  0.00    +0.000 C 
BRANCH  17  18
ATOM     18  C   UNK     1      47.236   7.779  13.382  0.00  0.00    +0.000 C 
BRANCH  18  19
ATOM     19  N   UNK     1      47.255   8.798  14.459  0.00  0.00    +0.000 NA
ATOM     29  H   UNK     1      46.455   9.418  14.318  0.00  0.00    +0.000 HD
ATOM     30  H   UNK     1      48.064   9.403  14.319  0.00  0.00    +0.000 HD
ENDBRANCH  18  19
BRANCH  18  20
ATOM     20  C   UNK     1      48.676   7.495  12.910  0.00  0.00    +0.000 C 
ATOM     21  O   UNK     1      49.427   8.341  12.450  0.00  0.00    +0.000 OA
BRANCH  20  22
ATOM     22  O   UNK     1      49.039   6.197  13.030  0.00  0.00    +0.000 OA
ATOM     31  H   UNK     1      48.506   5.585  12.479  0.00  0.00    +0.000 HD
ENDBRANCH  20  22
ENDBRANCH  18  20
ENDBRANCH  17  18
ENDBRANCH  16  17
ENDBRANCH  15  16
ENDBRANCH  14  15
ENDBRANCH  13  14
TORSDOF 12
ENDMDL
MODEL 5
REMARK VINA RESULT:    -6.734      2.789      6.913
REMARK INTER + INTRA:         -11.767
REMARK INTER:                 -11.085
REMARK INTRA:                  -0.682
REMARK UNBOUND:                -1.293
REMARK  Name = 
REMARK  12 active torsions:
REMARK  status: ('A' for Active; 'I' for Inactive)
REMARK    1  A    between atoms: N_1  and  C_2
REMARK    2  A    between atoms: N_10  and  C_11
REMARK    3  A    between atoms: C_13  and  C_14
REMARK    4  A    between atoms: C_14  and  S_15
REMARK    5  A    between atoms: S_15  and  C_16
REMARK    6  A    between atoms: C_16  and  C_17
REMARK    7  A    between atoms: C_17  and  C_18
REMARK    8  A    between atoms: C_18  and  N_19
REMARK    9  A    between atoms: C_18  and  C_20
REMARK   10  A    between atoms: C_20  and  O_22
REMARK   11  A    between atoms: C_23  and  O_24
REMARK   12  A    between atoms: C_25  and  O_26
REMARK                            x       y       z     vdW  Elec       q    Type
REMARK                         _______ _______ _______ _____ _____    ______ ____
ROOT
ATOM     11  C   UNK     1      45.889   6.314  13.203  0.00  0.00    +0.000 C 
ATOM     12  O   UNK     1      45.955   4.899  13.486  0.00  0.00    +0.000 OA
ATOM     13  C   UNK     1      44.837   4.225  12.863  0.00  0.00    +0.000 C 
ATOM     23  C   UNK     1      43.926   5.322  12.324  0.00  0.00    +0.000 C 
ATOM     25  C   UNK     1      44.876   6.484  12.071  0.00  0.00    +0.000 C 
ENDROOT
BRANCH  11  10
ATOM      2  C   UNK     1      50.512   7.638  13.746  0.00  0.00    +0.000 A 
ATOM      3  N   UNK     1      50.560   7.343  15.066  0.00  0.00    +0.000 NA
ATOM      4  C   UNK     1      49.440   6.874  15.659  0.00  0.00    +0.000 A 
ATOM      5  N   UNK     1      48.236   6.624  15.102  0.00  0.00    +0.000 NA
ATOM      6  C   UNK     1      48.247   6.917  13.792  0.00  0.00    +0.000 A 
ATOM      7  C   UNK     1      49.312   7.407  13.052  0.00  0.00    +0.000 A 
ATOM      8  N   UNK     1      48.957   7.565  11.727  0.00  0.00    +0.000 NA
ATOM      9  C   UNK     1      47.699   7.176  11.670  0.00  0.00    +0.000 A 
ATOM     10  N   UNK     1      47.219   6.796  12.894  0.00  0.00    +0.000 N 
BRANCH   2   1
ATOM      1  N   UNK     1      51.652   8.147  13.140  0.00  0.00    +0.000 N 
ATOM     27  H   UNK     1      52.106   8.862  13.693  0.00  0.00    +0.000 HD
ATOM     28  H   UNK     1      52.232   7.442  12.699  0.00  0.00    +0.000 HD
ENDBRANCH   2   1
ENDBRANCH  11  10
BRANCH  25  26
ATOM     26  O   UNK     1      44.174   7.723  12.106  0.00  0.00    +0.000 OA
ATOM     33  H   UNK     1      43.318   7.571  11.652  0.00  0.00    +0.000 HD
ENDBRANCH  25  26
BRANCH  23  24
ATOM     24  O   UNK     1      42.967   5.735  13.318  0.00  0.00    +0.000 OA
ATOM     32  H   UNK     1      43.078   5.191  14.121  0.00  0.00    +0.000 HD
ENDBRANCH  23  24
BRANCH  13  14
ATOM     14  C   UNK     1      45.330   3.265  11.772  0.00  0.00    +0.000 C 
BRANCH  14  15
ATOM     15  S   UNK     1      44.164   3.337  10.369  0.00  0.00    +0.000 S 
BRANCH  15  16
ATOM     16  C   UNK     1      45.264   3.989   9.077  0.00  0.00    +0.000 C 
BRANCH  16  17
ATOM     17  C   UNK     1      45.591   2.893   8.057  0.00  0.00    +0.000 C 
BRANCH  17  18
ATOM     18  C   UNK     1      46.943   3.043   7.344  0.00  0.00    +0.000 C 
BRANCH  18  19
ATOM     19  N   UNK     1      46.774   3.949   6.183  0.00  0.00    +0.000 NA
ATOM     29  H   UNK     1      47.508   4.660   6.229  0.00  0.00    +0.000 HD
ATOM     30  H   UNK     1      45.911   4.478   6.306  0.00  0.00    +0.000 HD
ENDBRANCH  18  19
BRANCH  18  20
ATOM     20  C   UNK     1      47.466   1.675   6.864  0.00  0.00    +0.000 C 
ATOM     21  O   UNK     1      47.003   0.602   7.216  0.00  0.00    +0.000 OA
BRANCH  20  22
ATOM     22  O   UNK     1      48.519   1.764   6.019  0.00  0.00    +0.000 OA
ATOM     31  H   UNK     1      48.766   0.911   5.604  0.00  0.00    +0.000 HD
ENDBRANCH  20  22
ENDBRANCH  18  20
ENDBRANCH  17  18
ENDBRANCH  16  17
ENDBRANCH  15  16
ENDBRANCH  14  15
ENDBRANCH  13  14
TORSDOF 12
ENDMDL
MODEL 6
REMARK VINA RESULT:    -6.572      3.857      5.472
REMARK INTER + INTRA:         -11.515
REMARK INTER:                 -10.266
REMARK INTRA:                  -1.249
REMARK UNBOUND:                -1.293
REMARK  Name = 
REMARK  12 active torsions:
REMARK  status: ('A' for Active; 'I' for Inactive)
REMARK    1  A    between atoms: N_1  and  C_2
REMARK    2  A    between atoms: N_10  and  C_11
REMARK    3  A    between atoms: C_13  and  C_14
REMARK    4  A    between atoms: C_14  and  S_15
REMARK    5  A    between atoms: S_15  and  C_16
REMARK    6  A    between atoms: C_16  and  C_17
REMARK    7  A    between atoms: C_17  and  C_18
REMARK    8  A    between atoms: C_18  and  N_19
REMARK    9  A    between atoms: C_18  and  C_20
REMARK   10  A    between atoms: C_20  and  O_22
REMARK   11  A    between atoms: C_23  and  O_24
REMARK   12  A    between atoms: C_25  and  O_26
REMARK                            x       y       z     vdW  Elec       q    Type
REMARK                         _______ _______ _______ _____ _____    ______ ____
ROOT
ATOM     11  C   UNK     1      47.086   7.030  12.308  0.00  0.00    +0.000 C 
ATOM     12  O   UNK     1      48.345   7.077  13.015  0.00  0.00    +0.000 OA
ATOM     13  C   UNK     1      48.536   8.393  13.584  0.00  0.00    +0.000 C 
ATOM     23  C   UNK     1      47.412   9.261  13.031  0.00  0.00    +0.000 C 
ATOM     25  C   UNK     1      46.297   8.265  12.743  0.00  0.00    +0.000 C 
ENDROOT
BRANCH  11  10
ATOM      2  C   UNK     1      44.067   3.263  11.961  0.00  0.00    +0.000 A 
ATOM      3  N   UNK     1      43.446   3.717  10.848  0.00  0.00    +0.000 NA
ATOM      4  C   UNK     1      43.838   4.905  10.335  0.00  0.00    +0.000 A 
ATOM      5  N   UNK     1      44.811   5.730  10.775  0.00  0.00    +0.000 NA
ATOM      6  C   UNK     1      45.405   5.226  11.868  0.00  0.00    +0.000 A 
ATOM      7  C   UNK     1      45.110   4.031  12.506  0.00  0.00    +0.000 A 
ATOM      8  N   UNK     1      45.946   3.833  13.587  0.00  0.00    +0.000 NA
ATOM      9  C   UNK     1      46.733   4.890  13.600  0.00  0.00    +0.000 A 
ATOM     10  N   UNK     1      46.431   5.770  12.595  0.00  0.00    +0.000 N 
BRANCH   2   1
ATOM      1  N   UNK     1      43.647   2.058  12.506  0.00  0.00    +0.000 N 
ATOM     27  H   UNK     1      43.635   2.066  13.517  0.00  0.00    +0.000 HD
ATOM     28  H   UNK     1      42.862   1.640  12.020  0.00  0.00    +0.000 HD
ENDBRANCH   2   1
ENDBRANCH  11  10
BRANCH  25  26
ATOM     26  O   UNK     1      45.419   8.771  11.742  0.00  0.00    +0.000 OA
ATOM     33  H   UNK     1      45.002   7.992  11.317  0.00  0.00    +0.000 HD
ENDBRANCH  25  26
BRANCH  23  24
ATOM     24  O   UNK     1      47.796   9.877  11.786  0.00  0.00    +0.000 OA
ATOM     32  H   UNK     1      48.101   9.189  11.164  0.00  0.00    +0.000 HD
ENDBRANCH  23  24
BRANCH  13  14
ATOM     14  C   UNK     1      48.539   8.319  15.117  0.00  0.00    +0.000 C 
BRANCH  14  15
ATOM     15  S   UNK     1      49.661   6.973  15.628  0.00  0.00    +0.000 S 
BRANCH  15  16
ATOM     16  C   UNK     1      49.190   6.815  17.376  0.00  0.00    +0.000 C 
BRANCH  16  17
ATOM     17  C   UNK     1      48.889   5.351  17.713  0.00  0.00    +0.000 C 
BRANCH  17  18
ATOM     18  C   UNK     1      47.478   4.869  17.342  0.00  0.00    +0.000 C 
BRANCH  18  19
ATOM     19  N   UNK     1      46.568   5.129  18.483  0.00  0.00    +0.000 NA
ATOM     29  H   UNK     1      47.142   5.330  19.305  0.00  0.00    +0.000 HD
ATOM     30  H   UNK     1      46.091   4.259  18.722  0.00  0.00    +0.000 HD
ENDBRANCH  18  19
BRANCH  18  20
ATOM     20  C   UNK     1      47.480   3.364  17.011  0.00  0.00    +0.000 C 
ATOM     21  O   UNK     1      48.197   2.848  16.168  0.00  0.00    +0.000 OA
BRANCH  20  22
ATOM     22  O   UNK     1      46.587   2.649  17.734  0.00  0.00    +0.000 OA
ATOM     31  H   UNK     1      46.472   2.973  18.653  0.00  0.00    +0.000 HD
ENDBRANCH  20  22
ENDBRANCH  18  20
ENDBRANCH  17  18
ENDBRANCH  16  17
ENDBRANCH  15  16
ENDBRANCH  14  15
ENDBRANCH  13  14
TORSDOF 12
ENDMDL
MODEL 7
REMARK VINA RESULT:    -6.275      4.363      6.473
REMARK INTER + INTRA:         -11.052
REMARK INTER:                  -9.590
REMARK INTRA:                  -1.462
REMARK UNBOUND:                -1.293
REMARK  Name = 
REMARK  12 active torsions:
REMARK  status: ('A' for Active; 'I' for Inactive)
REMARK    1  A    between atoms: N_1  and  C_2
REMARK    2  A    between atoms: N_10  and  C_11
REMARK    3  A    between atoms: C_13  and  C_14
REMARK    4  A    between atoms: C_14  and  S_15
REMARK    5  A    between atoms: S_15  and  C_16
REMARK    6  A    between atoms: C_16  and  C_17
REMARK    7  A    between atoms: C_17  and  C_18
REMARK    8  A    between atoms: C_18  and  N_19
REMARK    9  A    between atoms: C_18  and  C_20
REMARK   10  A    between atoms: C_20  and  O_22
REMARK   11  A    between atoms: C_23  and  O_24
REMARK   12  A    between atoms: C_25  and  O_26
REMARK                            x       y       z     vdW  Elec       q    Type
REMARK                         _______ _______ _______ _____ _____    ______ ____
ROOT
ATOM     11  C   UNK     1      48.416   6.830  13.807  0.00  0.00    +0.000 C 
ATOM     12  O   UNK     1      48.301   6.004  14.986  0.00  0.00    +0.000 OA
ATOM     13  C   UNK     1      49.199   6.489  16.011  0.00  0.00    +0.000 C 
ATOM     23  C   UNK     1      50.055   7.563  15.350  0.00  0.00    +0.000 C 
ATOM     25  C   UNK     1      49.168   8.091  14.231  0.00  0.00    +0.000 C 
ENDROOT
BRANCH  11  10
ATOM      2  C   UNK     1      44.023   6.037  11.938  0.00  0.00    +0.000 A 
ATOM      3  N   UNK     1      44.142   4.689  11.937  0.00  0.00    +0.000 NA
ATOM      4  C   UNK     1      45.298   4.148  12.379  0.00  0.00    +0.000 A 
ATOM      5  N   UNK     1      46.390   4.777  12.861  0.00  0.00    +0.000 NA
ATOM      6  C   UNK     1      46.214   6.108  12.857  0.00  0.00    +0.000 A 
ATOM      7  C   UNK     1      45.093   6.803  12.432  0.00  0.00    +0.000 A 
ATOM      8  N   UNK     1      45.267   8.163  12.598  0.00  0.00    +0.000 NA
ATOM      9  C   UNK     1      46.472   8.285  13.115  0.00  0.00    +0.000 A 
ATOM     10  N   UNK     1      47.093   7.074  13.271  0.00  0.00    +0.000 N 
BRANCH   2   1
ATOM      1  N   UNK     1      42.847   6.598  11.458  0.00  0.00    +0.000 N 
ATOM     27  H   UNK     1      42.418   6.047  10.727  0.00  0.00    +0.000 HD
ATOM     28  H   UNK     1      42.251   6.982  12.183  0.00  0.00    +0.000 HD
ENDBRANCH   2   1
ENDBRANCH  11  10
BRANCH  25  26
ATOM     26  O   UNK     1      49.958   8.669  13.196  0.00  0.00    +0.000 OA
ATOM     33  H   UNK     1      49.469   9.458  12.880  0.00  0.00    +0.000 HD
ENDBRANCH  25  26
BRANCH  23  24
ATOM     24  O   UNK     1      51.237   6.993  14.755  0.00  0.00    +0.000 OA
ATOM     32  H   UNK     1      51.956   6.976  15.415  0.00  0.00    +0.000 HD
ENDBRANCH  23  24
BRANCH  13  14
ATOM     14  C   UNK     1      48.406   7.010  17.217  0.00  0.00    +0.000 C 
BRANCH  14  15
ATOM     15  S   UNK     1      49.110   6.276  18.732  0.00  0.00    +0.000 S 
BRANCH  15  16
ATOM     16  C   UNK     1      49.763   4.720  18.056  0.00  0.00    +0.000 C 
BRANCH  16  17
ATOM     17  C   UNK     1      48.780   3.574  18.321  0.00  0.00    +0.000 C 
BRANCH  17  18
ATOM     18  C   UNK     1      47.694   3.383  17.252  0.00  0.00    +0.000 C 
BRANCH  18  19
ATOM     19  N   UNK     1      46.570   2.617  17.843  0.00  0.00    +0.000 NA
ATOM     29  H   UNK     1      46.882   1.652  17.975  0.00  0.00    +0.000 HD
ATOM     30  H   UNK     1      45.827   2.543  17.148  0.00  0.00    +0.000 HD
ENDBRANCH  18  19
BRANCH  18  20
ATOM     20  C   UNK     1      48.252   2.627  16.030  0.00  0.00    +0.000 C 
ATOM     21  O   UNK     1      49.142   1.793  16.087  0.00  0.00    +0.000 OA
BRANCH  20  22
ATOM     22  O   UNK     1      47.675   2.988  14.861  0.00  0.00    +0.000 OA
ATOM     31  H   UNK     1      48.119   2.614  14.069  0.00  0.00    +0.000 HD
ENDBRANCH  20  22
ENDBRANCH  18  20
ENDBRANCH  17  18
ENDBRANCH  16  17
ENDBRANCH  15  16
ENDBRANCH  14  15
ENDBRANCH  13  14
TORSDOF 12
ENDMDL
MODEL 8
REMARK VINA RESULT:    -6.084      2.960      7.833
REMARK INTER + INTRA:         -10.756
REMARK INTER:                 -10.027
REMARK INTRA:                  -0.729
REMARK UNBOUND:                -1.293
REMARK  Name = 
REMARK  12 active torsions:
REMARK  status: ('A' for Active; 'I' for Inactive)
REMARK    1  A    between atoms: N_1  and  C_2
REMARK    2  A    between atoms: N_10  and  C_11
REMARK    3  A    between atoms: C_13  and  C_14
REMARK    4  A    between atoms: C_14  and  S_15
REMARK    5  A    between atoms: S_15  and  C_16
REMARK    6  A    between atoms: C_16  and  C_17
REMARK    7  A    between atoms: C_17  and  C_18
REMARK    8  A    between atoms: C_18  and  N_19
REMARK    9  A    between atoms: C_18  and  C_20
REMARK   10  A    between atoms: C_20  and  O_22
REMARK   11  A    between atoms: C_23  and  O_24
REMARK   12  A    between atoms: C_25  and  O_26
REMARK                            x       y       z     vdW  Elec       q    Type
REMARK                         _______ _______ _______ _____ _____    ______ ____
ROOT
ATOM     11  C   UNK     1      46.692   5.835  13.957  0.00  0.00    +0.000 C 
ATOM     12  O   UNK     1      45.421   5.265  13.574  0.00  0.00    +0.000 OA
ATOM     13  C   UNK     1      45.231   5.411  12.148  0.00  0.00    +0.000 C 
ATOM     23  C   UNK     1      46.372   6.295  11.657  0.00  0.00    +0.000 C 
ATOM     25  C   UNK     1      47.483   6.041  12.666  0.00  0.00    +0.000 C 
ENDROOT
BRANCH  11  10
ATOM      2  C   UNK     1      49.461   4.318  17.626  0.00  0.00    +0.000 A 
ATOM      3  N   UNK     1      49.917   5.553  17.941  0.00  0.00    +0.000 NA
ATOM      4  C   UNK     1      49.498   6.600  17.197  0.00  0.00    +0.000 A 
ATOM      5  N   UNK     1      48.641   6.601  16.155  0.00  0.00    +0.000 NA
ATOM      6  C   UNK     1      48.206   5.358  15.894  0.00  0.00    +0.000 A 
ATOM      7  C   UNK     1      48.549   4.193  16.563  0.00  0.00    +0.000 A 
ATOM      8  N   UNK     1      47.886   3.107  16.028  0.00  0.00    +0.000 NA
ATOM      9  C   UNK     1      47.155   3.609  15.053  0.00  0.00    +0.000 A 
ATOM     10  N   UNK     1      47.331   4.960  14.918  0.00  0.00    +0.000 N 
BRANCH   2   1
ATOM      1  N   UNK     1      49.911   3.237  18.370  0.00  0.00    +0.000 N 
ATOM     27  H   UNK     1      50.796   2.874  18.043  0.00  0.00    +0.000 HD
ATOM     28  H   UNK     1      49.776   3.343  19.369  0.00  0.00    +0.000 HD
ENDBRANCH   2   1
ENDBRANCH  11  10
BRANCH  25  26
ATOM     26  O   UNK     1      48.382   7.145  12.710  0.00  0.00    +0.000 OA
ATOM     33  H   UNK     1      47.950   7.876  12.220  0.00  0.00    +0.000 HD
ENDBRANCH  25  26
BRANCH  23  24
ATOM     24  O   UNK     1      46.014   7.689  11.724  0.00  0.00    +0.000 OA
ATOM     32  H   UNK     1      45.118   7.776  12.103  0.00  0.00    +0.000 HD
ENDBRANCH  23  24
BRANCH  13  14
ATOM     14  C   UNK     1      45.202   4.036  11.467  0.00  0.00    +0.000 C 
BRANCH  14  15
ATOM     15  S   UNK     1      44.532   4.240   9.781  0.00  0.00    +0.000 S 
BRANCH  15  16
ATOM     16  C   UNK     1      44.850   2.580   9.111  0.00  0.00    +0.000 C 
BRANCH  16  17
ATOM     17  C   UNK     1      45.297   2.675   7.649  0.00  0.00    +0.000 C 
BRANCH  17  18
ATOM     18  C   UNK     1      46.803   2.889   7.437  0.00  0.00    +0.000 C 
BRANCH  18  19
ATOM     19  N   UNK     1      47.000   4.032   6.514  0.00  0.00    +0.000 NA
ATOM     29  H   UNK     1      47.537   4.748   7.009  0.00  0.00    +0.000 HD
ATOM     30  H   UNK     1      46.095   4.474   6.347  0.00  0.00    +0.000 HD
ENDBRANCH  18  19
BRANCH  18  20
ATOM     20  C   UNK     1      47.459   1.626   6.847  0.00  0.00    +0.000 C 
ATOM     21  O   UNK     1      47.068   0.488   7.054  0.00  0.00    +0.000 OA
BRANCH  20  22
ATOM     22  O   UNK     1      48.543   1.887   6.079  0.00  0.00    +0.000 OA
ATOM     31  H   UNK     1      48.417   2.636   5.458  0.00  0.00    +0.000 HD
ENDBRANCH  20  22
ENDBRANCH  18  20
ENDBRANCH  17  18
ENDBRANCH  16  17
ENDBRANCH  15  16
ENDBRANCH  14  15
ENDBRANCH  13  14
TORSDOF 12
ENDMDL
MODEL 9
REMARK VINA RESULT:    -6.073      3.476      7.667
REMARK INTER + INTRA:         -10.738
REMARK INTER:                  -9.720
REMARK INTRA:                  -1.018
REMARK UNBOUND:                -1.293
REMARK  Name = 
REMARK  12 active torsions:
REMARK  status: ('A' for Active; 'I' for Inactive)
REMARK    1  A    between atoms: N_1  and  C_2
REMARK    2  A    between atoms: N_10  and  C_11
REMARK    3  A    between atoms: C_13  and  C_14
REMARK    4  A    between atoms: C_14  and  S_15
REMARK    5  A    between atoms: S_15  and  C_16
REMARK    6  A    between atoms: C_16  and  C_17
REMARK    7  A    between atoms: C_17  and  C_18
REMARK    8  A    between atoms: C_18  and  N_19
REMARK    9  A    between atoms: C_18  and  C_20
REMARK   10  A    between atoms: C_20  and  O_22
REMARK   11  A    between atoms: C_23  and  O_24
REMARK   12  A    between atoms: C_25  and  O_26
REMARK                            x       y       z     vdW  Elec       q    Type
REMARK                         _______ _______ _______ _____ _____    ______ ____
ROOT
ATOM     11  C   UNK     1      47.899   6.878  14.035  0.00  0.00    +0.000 C 
ATOM     12  O   UNK     1      46.581   7.167  13.517  0.00  0.00    +0.000 OA
ATOM     13  C   UNK     1      46.660   7.415  12.094  0.00  0.00    +0.000 C 
ATOM     23  C   UNK     1      48.146   7.468  11.755  0.00  0.00    +0.000 C 
ATOM     25  C   UNK     1      48.789   6.597  12.825  0.00  0.00    +0.000 C 
ENDROOT
BRANCH  11  10
ATOM      2  C   UNK     1      48.479   4.237  18.049  0.00  0.00    +0.000 A 
ATOM      3  N   UNK     1      49.205   5.176  18.699  0.00  0.00    +0.000 NA
ATOM      4  C   UNK     1      49.476   6.334  18.057  0.00  0.00    +0.000 A 
ATOM      5  N   UNK     1      49.096   6.718  16.820  0.00  0.00    +0.000 NA
ATOM      6  C   UNK     1      48.366   5.760  16.227  0.00  0.00    +0.000 A 
ATOM      7  C   UNK     1      48.014   4.527  16.755  0.00  0.00    +0.000 A 
ATOM      8  N   UNK     1      47.238   3.815  15.862  0.00  0.00    +0.000 NA
ATOM      9  C   UNK     1      47.124   4.605  14.814  0.00  0.00    +0.000 A 
ATOM     10  N   UNK     1      47.805   5.782  14.977  0.00  0.00    +0.000 N 
BRANCH   2   1
ATOM      1  N   UNK     1      48.223   3.035  18.695  0.00  0.00    +0.000 N 
ATOM     27  H   UNK     1      47.274   2.964  19.034  0.00  0.00    +0.000 HD
ATOM     28  H   UNK     1      48.629   2.229  18.233  0.00  0.00    +0.000 HD
ENDBRANCH   2   1
ENDBRANCH  11  10
BRANCH  25  26
ATOM     26  O   UNK     1      50.153   6.963  13.015  0.00  0.00    +0.000 OA
ATOM     33  H   UNK     1      50.688   6.174  12.784  0.00  0.00    +0.000 HD
ENDBRANCH  25  26
BRANCH  23  24
ATOM     24  O   UNK     1      48.662   8.806  11.894  0.00  0.00    +0.000 OA
ATOM     32  H   UNK     1      48.230   9.243  12.652  0.00  0.00    +0.000 HD
ENDBRANCH  23  24
BRANCH  13  14
ATOM     14  C   UNK     1      45.906   6.328  11.318  0.00  0.00    +0.000 C 
BRANCH  14  15
ATOM     15  S   UNK     1      44.118   6.536  11.624  0.00  0.00    +0.000 S 
BRANCH  15  16
ATOM     16  C   UNK     1      43.862   5.254  12.887  0.00  0.00    +0.000 C 
BRANCH  16  17
ATOM     17  C   UNK     1      44.331   3.893  12.363  0.00  0.00    +0.000 C 
BRANCH  17  18
ATOM     18  C   UNK     1      43.466   3.286  11.249  0.00  0.00    +0.000 C 
BRANCH  18  19
ATOM     19  N   UNK     1      43.020   1.936  11.670  0.00  0.00    +0.000 NA
ATOM     29  H   UNK     1      42.468   1.536  10.908  0.00  0.00    +0.000 HD
ATOM     30  H   UNK     1      42.351   2.038  12.433  0.00  0.00    +0.000 HD
ENDBRANCH  18  19
BRANCH  18  20
ATOM     20  C   UNK     1      44.259   3.184   9.932  0.00  0.00    +0.000 C 
ATOM     21  O   UNK     1      44.241   4.030   9.052  0.00  0.00    +0.000 OA
BRANCH  20  22
ATOM     22  O   UNK     1      44.978   2.042   9.819  0.00  0.00    +0.000 OA
ATOM     31  H   UNK     1      45.199   1.628  10.680  0.00  0.00    +0.000 HD
ENDBRANCH  20  22
ENDBRANCH  18  20
ENDBRANCH  17  18
ENDBRANCH  16  17
ENDBRANCH  15  16
ENDBRANCH  14  15
ENDBRANCH  13  14
TORSDOF 12
ENDMDL
