MODEL 1
REMARK VINA RESULT:    -7.086      0.000      0.000
REMARK INTER + INTRA:         -10.302
REMARK INTER:                  -9.572
REMARK INTRA:                  -0.731
REMARK UNBOUND:                -0.731
REMARK  Name = 
REMARK  7 active torsions:
REMARK  status: ('A' for Active; 'I' for Inactive)
REMARK    1  A    between atoms: C_1  and  O_2
REMARK    2  A    between atoms: O_2  and  C_3
REMARK    3  A    between atoms: C_10  and  C_11
REMARK    4  A    between atoms: N_13  and  C_14
REMARK    5  A    between atoms: C_14  and  C_15
REMARK    6  A    between atoms: C_18  and  C_19
REMARK    7  A    between atoms: C_19  and  N_20
REMARK                            x       y       z     vdW  Elec       q    Type
REMARK                         _______ _______ _______ _____ _____    ______ ____
ROOT
ATOM     11  C   UNL     1      46.873   4.199  14.531  0.00  0.00    +0.000 C 
ATOM     12  O   UNL     1      47.296   3.149  14.042  0.00  0.00    +0.000 OA
ATOM     13  N   UNL     1      46.808   4.382  15.884  0.00  0.00    +0.000 N 
ATOM     29  H   UNL     1      46.459   5.255  16.266  0.00  0.00    +0.000 HD
ENDROOT
BRANCH  11  10
ATOM      3  C   UNL     1      44.048   4.811  12.642  0.00  0.00    +0.000 A 
ATOM      4  N   UNL     1      43.092   5.298  11.824  0.00  0.00    +0.000 NA
ATOM      5  C   UNL     1      43.285   6.489  11.261  0.00  0.00    +0.000 A 
ATOM      6  N   UNL     1      44.347   7.278  11.412  0.00  0.00    +0.000 NA
ATOM      7  C   UNL     1      45.280   6.755  12.222  0.00  0.00    +0.000 A 
ATOM      8  S   UNL     1      46.697   7.636  12.528  0.00  0.00    +0.000 S 
ATOM      9  C   UNL     1      47.291   6.420  13.551  0.00  0.00    +0.000 A 
ATOM     10  C   UNL     1      46.446   5.324  13.678  0.00  0.00    +0.000 A 
ATOM     28  C   UNL     1      45.233   5.528  12.882  0.00  0.00    +0.000 A 
BRANCH   3   2
ATOM      1  C   UNL     1      43.555   2.569  12.240  0.00  0.00    +0.000 C 
ATOM      2  O   UNL     1      43.817   3.576  13.219  0.00  0.00    +0.000 OA
ENDBRANCH   3   2
ENDBRANCH  11  10
BRANCH  13  14
ATOM     14  C   UNL     1      47.181   3.354  16.829  0.00  0.00    +0.000 C 
BRANCH  14  15
ATOM     15  C   UNL     1      48.672   3.313  17.086  0.00  0.00    +0.000 A 
ATOM     16  C   UNL     1      49.395   2.116  16.973  0.00  0.00    +0.000 A 
ATOM     17  C   UNL     1      50.790   2.071  17.193  0.00  0.00    +0.000 A 
ATOM     18  C   UNL     1      51.508   3.216  17.573  0.00  0.00    +0.000 A 
ATOM     26  C   UNL     1      50.777   4.410  17.691  0.00  0.00    +0.000 A 
ATOM     27  C   UNL     1      49.384   4.458  17.461  0.00  0.00    +0.000 A 
BRANCH  18  19
ATOM     19  C   UNL     1      52.974   3.123  18.033  0.00  0.00    +0.000 C 
BRANCH  19  20
ATOM     20  N   UNL     1      53.292   2.789  19.442  0.00  0.00    +0.000 NA
ATOM     21  C   UNL     1      53.244   4.011  20.310  0.00  0.00    +0.000 C 
ATOM     22  C   UNL     1      54.382   5.023  20.045  0.00  0.00    +0.000 C 
ATOM     23  O   UNL     1      55.663   4.399  20.194  0.00  0.00    +0.000 OA
ATOM     24  C   UNL     1      55.770   3.230  19.371  0.00  0.00    +0.000 C 
ATOM     25  C   UNL     1      54.640   2.222  19.647  0.00  0.00    +0.000 C 
ENDBRANCH  19  20
ENDBRANCH  18  19
ENDBRANCH  14  15
ENDBRANCH  13  14
TORSDOF 6
ENDMDL
MODEL 2
REMARK VINA RESULT:    -6.727      2.922      9.352
REMARK INTER + INTRA:          -9.817
REMARK INTER:                  -8.812
REMARK INTRA:                  -1.005
REMARK UNBOUND:                -0.731
REMARK  Name = 
REMARK  7 active torsions:
REMARK  status: ('A' for Active; 'I' for Inactive)
REMARK    1  A    between atoms: C_1  and  O_2
REMARK    2  A    between atoms: O_2  and  C_3
REMARK    3  A    between atoms: C_10  and  C_11
REMARK    4  A    between atoms: N_13  and  C_14
REMARK    5  A    between atoms: C_14  and  C_15
REMARK    6  A    between atoms: C_18  and  C_19
REMARK    7  A    between atoms: C_19  and  N_20
REMARK                            x       y       z     vdW  Elec       q    Type
REMARK                         _______ _______ _______ _____ _____    ______ ____
ROOT
ATOM     11  C   UNL     1      50.156   6.011  17.497  0.00  0.00    +0.000 C 
ATOM     12  O   UNL     1      49.265   6.343  18.282  0.00  0.00    +0.000 OA
ATOM     13  N   UNL     1      50.258   6.568  16.254  0.00  0.00    +0.000 N 
ATOM     29  H   UNL     1      51.000   6.281  15.623  0.00  0.00    +0.000 HD
ENDROOT
BRANCH  11  10
ATOM      3  C   UNL     1      50.399   2.588  17.109  0.00  0.00    +0.000 A 
ATOM      4  N   UNL     1      50.747   1.284  17.113  0.00  0.00    +0.000 NA
ATOM      5  C   UNL     1      51.906   0.939  17.673  0.00  0.00    +0.000 A 
ATOM      6  N   UNL     1      52.785   1.754  18.249  0.00  0.00    +0.000 NA
ATOM      7  C   UNL     1      52.400   3.040  18.234  0.00  0.00    +0.000 A 
ATOM      8  S   UNL     1      53.412   4.214  18.923  0.00  0.00    +0.000 S 
ATOM      9  C   UNL     1      52.325   5.455  18.523  0.00  0.00    +0.000 A 
ATOM     10  C   UNL     1      51.178   5.015  17.875  0.00  0.00    +0.000 A 
ATOM     28  C   UNL     1      51.225   3.562  17.697  0.00  0.00    +0.000 A 
BRANCH   3   2
ATOM      1  C   UNL     1      48.116   2.904  17.450  0.00  0.00    +0.000 C 
ATOM      2  O   UNL     1      49.196   2.918  16.514  0.00  0.00    +0.000 OA
ENDBRANCH   3   2
ENDBRANCH  11  10
BRANCH  13  14
ATOM     14  C   UNL     1      49.313   7.541  15.755  0.00  0.00    +0.000 C 
BRANCH  14  15
ATOM     15  C   UNL     1      48.398   6.971  14.692  0.00  0.00    +0.000 A 
ATOM     16  C   UNL     1      47.905   5.660  14.786  0.00  0.00    +0.000 A 
ATOM     17  C   UNL     1      47.036   5.126  13.810  0.00  0.00    +0.000 A 
ATOM     18  C   UNL     1      46.657   5.870  12.681  0.00  0.00    +0.000 A 
ATOM     26  C   UNL     1      47.158   7.180  12.590  0.00  0.00    +0.000 A 
ATOM     27  C   UNL     1      48.019   7.718  13.571  0.00  0.00    +0.000 A 
BRANCH  18  19
ATOM     19  C   UNL     1      45.901   5.216  11.510  0.00  0.00    +0.000 C 
BRANCH  19  20
ATOM     20  N   UNL     1      44.456   5.484  11.315  0.00  0.00    +0.000 NA
ATOM     21  C   UNL     1      43.661   5.047  12.510  0.00  0.00    +0.000 C 
ATOM     22  C   UNL     1      43.594   3.515  12.702  0.00  0.00    +0.000 C 
ATOM     23  O   UNL     1      43.061   2.879  11.535  0.00  0.00    +0.000 OA
ATOM     24  C   UNL     1      43.797   3.249  10.361  0.00  0.00    +0.000 C 
ATOM     25  C   UNL     1      43.851   4.775  10.169  0.00  0.00    +0.000 C 
ENDBRANCH  19  20
ENDBRANCH  18  19
ENDBRANCH  14  15
ENDBRANCH  13  14
TORSDOF 6
ENDMDL
MODEL 3
REMARK VINA RESULT:    -6.620      4.417      9.492
REMARK INTER + INTRA:          -9.672
REMARK INTER:                  -9.040
REMARK INTRA:                  -0.632
REMARK UNBOUND:                -0.731
REMARK  Name = 
REMARK  7 active torsions:
REMARK  status: ('A' for Active; 'I' for Inactive)
REMARK    1  A    between atoms: C_1  and  O_2
REMARK    2  A    between atoms: O_2  and  C_3
REMARK    3  A    between atoms: C_10  and  C_11
REMARK    4  A    between atoms: N_13  and  C_14
REMARK    5  A    between atoms: C_14  and  C_15
REMARK    6  A    between atoms: C_18  and  C_19
REMARK    7  A    between atoms: C_19  and  N_20
REMARK                            x       y       z     vdW  Elec       q    Type
REMARK                         _______ _______ _______ _____ _____    ______ ____
ROOT
ATOM     11  C   UNL     1      46.311   4.635  14.060  0.00  0.00    +0.000 C 
ATOM     12  O   UNL     1      46.304   3.482  13.624  0.00  0.00    +0.000 OA
ATOM     13  N   UNL     1      45.336   5.532  13.726  0.00  0.00    +0.000 N 
ATOM     29  H   UNL     1      45.359   6.476  14.098  0.00  0.00    +0.000 HD
ENDROOT
BRANCH  11  10
ATOM      3  C   UNL     1      48.604   7.216  13.973  0.00  0.00    +0.000 A 
ATOM      4  N   UNL     1      49.593   8.106  14.197  0.00  0.00    +0.000 NA
ATOM      5  C   UNL     1      50.287   8.010  15.330  0.00  0.00    +0.000 A 
ATOM      6  N   UNL     1      50.116   7.109  16.294  0.00  0.00    +0.000 NA
ATOM      7  C   UNL     1      49.132   6.236  16.031  0.00  0.00    +0.000 A 
ATOM      8  S   UNL     1      48.777   5.023  17.162  0.00  0.00    +0.000 S 
ATOM      9  C   UNL     1      47.530   4.411  16.188  0.00  0.00    +0.000 A 
ATOM     10  C   UNL     1      47.358   5.095  14.992  0.00  0.00    +0.000 A 
ATOM     28  C   UNL     1      48.320   6.197  14.899  0.00  0.00    +0.000 A 
BRANCH   3   2
ATOM      1  C   UNL     1      48.752   7.595  11.679  0.00  0.00    +0.000 C 
ATOM      2  O   UNL     1      47.894   7.344  12.794  0.00  0.00    +0.000 OA
ENDBRANCH   3   2
ENDBRANCH  11  10
BRANCH  13  14
ATOM     14  C   UNL     1      44.263   5.213  12.811  0.00  0.00    +0.000 C 
BRANCH  14  15
ATOM     15  C   UNL     1      44.755   4.974  11.400  0.00  0.00    +0.000 A 
ATOM     16  C   UNL     1      44.375   3.829  10.682  0.00  0.00    +0.000 A 
ATOM     17  C   UNL     1      44.813   3.607   9.358  0.00  0.00    +0.000 A 
ATOM     18  C   UNL     1      45.680   4.503   8.714  0.00  0.00    +0.000 A 
ATOM     26  C   UNL     1      46.063   5.645   9.440  0.00  0.00    +0.000 A 
ATOM     27  C   UNL     1      45.617   5.873  10.761  0.00  0.00    +0.000 A 
BRANCH  18  19
ATOM     19  C   UNL     1      46.337   4.151   7.368  0.00  0.00    +0.000 C 
BRANCH  19  20
ATOM     20  N   UNL     1      45.921   2.932   6.633  0.00  0.00    +0.000 NA
ATOM     21  C   UNL     1      46.410   1.693   7.323  0.00  0.00    +0.000 C 
ATOM     22  C   UNL     1      47.942   1.496   7.262  0.00  0.00    +0.000 C 
ATOM     23  O   UNL     1      48.399   1.479   5.905  0.00  0.00    +0.000 OA
ATOM     24  C   UNL     1      47.973   2.653   5.199  0.00  0.00    +0.000 C 
ATOM     25  C   UNL     1      46.446   2.839   5.255  0.00  0.00    +0.000 C 
ENDBRANCH  19  20
ENDBRANCH  18  19
ENDBRANCH  14  15
ENDBRANCH  13  14
TORSDOF 6
ENDMDL
MODEL 4
REMARK VINA RESULT:    -6.346      2.236      3.614
REMARK INTER + INTRA:          -9.303
REMARK INTER:                  -8.187
REMARK INTRA:                  -1.116
REMARK UNBOUND:                -0.731
REMARK  Name = 
REMARK  7 active torsions:
REMARK  status: ('A' for Active; 'I' for Inactive)
REMARK    1  A    between atoms: C_1  and  O_2
REMARK    2  A    between atoms: O_2  and  C_3
REMARK    3  A    between atoms: C_10  and  C_11
REMARK    4  A    between atoms: N_13  and  C_14
REMARK    5  A    between atoms: C_14  and  C_15
REMARK    6  A    between atoms: C_18  and  C_19
REMARK    7  A    between atoms: C_19  and  N_20
REMARK                            x       y       z     vdW  Elec       q    Type
REMARK                         _______ _______ _______ _____ _____    ______ ____
ROOT
ATOM     11  C   UNL     1      47.113   4.309  14.466  0.00  0.00    +0.000 C 
ATOM     12  O   UNL     1      47.108   3.124  14.128  0.00  0.00    +0.000 OA
ATOM     13  N   UNL     1      47.254   4.680  15.773  0.00  0.00    +0.000 N 
ATOM     29  H   UNL     1      47.256   5.662  16.030  0.00  0.00    +0.000 HD
ENDROOT
BRANCH  11  10
ATOM      3  C   UNL     1      49.049   7.069  13.719  0.00  0.00    +0.000 A 
ATOM      4  N   UNL     1      49.588   8.205  13.230  0.00  0.00    +0.000 NA
ATOM      5  C   UNL     1      48.966   8.822  12.227  0.00  0.00    +0.000 A 
ATOM      6  N   UNL     1      47.837   8.439  11.636  0.00  0.00    +0.000 NA
ATOM      7  C   UNL     1      47.326   7.312  12.155  0.00  0.00    +0.000 A 
ATOM      8  S   UNL     1      45.890   6.681  11.510  0.00  0.00    +0.000 S 
ATOM      9  C   UNL     1      45.920   5.376  12.594  0.00  0.00    +0.000 A 
ATOM     10  C   UNL     1      46.998   5.390  13.468  0.00  0.00    +0.000 A 
ATOM     28  C   UNL     1      47.848   6.553  13.201  0.00  0.00    +0.000 A 
BRANCH   3   2
ATOM      1  C   UNL     1      50.291   7.387  15.665  0.00  0.00    +0.000 C 
ATOM      2  O   UNL     1      49.721   6.445  14.753  0.00  0.00    +0.000 OA
ENDBRANCH   3   2
ENDBRANCH  11  10
BRANCH  13  14
ATOM     14  C   UNL     1      47.358   3.720  16.849  0.00  0.00    +0.000 C 
BRANCH  14  15
ATOM     15  C   UNL     1      48.794   3.413  17.217  0.00  0.00    +0.000 A 
ATOM     16  C   UNL     1      49.352   2.149  16.969  0.00  0.00    +0.000 A 
ATOM     17  C   UNL     1      50.696   1.859  17.290  0.00  0.00    +0.000 A 
ATOM     18  C   UNL     1      51.523   2.810  17.909  0.00  0.00    +0.000 A 
ATOM     26  C   UNL     1      50.957   4.071  18.160  0.00  0.00    +0.000 A 
ATOM     27  C   UNL     1      49.616   4.366  17.829  0.00  0.00    +0.000 A 
BRANCH  18  19
ATOM     19  C   UNL     1      52.906   2.426  18.465  0.00  0.00    +0.000 C 
BRANCH  19  20
ATOM     20  N   UNL     1      54.028   2.142  17.537  0.00  0.00    +0.000 NA
ATOM     21  C   UNL     1      54.082   0.684  17.187  0.00  0.00    +0.000 C 
ATOM     22  C   UNL     1      54.503  -0.235  18.356  0.00  0.00    +0.000 C 
ATOM     23  O   UNL     1      55.775   0.161  18.882  0.00  0.00    +0.000 OA
ATOM     24  C   UNL     1      55.775   1.547  19.251  0.00  0.00    +0.000 C 
ATOM     25  C   UNL     1      55.365   2.458  18.080  0.00  0.00    +0.000 C 
ENDBRANCH  19  20
ENDBRANCH  18  19
ENDBRANCH  14  15
ENDBRANCH  13  14
TORSDOF 6
ENDMDL
MODEL 5
REMARK VINA RESULT:    -6.294      1.871      3.195
REMARK INTER + INTRA:          -9.232
REMARK INTER:                  -8.098
REMARK INTRA:                  -1.134
REMARK UNBOUND:                -0.731
REMARK  Name = 
REMARK  7 active torsions:
REMARK  status: ('A' for Active; 'I' for Inactive)
REMARK    1  A    between atoms: C_1  and  O_2
REMARK    2  A    between atoms: O_2  and  C_3
REMARK    3  A    between atoms: C_10  and  C_11
REMARK    4  A    between atoms: N_13  and  C_14
REMARK    5  A    between atoms: C_14  and  C_15
REMARK    6  A    between atoms: C_18  and  C_19
REMARK    7  A    between atoms: C_19  and  N_20
REMARK                            x       y       z     vdW  Elec       q    Type
REMARK                         _______ _______ _______ _____ _____    ______ ____
ROOT
ATOM     11  C   UNL     1      47.042   4.057  14.774  0.00  0.00    +0.000 C 
ATOM     12  O   UNL     1      47.363   2.949  14.339  0.00  0.00    +0.000 OA
ATOM     13  N   UNL     1      47.037   4.325  16.113  0.00  0.00    +0.000 N 
ATOM     29  H   UNL     1      46.770   5.245  16.451  0.00  0.00    +0.000 HD
ENDROOT
BRANCH  11  10
ATOM      3  C   UNL     1      48.563   7.038  13.925  0.00  0.00    +0.000 A 
ATOM      4  N   UNL     1      48.909   8.246  13.432  0.00  0.00    +0.000 NA
ATOM      5  C   UNL     1      48.090   8.834  12.562  0.00  0.00    +0.000 A 
ATOM      6  N   UNL     1      46.933   8.357  12.111  0.00  0.00    +0.000 NA
ATOM      7  C   UNL     1      46.618   7.160  12.630  0.00  0.00    +0.000 A 
ATOM      8  S   UNL     1      45.175   6.406  12.156  0.00  0.00    +0.000 S 
ATOM      9  C   UNL     1      45.491   5.067  13.149  0.00  0.00    +0.000 A 
ATOM     10  C   UNL     1      46.677   5.160  13.865  0.00  0.00    +0.000 A 
ATOM     28  C   UNL     1      47.358   6.418  13.549  0.00  0.00    +0.000 A 
BRANCH   3   2
ATOM      1  C   UNL     1      49.523   7.179  16.043  0.00  0.00    +0.000 C 
ATOM      2  O   UNL     1      49.436   6.447  14.819  0.00  0.00    +0.000 OA
ENDBRANCH   3   2
ENDBRANCH  11  10
BRANCH  13  14
ATOM     14  C   UNL     1      47.357   3.328  17.110  0.00  0.00    +0.000 C 
BRANCH  14  15
ATOM     15  C   UNL     1      48.835   3.286  17.435  0.00  0.00    +0.000 A 
ATOM     16  C   UNL     1      49.656   2.257  16.948  0.00  0.00    +0.000 A 
ATOM     17  C   UNL     1      51.040   2.219  17.230  0.00  0.00    +0.000 A 
ATOM     18  C   UNL     1      51.647   3.188  18.044  0.00  0.00    +0.000 A 
ATOM     26  C   UNL     1      50.818   4.212  18.534  0.00  0.00    +0.000 A 
ATOM     27  C   UNL     1      49.437   4.257  18.244  0.00  0.00    +0.000 A 
BRANCH  18  19
ATOM     19  C   UNL     1      53.096   3.023  18.538  0.00  0.00    +0.000 C 
BRANCH  19  20
ATOM     20  N   UNL     1      54.228   3.456  17.683  0.00  0.00    +0.000 NA
ATOM     21  C   UNL     1      55.537   3.290  18.396  0.00  0.00    +0.000 C 
ATOM     22  C   UNL     1      55.744   4.267  19.576  0.00  0.00    +0.000 C 
ATOM     23  O   UNL     1      55.625   5.626  19.139  0.00  0.00    +0.000 OA
ATOM     24  C   UNL     1      54.380   5.846  18.463  0.00  0.00    +0.000 C 
ATOM     25  C   UNL     1      54.183   4.877  17.282  0.00  0.00    +0.000 C 
ENDBRANCH  19  20
ENDBRANCH  18  19
ENDBRANCH  14  15
ENDBRANCH  13  14
TORSDOF 6
ENDMDL
MODEL 6
REMARK VINA RESULT:    -6.191      3.919      9.339
REMARK INTER + INTRA:          -9.093
REMARK INTER:                  -8.751
REMARK INTRA:                  -0.342
REMARK UNBOUND:                -0.731
REMARK  Name = 
REMARK  7 active torsions:
REMARK  status: ('A' for Active; 'I' for Inactive)
REMARK    1  A    between atoms: C_1  and  O_2
REMARK    2  A    between atoms: O_2  and  C_3
REMARK    3  A    between atoms: C_10  and  C_11
REMARK    4  A    between atoms: N_13  and  C_14
REMARK    5  A    between atoms: C_14  and  C_15
REMARK    6  A    between atoms: C_18  and  C_19
REMARK    7  A    between atoms: C_19  and  N_20
REMARK                            x       y       z     vdW  Elec       q    Type
REMARK                         _______ _______ _______ _____ _____    ______ ____
ROOT
ATOM     11  C   UNL     1      48.076   8.366  14.273  0.00  0.00    +0.000 C 
ATOM     12  O   UNL     1      48.699   8.117  13.238  0.00  0.00    +0.000 OA
ATOM     13  N   UNL     1      46.745   8.672  14.250  0.00  0.00    +0.000 N 
ATOM     29  H   UNL     1      46.250   8.872  15.114  0.00  0.00    +0.000 HD
ENDROOT
BRANCH  11  10
ATOM      3  C   UNL     1      48.632   5.833  16.553  0.00  0.00    +0.000 A 
ATOM      4  N   UNL     1      48.964   5.064  17.610  0.00  0.00    +0.000 NA
ATOM      5  C   UNL     1      49.603   5.632  18.632  0.00  0.00    +0.000 A 
ATOM      6  N   UNL     1      49.959   6.909  18.736  0.00  0.00    +0.000 NA
ATOM      7  C   UNL     1      49.603   7.644  17.672  0.00  0.00    +0.000 A 
ATOM      8  S   UNL     1      49.988   9.296  17.640  0.00  0.00    +0.000 S 
ATOM      9  C   UNL     1      49.281   9.481  16.109  0.00  0.00    +0.000 A 
ATOM     10  C   UNL     1      48.733   8.314  15.593  0.00  0.00    +0.000 A 
ATOM     28  C   UNL     1      48.931   7.207  16.532  0.00  0.00    +0.000 A 
BRANCH   3   2
ATOM      1  C   UNL     1      47.448   3.942  15.879  0.00  0.00    +0.000 C 
ATOM      2  O   UNL     1      47.978   5.216  15.503  0.00  0.00    +0.000 OA
ENDBRANCH   3   2
ENDBRANCH  11  10
BRANCH  13  14
ATOM     14  C   UNL     1      45.988   8.772  13.022  0.00  0.00    +0.000 C 
BRANCH  14  15
ATOM     15  C   UNL     1      45.716   7.421  12.396  0.00  0.00    +0.000 A 
ATOM     16  C   UNL     1      44.826   6.511  12.988  0.00  0.00    +0.000 A 
ATOM     17  C   UNL     1      44.551   5.257  12.401  0.00  0.00    +0.000 A 
ATOM     18  C   UNL     1      45.186   4.847  11.219  0.00  0.00    +0.000 A 
ATOM     26  C   UNL     1      46.082   5.759  10.633  0.00  0.00    +0.000 A 
ATOM     27  C   UNL     1      46.349   7.018  11.214  0.00  0.00    +0.000 A 
BRANCH  18  19
ATOM     19  C   UNL     1      45.064   3.401  10.705  0.00  0.00    +0.000 C 
BRANCH  19  20
ATOM     20  N   UNL     1      44.280   3.110   9.480  0.00  0.00    +0.000 NA
ATOM     21  C   UNL     1      44.554   1.722   8.982  0.00  0.00    +0.000 C 
ATOM     22  C   UNL     1      45.974   1.523   8.407  0.00  0.00    +0.000 C 
ATOM     23  O   UNL     1      46.229   2.453   7.347  0.00  0.00    +0.000 OA
ATOM     24  C   UNL     1      45.998   3.803   7.775  0.00  0.00    +0.000 C 
ATOM     25  C   UNL     1      44.579   3.997   8.338  0.00  0.00    +0.000 C 
ENDBRANCH  19  20
ENDBRANCH  18  19
ENDBRANCH  14  15
ENDBRANCH  13  14
TORSDOF 6
ENDMDL
MODEL 7
REMARK VINA RESULT:    -6.120      3.807      5.185
REMARK INTER + INTRA:          -8.998
REMARK INTER:                  -7.960
REMARK INTRA:                  -1.038
REMARK UNBOUND:                -0.731
REMARK  Name = 
REMARK  7 active torsions:
REMARK  status: ('A' for Active; 'I' for Inactive)
REMARK    1  A    between atoms: C_1  and  O_2
REMARK    2  A    between atoms: O_2  and  C_3
REMARK    3  A    between atoms: C_10  and  C_11
REMARK    4  A    between atoms: N_13  and  C_14
REMARK    5  A    between atoms: C_14  and  C_15
REMARK    6  A    between atoms: C_18  and  C_19
REMARK    7  A    between atoms: C_19  and  N_20
REMARK                            x       y       z     vdW  Elec       q    Type
REMARK                         _______ _______ _______ _____ _____    ______ ____
ROOT
ATOM     11  C   UNL     1      46.187   6.900  11.366  0.00  0.00    +0.000 C 
ATOM     12  O   UNL     1      45.495   7.840  11.762  0.00  0.00    +0.000 OA
ATOM     13  N   UNL     1      47.547   6.909  11.495  0.00  0.00    +0.000 N 
ATOM     29  H   UNL     1      48.099   6.124  11.163  0.00  0.00    +0.000 HD
ENDROOT
BRANCH  11  10
ATOM      3  C   UNL     1      44.434   4.218  12.654  0.00  0.00    +0.000 A 
ATOM      4  N   UNL     1      43.755   3.073  12.874  0.00  0.00    +0.000 NA
ATOM      5  C   UNL     1      43.468   2.295  11.832  0.00  0.00    +0.000 A 
ATOM      6  N   UNL     1      43.785   2.521  10.559  0.00  0.00    +0.000 NA
ATOM      7  C   UNL     1      44.468   3.663  10.381  0.00  0.00    +0.000 A 
ATOM      8  S   UNL     1      44.945   4.105   8.815  0.00  0.00    +0.000 S 
ATOM      9  C   UNL     1      45.668   5.530   9.385  0.00  0.00    +0.000 A 
ATOM     10  C   UNL     1      45.576   5.701  10.760  0.00  0.00    +0.000 A 
ATOM     28  C   UNL     1      44.850   4.578  11.360  0.00  0.00    +0.000 A 
BRANCH   3   2
ATOM      1  C   UNL     1      46.030   4.782  14.256  0.00  0.00    +0.000 C 
ATOM      2  O   UNL     1      44.711   5.010  13.752  0.00  0.00    +0.000 OA
ENDBRANCH   3   2
ENDBRANCH  11  10
BRANCH  13  14
ATOM     14  C   UNL     1      48.270   8.029  12.055  0.00  0.00    +0.000 C 
BRANCH  14  15
ATOM     15  C   UNL     1      48.475   7.900  13.549  0.00  0.00    +0.000 A 
ATOM     16  C   UNL     1      49.091   6.767  14.102  0.00  0.00    +0.000 A 
ATOM     17  C   UNL     1      49.304   6.646  15.493  0.00  0.00    +0.000 A 
ATOM     18  C   UNL     1      48.872   7.637  16.388  0.00  0.00    +0.000 A 
ATOM     26  C   UNL     1      48.250   8.767  15.829  0.00  0.00    +0.000 A 
ATOM     27  C   UNL     1      48.046   8.893  14.437  0.00  0.00    +0.000 A 
BRANCH  18  19
ATOM     19  C   UNL     1      48.896   7.405  17.910  0.00  0.00    +0.000 C 
BRANCH  19  20
ATOM     20  N   UNL     1      47.729   6.789  18.587  0.00  0.00    +0.000 NA
ATOM     21  C   UNL     1      47.866   6.871  20.078  0.00  0.00    +0.000 C 
ATOM     22  C   UNL     1      48.980   5.973  20.663  0.00  0.00    +0.000 C 
ATOM     23  O   UNL     1      48.779   4.604  20.292  0.00  0.00    +0.000 OA
ATOM     24  C   UNL     1      48.658   4.465  18.870  0.00  0.00    +0.000 C 
ATOM     25  C   UNL     1      47.540   5.353  18.294  0.00  0.00    +0.000 C 
ENDBRANCH  19  20
ENDBRANCH  18  19
ENDBRANCH  14  15
ENDBRANCH  13  14
TORSDOF 6
ENDMDL
MODEL 8
REMARK VINA RESULT:    -6.073      3.410      9.164
REMARK INTER + INTRA:          -8.934
REMARK INTER:                  -7.583
REMARK INTRA:                  -1.351
REMARK UNBOUND:                -0.731
REMARK  Name = 
REMARK  7 active torsions:
REMARK  status: ('A' for Active; 'I' for Inactive)
REMARK    1  A    between atoms: C_1  and  O_2
REMARK    2  A    between atoms: O_2  and  C_3
REMARK    3  A    between atoms: C_10  and  C_11
REMARK    4  A    between atoms: N_13  and  C_14
REMARK    5  A    between atoms: C_14  and  C_15
REMARK    6  A    between atoms: C_18  and  C_19
REMARK    7  A    between atoms: C_19  and  N_20
REMARK                            x       y       z     vdW  Elec       q    Type
REMARK                         _______ _______ _______ _____ _____    ______ ____
ROOT
ATOM     11  C   UNL     1      48.737   8.739  16.629  0.00  0.00    +0.000 C 
ATOM     12  O   UNL     1      47.869   9.576  16.886  0.00  0.00    +0.000 OA
ATOM     13  N   UNL     1      49.263   8.617  15.374  0.00  0.00    +0.000 N 
ATOM     29  H   UNL     1      49.979   7.922  15.184  0.00  0.00    +0.000 HD
ENDROOT
BRANCH  11  10
ATOM      3  C   UNL     1      49.181   5.322  16.847  0.00  0.00    +0.000 A 
ATOM      4  N   UNL     1      49.446   4.049  17.210  0.00  0.00    +0.000 NA
ATOM      5  C   UNL     1      49.972   3.830  18.414  0.00  0.00    +0.000 A 
ATOM      6  N   UNL     1      50.272   4.747  19.330  0.00  0.00    +0.000 NA
ATOM      7  C   UNL     1      49.985   5.997  18.938  0.00  0.00    +0.000 A 
ATOM      8  S   UNL     1      50.311   7.289  19.988  0.00  0.00    +0.000 S 
ATOM      9  C   UNL     1      49.736   8.417  18.858  0.00  0.00    +0.000 A 
ATOM     10  C   UNL     1      49.277   7.850  17.676  0.00  0.00    +0.000 A 
ATOM     28  C   UNL     1      49.431   6.394  17.722  0.00  0.00    +0.000 A 
BRANCH   3   2
ATOM      1  C   UNL     1      47.437   4.779  15.400  0.00  0.00    +0.000 C 
ATOM      2  O   UNL     1      48.644   5.521  15.589  0.00  0.00    +0.000 OA
ENDBRANCH   3   2
ENDBRANCH  11  10
BRANCH  13  14
ATOM     14  C   UNL     1      48.811   9.415  14.257  0.00  0.00    +0.000 C 
BRANCH  14  15
ATOM     15  C   UNL     1      47.770   8.705  13.418  0.00  0.00    +0.000 A 
ATOM     16  C   UNL     1      46.426   9.109  13.434  0.00  0.00    +0.000 A 
ATOM     17  C   UNL     1      45.452   8.466  12.640  0.00  0.00    +0.000 A 
ATOM     18  C   UNL     1      45.777   7.367  11.830  0.00  0.00    +0.000 A 
ATOM     26  C   UNL     1      47.123   6.962  11.824  0.00  0.00    +0.000 A 
ATOM     27  C   UNL     1      48.101   7.612  12.609  0.00  0.00    +0.000 A 
BRANCH  18  19
ATOM     19  C   UNL     1      44.684   6.526  11.147  0.00  0.00    +0.000 C 
BRANCH  19  20
ATOM     20  N   UNL     1      43.688   5.793  11.966  0.00  0.00    +0.000 NA
ATOM     21  C   UNL     1      44.358   5.017  13.062  0.00  0.00    +0.000 C 
ATOM     22  C   UNL     1      45.191   3.813  12.569  0.00  0.00    +0.000 C 
ATOM     23  O   UNL     1      44.384   2.917  11.796  0.00  0.00    +0.000 OA
ATOM     24  C   UNL     1      43.731   3.605  10.720  0.00  0.00    +0.000 C 
ATOM     25  C   UNL     1      42.894   4.797  11.218  0.00  0.00    +0.000 C 
ENDBRANCH  19  20
ENDBRANCH  18  19
ENDBRANCH  14  15
ENDBRANCH  13  14
TORSDOF 6
ENDMDL
MODEL 9
REMARK VINA RESULT:    -5.998      3.423      9.627
REMARK INTER + INTRA:          -8.833
REMARK INTER:                  -7.839
REMARK INTRA:                  -0.994
REMARK UNBOUND:                -0.731
REMARK  Name = 
REMARK  7 active torsions:
REMARK  status: ('A' for Active; 'I' for Inactive)
REMARK    1  A    between atoms: C_1  and  O_2
REMARK    2  A    between atoms: O_2  and  C_3
REMARK    3  A    between atoms: C_10  and  C_11
REMARK    4  A    between atoms: N_13  and  C_14
REMARK    5  A    between atoms: C_14  and  C_15
REMARK    6  A    between atoms: C_18  and  C_19
REMARK    7  A    between atoms: C_19  and  N_20
REMARK                            x       y       z     vdW  Elec       q    Type
REMARK                         _______ _______ _______ _____ _____    ______ ____
ROOT
ATOM     11  C   UNL     1      51.942   7.755  15.731  0.00  0.00    +0.000 C 
ATOM     12  O   UNL     1      51.521   8.736  16.348  0.00  0.00    +0.000 OA
ATOM     13  N   UNL     1      51.648   7.560  14.411  0.00  0.00    +0.000 N 
ATOM     29  H   UNL     1      52.006   6.746  13.921  0.00  0.00    +0.000 HD
ENDROOT
BRANCH  11  10
ATOM      3  C   UNL     1      51.342   4.740  17.304  0.00  0.00    +0.000 A 
ATOM      4  N   UNL     1      51.402   3.569  17.972  0.00  0.00    +0.000 NA
ATOM      5  C   UNL     1      52.593   3.127  18.371  0.00  0.00    +0.000 A 
ATOM      6  N   UNL     1      53.766   3.726  18.186  0.00  0.00    +0.000 NA
ATOM      7  C   UNL     1      53.666   4.891  17.529  0.00  0.00    +0.000 A 
ATOM      8  S   UNL     1      55.072   5.782  17.204  0.00  0.00    +0.000 S 
ATOM      9  C   UNL     1      54.182   6.990  16.411  0.00  0.00    +0.000 A 
ATOM     10  C   UNL     1      52.813   6.758  16.382  0.00  0.00    +0.000 A 
ATOM     28  C   UNL     1      52.502   5.492  17.050  0.00  0.00    +0.000 A 
BRANCH   3   2
ATOM      1  C   UNL     1      49.443   5.955  17.896  0.00  0.00    +0.000 C 
ATOM      2  O   UNL     1      50.094   5.170  16.894  0.00  0.00    +0.000 OA
ENDBRANCH   3   2
ENDBRANCH  11  10
BRANCH  13  14
ATOM     14  C   UNL     1      50.793   8.453  13.662  0.00  0.00    +0.000 C 
BRANCH  14  15
ATOM     15  C   UNL     1      49.507   7.790  13.216  0.00  0.00    +0.000 A 
ATOM     16  C   UNL     1      48.767   6.979  14.091  0.00  0.00    +0.000 A 
ATOM     17  C   UNL     1      47.557   6.371  13.691  0.00  0.00    +0.000 A 
ATOM     18  C   UNL     1      47.061   6.519  12.386  0.00  0.00    +0.000 A 
ATOM     26  C   UNL     1      47.810   7.327  11.512  0.00  0.00    +0.000 A 
ATOM     27  C   UNL     1      49.015   7.943  11.916  0.00  0.00    +0.000 A 
BRANCH  18  19
ATOM     19  C   UNL     1      45.874   5.679  11.883  0.00  0.00    +0.000 C 
BRANCH  19  20
ATOM     20  N   UNL     1      45.163   4.764  12.810  0.00  0.00    +0.000 NA
ATOM     21  C   UNL     1      45.200   3.351  12.307  0.00  0.00    +0.000 C 
ATOM     22  C   UNL     1      44.352   3.108  11.037  0.00  0.00    +0.000 C 
ATOM     23  O   UNL     1      42.987   3.485  11.256  0.00  0.00    +0.000 OA
ATOM     24  C   UNL     1      42.892   4.838  11.723  0.00  0.00    +0.000 C 
ATOM     25  C   UNL     1      43.730   5.072  12.993  0.00  0.00    +0.000 C 
ENDBRANCH  19  20
ENDBRANCH  18  19
ENDBRANCH  14  15
ENDBRANCH  13  14
TORSDOF 6
ENDMDL
