MODEL 1
REMARK VINA RESULT:    -6.455      0.000      0.000
REMARK INTER + INTRA:         -15.470
REMARK INTER:                 -12.493
REMARK INTRA:                  -2.977
REMARK UNBOUND:                -2.977
REMARK  Name = 
REMARK  17 active torsions:
REMARK  status: ('A' for Active; 'I' for Inactive)
REMARK    1  A    between atoms: C_1  and  C_2
REMARK    2  A    between atoms: C_2  and  C_3
REMARK    3  A    between atoms: C_3  and  C_4
REMARK    4  A    between atoms: C_4  and  C_5
REMARK    5  A    between atoms: C_5  and  C_6
REMARK    6  A    between atoms: C_6  and  C_7
REMARK    7  A    between atoms: C_7  and  C_8
REMARK    8  A    between atoms: C_8  and  C_9
REMARK    9  A    between atoms: C_9  and  C_10
REMARK   10  A    between atoms: C_10  and  C_11
REMARK   11  A    between atoms: C_11  and  C_12
REMARK   12  A    between atoms: C_12  and  N_13
REMARK   13  A    between atoms: N_13  and  C_14
REMARK   14  A    between atoms: C_14  and  C_15
REMARK   15  A    between atoms: C_18  and  C_19
REMARK   16  A    between atoms: C_19  and  N_20
REMARK   17  A    between atoms: C_21  and  C_23
REMARK                            x       y       z     vdW  Elec       q    Type
REMARK                         _______ _______ _______ _____ _____    ______ ____
ROOT
ATOM     15  C   UNL     1      45.277   7.154  11.427  0.00  0.00    +0.000 A 
ATOM     16  C   UNL     1      46.455   6.497  11.077  0.00  0.00    +0.000 A 
ATOM     17  C   UNL     1      47.648   6.791  11.731  0.00  0.00    +0.000 A 
ATOM     18  C   UNL     1      47.684   7.728  12.777  0.00  0.00    +0.000 A 
ATOM     33  C   UNL     1      46.489   8.370  13.133  0.00  0.00    +0.000 A 
ATOM     34  C   UNL     1      45.290   8.071  12.481  0.00  0.00    +0.000 A 
ENDROOT
BRANCH  15  14
ATOM     14  C   UNL     1      44.041   6.916  10.616  0.00  0.00    +0.000 C 
BRANCH  14  13
ATOM     13  N   UNL     1      42.865   6.986  11.481  0.00  0.00    +0.000 NA
ATOM     35  H   UNL     1      43.133   7.439  12.355  0.00  0.00    +0.000 HD
BRANCH  13  12
ATOM     12  C   UNL     1      42.329   5.662  11.741  0.00  0.00    +0.000 C 
BRANCH  12  11
ATOM     11  C   UNL     1      42.861   5.118  13.061  0.00  0.00    +0.000 C 
BRANCH  11  10
ATOM     10  C   UNL     1      43.435   3.736  12.847  0.00  0.00    +0.000 C 
BRANCH  10   9
ATOM      9  C   UNL     1      44.936   3.813  12.642  0.00  0.00    +0.000 C 
BRANCH   9   8
ATOM      8  C   UNL     1      45.316   3.071  11.373  0.00  0.00    +0.000 C 
BRANCH   8   7
ATOM      7  C   UNL     1      44.092   2.870  10.496  0.00  0.00    +0.000 C 
BRANCH   7   6
ATOM      6  C   UNL     1      44.515   2.471   9.092  0.00  0.00    +0.000 C 
BRANCH   6   5
ATOM      5  C   UNL     1      44.775   3.711   8.253  0.00  0.00    +0.000 C 
BRANCH   5   4
ATOM      4  C   UNL     1      46.201   3.702   7.725  0.00  0.00    +0.000 C 
BRANCH   4   3
ATOM      3  C   UNL     1      46.702   2.272   7.591  0.00  0.00    +0.000 C 
BRANCH   3   2
ATOM      1  C   UNL     1      47.070   2.847   5.188  0.00  0.00    +0.000 C 
ATOM      2  C   UNL     1      47.639   2.135   6.400  0.00  0.00    +0.000 C 
ENDBRANCH   3   2
ENDBRANCH   4   3
ENDBRANCH   5   4
ENDBRANCH   6   5
ENDBRANCH   7   6
ENDBRANCH   8   7
ENDBRANCH   9   8
ENDBRANCH  10   9
ENDBRANCH  11  10
ENDBRANCH  12  11
ENDBRANCH  13  12
ENDBRANCH  14  13
ENDBRANCH  15  14
BRANCH  18  19
ATOM     19  C   UNL     1      48.957   8.040  13.532  0.00  0.00    +0.000 C 
BRANCH  19  20
ATOM     20  N   UNL     1      49.179   7.194  14.676  0.00  0.00    +0.000 N 
ATOM     21  C   UNL     1      48.879   7.574  15.955  0.00  0.00    +0.000 C 
ATOM     22  O   UNL     1      48.399   8.666  16.242  0.00  0.00    +0.000 OA
ATOM     36  H   UNL     1      49.723   6.352  14.545  0.00  0.00    +0.000 HD
BRANCH  21  23
ATOM     23  C   UNL     1      49.094   6.530  16.962  0.00  0.00    +0.000 A 
ATOM     24  C   UNL     1      49.938   6.755  18.041  0.00  0.00    +0.000 A 
ATOM     25  S   UNL     1      50.008   5.441  19.129  0.00  0.00    +0.000 S 
ATOM     26  C   UNL     1      48.940   4.520  18.177  0.00  0.00    +0.000 A 
ATOM     27  N   UNL     1      48.582   3.255  18.538  0.00  0.00    +0.000 NA
ATOM     28  C   UNL     1      47.781   2.672  17.714  0.00  0.00    +0.000 A 
ATOM     29  N   UNL     1      47.295   3.232  16.555  0.00  0.00    +0.000 N 
ATOM     30  C   UNL     1      47.615   4.513  16.155  0.00  0.00    +0.000 A 
ATOM     31  O   UNL     1      47.136   4.994  15.148  0.00  0.00    +0.000 OA
ATOM     32  C   UNL     1      48.525   5.205  17.056  0.00  0.00    +0.000 A 
ATOM     37  H   UNL     1      46.662   2.726  15.962  0.00  0.00    +0.000 HD
ENDBRANCH  21  23
ENDBRANCH  19  20
ENDBRANCH  18  19
TORSDOF 16
ENDMDL
MODEL 2
REMARK VINA RESULT:    -5.993      3.046      4.721
REMARK INTER + INTRA:         -14.576
REMARK INTER:                 -12.413
REMARK INTRA:                  -2.163
REMARK UNBOUND:                -2.977
REMARK  Name = 
REMARK  17 active torsions:
REMARK  status: ('A' for Active; 'I' for Inactive)
REMARK    1  A    between atoms: C_1  and  C_2
REMARK    2  A    between atoms: C_2  and  C_3
REMARK    3  A    between atoms: C_3  and  C_4
REMARK    4  A    between atoms: C_4  and  C_5
REMARK    5  A    between atoms: C_5  and  C_6
REMARK    6  A    between atoms: C_6  and  C_7
REMARK    7  A    between atoms: C_7  and  C_8
REMARK    8  A    between atoms: C_8  and  C_9
REMARK    9  A    between atoms: C_9  and  C_10
REMARK   10  A    between atoms: C_10  and  C_11
REMARK   11  A    between atoms: C_11  and  C_12
REMARK   12  A    between atoms: C_12  and  N_13
REMARK   13  A    between atoms: N_13  and  C_14
REMARK   14  A    between atoms: C_14  and  C_15
REMARK   15  A    between atoms: C_18  and  C_19
REMARK   16  A    between atoms: C_19  and  N_20
REMARK   17  A    between atoms: C_21  and  C_23
REMARK                            x       y       z     vdW  Elec       q    Type
REMARK                         _______ _______ _______ _____ _____    ______ ____
ROOT
ATOM     15  C   UNL     1      47.762   6.220  14.491  0.00  0.00    +0.000 A 
ATOM     16  C   UNL     1      47.059   5.019  14.398  0.00  0.00    +0.000 A 
ATOM     17  C   UNL     1      47.175   4.055  15.396  0.00  0.00    +0.000 A 
ATOM     18  C   UNL     1      47.972   4.284  16.529  0.00  0.00    +0.000 A 
ATOM     33  C   UNL     1      48.660   5.503  16.621  0.00  0.00    +0.000 A 
ATOM     34  C   UNL     1      48.540   6.473  15.623  0.00  0.00    +0.000 A 
ENDROOT
BRANCH  15  14
ATOM     14  C   UNL     1      47.724   7.176  13.340  0.00  0.00    +0.000 C 
BRANCH  14  13
ATOM     13  N   UNL     1      46.832   8.290  13.656  0.00  0.00    +0.000 NA
ATOM     35  H   UNL     1      46.647   8.281  14.659  0.00  0.00    +0.000 HD
BRANCH  13  12
ATOM     12  C   UNL     1      45.588   8.188  12.912  0.00  0.00    +0.000 C 
BRANCH  12  11
ATOM     11  C   UNL     1      45.743   7.234  11.735  0.00  0.00    +0.000 C 
BRANCH  11  10
ATOM     10  C   UNL     1      44.413   6.583  11.429  0.00  0.00    +0.000 C 
BRANCH  10   9
ATOM      9  C   UNL     1      43.930   5.783  12.624  0.00  0.00    +0.000 C 
BRANCH   9   8
ATOM      8  C   UNL     1      43.227   4.525  12.145  0.00  0.00    +0.000 C 
BRANCH   8   7
ATOM      7  C   UNL     1      44.086   3.304  12.430  0.00  0.00    +0.000 C 
BRANCH   7   6
ATOM      6  C   UNL     1      45.010   3.031  11.255  0.00  0.00    +0.000 C 
BRANCH   6   5
ATOM      5  C   UNL     1      44.241   3.141   9.948  0.00  0.00    +0.000 C 
BRANCH   5   4
ATOM      4  C   UNL     1      45.062   2.566   8.804  0.00  0.00    +0.000 C 
BRANCH   4   3
ATOM      3  C   UNL     1      45.659   3.689   7.970  0.00  0.00    +0.000 C 
BRANCH   3   2
ATOM      1  C   UNL     1      47.242   1.931   7.165  0.00  0.00    +0.000 C 
ATOM      2  C   UNL     1      46.406   3.132   6.767  0.00  0.00    +0.000 C 
ENDBRANCH   3   2
ENDBRANCH   4   3
ENDBRANCH   5   4
ENDBRANCH   6   5
ENDBRANCH   7   6
ENDBRANCH   8   7
ENDBRANCH   9   8
ENDBRANCH  10   9
ENDBRANCH  11  10
ENDBRANCH  12  11
ENDBRANCH  13  12
ENDBRANCH  14  13
ENDBRANCH  15  14
BRANCH  18  19
ATOM     19  C   UNL     1      48.086   3.272  17.648  0.00  0.00    +0.000 C 
BRANCH  19  20
ATOM     20  N   UNL     1      49.439   2.877  17.942  0.00  0.00    +0.000 N 
ATOM     21  C   UNL     1      50.205   2.139  17.081  0.00  0.00    +0.000 C 
ATOM     22  O   UNL     1      49.808   1.747  15.988  0.00  0.00    +0.000 OA
ATOM     36  H   UNL     1      49.780   3.013  18.883  0.00  0.00    +0.000 HD
BRANCH  21  23
ATOM     23  C   UNL     1      51.583   1.925  17.531  0.00  0.00    +0.000 A 
ATOM     24  C   UNL     1      52.068   0.639  17.730  0.00  0.00    +0.000 A 
ATOM     25  S   UNL     1      53.710   0.601  18.195  0.00  0.00    +0.000 S 
ATOM     26  C   UNL     1      53.816   2.299  18.176  0.00  0.00    +0.000 A 
ATOM     27  N   UNL     1      54.974   2.940  18.503  0.00  0.00    +0.000 NA
ATOM     28  C   UNL     1      54.902   4.226  18.462  0.00  0.00    +0.000 A 
ATOM     29  N   UNL     1      53.779   4.943  18.122  0.00  0.00    +0.000 N 
ATOM     30  C   UNL     1      52.588   4.341  17.768  0.00  0.00    +0.000 A 
ATOM     31  O   UNL     1      51.627   5.002  17.432  0.00  0.00    +0.000 OA
ATOM     32  C   UNL     1      52.625   2.887  17.809  0.00  0.00    +0.000 A 
ATOM     37  H   UNL     1      53.794   5.947  18.097  0.00  0.00    +0.000 HD
ENDBRANCH  21  23
ENDBRANCH  19  20
ENDBRANCH  18  19
TORSDOF 16
ENDMDL
MODEL 3
REMARK VINA RESULT:    -5.973      3.551      9.360
REMARK INTER + INTRA:         -14.536
REMARK INTER:                 -10.606
REMARK INTRA:                  -3.930
REMARK UNBOUND:                -2.977
REMARK  Name = 
REMARK  17 active torsions:
REMARK  status: ('A' for Active; 'I' for Inactive)
REMARK    1  A    between atoms: C_1  and  C_2
REMARK    2  A    between atoms: C_2  and  C_3
REMARK    3  A    between atoms: C_3  and  C_4
REMARK    4  A    between atoms: C_4  and  C_5
REMARK    5  A    between atoms: C_5  and  C_6
REMARK    6  A    between atoms: C_6  and  C_7
REMARK    7  A    between atoms: C_7  and  C_8
REMARK    8  A    between atoms: C_8  and  C_9
REMARK    9  A    between atoms: C_9  and  C_10
REMARK   10  A    between atoms: C_10  and  C_11
REMARK   11  A    between atoms: C_11  and  C_12
REMARK   12  A    between atoms: C_12  and  N_13
REMARK   13  A    between atoms: N_13  and  C_14
REMARK   14  A    between atoms: C_14  and  C_15
REMARK   15  A    between atoms: C_18  and  C_19
REMARK   16  A    between atoms: C_19  and  N_20
REMARK   17  A    between atoms: C_21  and  C_23
REMARK                            x       y       z     vdW  Elec       q    Type
REMARK                         _______ _______ _______ _____ _____    ______ ____
ROOT
ATOM     15  C   UNL     1      51.419   3.476  17.625  0.00  0.00    +0.000 A 
ATOM     16  C   UNL     1      50.690   2.293  17.511  0.00  0.00    +0.000 A 
ATOM     17  C   UNL     1      49.319   2.329  17.270  0.00  0.00    +0.000 A 
ATOM     18  C   UNL     1      48.650   3.552  17.104  0.00  0.00    +0.000 A 
ATOM     33  C   UNL     1      49.396   4.736  17.202  0.00  0.00    +0.000 A 
ATOM     34  C   UNL     1      50.772   4.701  17.439  0.00  0.00    +0.000 A 
ENDROOT
BRANCH  15  14
ATOM     14  C   UNL     1      52.861   3.408  18.019  0.00  0.00    +0.000 C 
BRANCH  14  13
ATOM     13  N   UNL     1      52.976   3.451  19.475  0.00  0.00    +0.000 NA
ATOM     35  H   UNL     1      52.036   3.437  19.873  0.00  0.00    +0.000 HD
BRANCH  13  12
ATOM     12  C   UNL     1      53.688   4.641  19.908  0.00  0.00    +0.000 C 
BRANCH  12  11
ATOM     11  C   UNL     1      52.783   5.535  20.745  0.00  0.00    +0.000 C 
BRANCH  11  10
ATOM     10  C   UNL     1      51.538   4.771  21.139  0.00  0.00    +0.000 C 
BRANCH  10   9
ATOM      9  C   UNL     1      50.304   5.626  20.921  0.00  0.00    +0.000 C 
BRANCH   9   8
ATOM      8  C   UNL     1      49.069   4.741  20.893  0.00  0.00    +0.000 C 
BRANCH   8   7
ATOM      7  C   UNL     1      47.865   5.535  20.416  0.00  0.00    +0.000 C 
BRANCH   7   6
ATOM      6  C   UNL     1      48.283   6.951  20.059  0.00  0.00    +0.000 C 
BRANCH   6   5
ATOM      5  C   UNL     1      47.447   7.466  18.898  0.00  0.00    +0.000 C 
BRANCH   5   4
ATOM      4  C   UNL     1      48.285   8.366  18.004  0.00  0.00    +0.000 C 
BRANCH   4   3
ATOM      3  C   UNL     1      49.642   8.623  18.641  0.00  0.00    +0.000 C 
BRANCH   3   2
ATOM      1  C   UNL     1      50.186   8.204  16.239  0.00  0.00    +0.000 C 
ATOM      2  C   UNL     1      50.757   8.500  17.612  0.00  0.00    +0.000 C 
ENDBRANCH   3   2
ENDBRANCH   4   3
ENDBRANCH   5   4
ENDBRANCH   6   5
ENDBRANCH   7   6
ENDBRANCH   8   7
ENDBRANCH   9   8
ENDBRANCH  10   9
ENDBRANCH  11  10
ENDBRANCH  12  11
ENDBRANCH  13  12
ENDBRANCH  14  13
ENDBRANCH  15  14
BRANCH  18  19
ATOM     19  C   UNL     1      47.169   3.622  16.802  0.00  0.00    +0.000 C 
BRANCH  19  20
ATOM     20  N   UNL     1      46.827   4.563  15.768  0.00  0.00    +0.000 N 
ATOM     21  C   UNL     1      46.860   4.253  14.436  0.00  0.00    +0.000 C 
ATOM     22  O   UNL     1      47.186   3.151  14.005  0.00  0.00    +0.000 OA
ATOM     36  H   UNL     1      46.713   5.533  16.027  0.00  0.00    +0.000 HD
BRANCH  21  23
ATOM     23  C   UNL     1      46.386   5.324  13.554  0.00  0.00    +0.000 A 
ATOM     24  C   UNL     1      47.206   6.401  13.249  0.00  0.00    +0.000 A 
ATOM     25  S   UNL     1      46.492   7.507  12.162  0.00  0.00    +0.000 S 
ATOM     26  C   UNL     1      45.055   6.599  12.090  0.00  0.00    +0.000 A 
ATOM     27  N   UNL     1      43.997   7.008  11.333  0.00  0.00    +0.000 NA
ATOM     28  C   UNL     1      42.971   6.231  11.389  0.00  0.00    +0.000 A 
ATOM     29  N   UNL     1      42.894   5.075  12.130  0.00  0.00    +0.000 N 
ATOM     30  C   UNL     1      43.943   4.611  12.899  0.00  0.00    +0.000 A 
ATOM     31  O   UNL     1      43.859   3.565  13.509  0.00  0.00    +0.000 OA
ATOM     32  C   UNL     1      45.121   5.465  12.870  0.00  0.00    +0.000 A 
ATOM     37  H   UNL     1      42.066   4.506  12.119  0.00  0.00    +0.000 HD
ENDBRANCH  21  23
ENDBRANCH  19  20
ENDBRANCH  18  19
TORSDOF 16
ENDMDL
MODEL 4
REMARK VINA RESULT:    -5.763      3.569     10.018
REMARK INTER + INTRA:         -14.130
REMARK INTER:                 -10.920
REMARK INTRA:                  -3.210
REMARK UNBOUND:                -2.977
REMARK  Name = 
REMARK  17 active torsions:
REMARK  status: ('A' for Active; 'I' for Inactive)
REMARK    1  A    between atoms: C_1  and  C_2
REMARK    2  A    between atoms: C_2  and  C_3
REMARK    3  A    between atoms: C_3  and  C_4
REMARK    4  A    between atoms: C_4  and  C_5
REMARK    5  A    between atoms: C_5  and  C_6
REMARK    6  A    between atoms: C_6  and  C_7
REMARK    7  A    between atoms: C_7  and  C_8
REMARK    8  A    between atoms: C_8  and  C_9
REMARK    9  A    between atoms: C_9  and  C_10
REMARK   10  A    between atoms: C_10  and  C_11
REMARK   11  A    between atoms: C_11  and  C_12
REMARK   12  A    between atoms: C_12  and  N_13
REMARK   13  A    between atoms: N_13  and  C_14
REMARK   14  A    between atoms: C_14  and  C_15
REMARK   15  A    between atoms: C_18  and  C_19
REMARK   16  A    between atoms: C_19  and  N_20
REMARK   17  A    between atoms: C_21  and  C_23
REMARK                            x       y       z     vdW  Elec       q    Type
REMARK                         _______ _______ _______ _____ _____    ______ ____
ROOT
ATOM     15  C   UNL     1      51.380   3.173  17.671  0.00  0.00    +0.000 A 
ATOM     16  C   UNL     1      50.720   4.387  17.859  0.00  0.00    +0.000 A 
ATOM     17  C   UNL     1      49.364   4.504  17.569  0.00  0.00    +0.000 A 
ATOM     18  C   UNL     1      48.627   3.398  17.113  0.00  0.00    +0.000 A 
ATOM     33  C   UNL     1      49.297   2.178  16.945  0.00  0.00    +0.000 A 
ATOM     34  C   UNL     1      50.657   2.058  17.242  0.00  0.00    +0.000 A 
ENDROOT
BRANCH  15  14
ATOM     14  C   UNL     1      52.864   3.114  17.862  0.00  0.00    +0.000 C 
BRANCH  14  13
ATOM     13  N   UNL     1      53.171   2.433  19.118  0.00  0.00    +0.000 NA
ATOM     35  H   UNL     1      52.294   2.211  19.588  0.00  0.00    +0.000 HD
BRANCH  13  12
ATOM     12  C   UNL     1      54.005   3.262  19.970  0.00  0.00    +0.000 C 
BRANCH  12  11
ATOM     11  C   UNL     1      53.152   4.033  20.969  0.00  0.00    +0.000 C 
BRANCH  11  10
ATOM     10  C   UNL     1      53.266   5.516  20.698  0.00  0.00    +0.000 C 
BRANCH  10   9
ATOM      9  C   UNL     1      51.902   6.174  20.789  0.00  0.00    +0.000 C 
BRANCH   9   8
ATOM      8  C   UNL     1      52.068   7.644  21.139  0.00  0.00    +0.000 C 
BRANCH   8   7
ATOM      7  C   UNL     1      50.998   8.471  20.449  0.00  0.00    +0.000 C 
BRANCH   7   6
ATOM      6  C   UNL     1      50.893   8.074  18.986  0.00  0.00    +0.000 C 
BRANCH   6   5
ATOM      5  C   UNL     1      49.433   7.967  18.577  0.00  0.00    +0.000 C 
BRANCH   5   4
ATOM      4  C   UNL     1      48.536   8.040  19.802  0.00  0.00    +0.000 C 
BRANCH   4   3
ATOM      3  C   UNL     1      47.487   6.940  19.751  0.00  0.00    +0.000 C 
BRANCH   3   2
ATOM      1  C   UNL     1      48.497   5.040  21.021  0.00  0.00    +0.000 C 
ATOM      2  C   UNL     1      47.466   6.151  21.053  0.00  0.00    +0.000 C 
ENDBRANCH   3   2
ENDBRANCH   4   3
ENDBRANCH   5   4
ENDBRANCH   6   5
ENDBRANCH   7   6
ENDBRANCH   8   7
ENDBRANCH   9   8
ENDBRANCH  10   9
ENDBRANCH  11  10
ENDBRANCH  12  11
ENDBRANCH  13  12
ENDBRANCH  14  13
ENDBRANCH  15  14
BRANCH  18  19
ATOM     19  C   UNL     1      47.143   3.485  16.827  0.00  0.00    +0.000 C 
BRANCH  19  20
ATOM     20  N   UNL     1      46.801   4.444  15.810  0.00  0.00    +0.000 N 
ATOM     21  C   UNL     1      46.849   4.163  14.472  0.00  0.00    +0.000 C 
ATOM     22  O   UNL     1      47.190   3.073  14.021  0.00  0.00    +0.000 OA
ATOM     36  H   UNL     1      46.674   5.407  16.088  0.00  0.00    +0.000 HD
BRANCH  21  23
ATOM     23  C   UNL     1      46.370   5.247  13.609  0.00  0.00    +0.000 A 
ATOM     24  C   UNL     1      47.176   6.347  13.346  0.00  0.00    +0.000 A 
ATOM     25  S   UNL     1      46.460   7.466  12.274  0.00  0.00    +0.000 S 
ATOM     26  C   UNL     1      45.042   6.534  12.153  0.00  0.00    +0.000 A 
ATOM     27  N   UNL     1      43.990   6.942  11.387  0.00  0.00    +0.000 NA
ATOM     28  C   UNL     1      42.978   6.146  11.404  0.00  0.00    +0.000 A 
ATOM     29  N   UNL     1      42.910   4.970  12.115  0.00  0.00    +0.000 N 
ATOM     30  C   UNL     1      43.953   4.506  12.891  0.00  0.00    +0.000 A 
ATOM     31  O   UNL     1      43.878   3.444  13.472  0.00  0.00    +0.000 OA
ATOM     32  C   UNL     1      45.115   5.382  12.905  0.00  0.00    +0.000 A 
ATOM     37  H   UNL     1      42.093   4.387  12.074  0.00  0.00    +0.000 HD
ENDBRANCH  21  23
ENDBRANCH  19  20
ENDBRANCH  18  19
TORSDOF 16
ENDMDL
MODEL 5
REMARK VINA RESULT:    -5.755      3.156      4.329
REMARK INTER + INTRA:         -14.114
REMARK INTER:                 -12.329
REMARK INTRA:                  -1.785
REMARK UNBOUND:                -2.977
REMARK  Name = 
REMARK  17 active torsions:
REMARK  status: ('A' for Active; 'I' for Inactive)
REMARK    1  A    between atoms: C_1  and  C_2
REMARK    2  A    between atoms: C_2  and  C_3
REMARK    3  A    between atoms: C_3  and  C_4
REMARK    4  A    between atoms: C_4  and  C_5
REMARK    5  A    between atoms: C_5  and  C_6
REMARK    6  A    between atoms: C_6  and  C_7
REMARK    7  A    between atoms: C_7  and  C_8
REMARK    8  A    between atoms: C_8  and  C_9
REMARK    9  A    between atoms: C_9  and  C_10
REMARK   10  A    between atoms: C_10  and  C_11
REMARK   11  A    between atoms: C_11  and  C_12
REMARK   12  A    between atoms: C_12  and  N_13
REMARK   13  A    between atoms: N_13  and  C_14
REMARK   14  A    between atoms: C_14  and  C_15
REMARK   15  A    between atoms: C_18  and  C_19
REMARK   16  A    between atoms: C_19  and  N_20
REMARK   17  A    between atoms: C_21  and  C_23
REMARK                            x       y       z     vdW  Elec       q    Type
REMARK                         _______ _______ _______ _____ _____    ______ ____
ROOT
ATOM     15  C   UNL     1      47.470   5.103  14.667  0.00  0.00    +0.000 A 
ATOM     16  C   UNL     1      48.275   6.192  15.000  0.00  0.00    +0.000 A 
ATOM     17  C   UNL     1      48.828   6.298  16.274  0.00  0.00    +0.000 A 
ATOM     18  C   UNL     1      48.614   5.297  17.236  0.00  0.00    +0.000 A 
ATOM     33  C   UNL     1      47.818   4.197  16.884  0.00  0.00    +0.000 A 
ATOM     34  C   UNL     1      47.268   4.088  15.605  0.00  0.00    +0.000 A 
ENDROOT
BRANCH  15  14
ATOM     14  C   UNL     1      46.781   5.086  13.338  0.00  0.00    +0.000 C 
BRANCH  14  13
ATOM     13  N   UNL     1      45.859   6.217  13.249  0.00  0.00    +0.000 NA
ATOM     35  H   UNL     1      44.921   5.887  13.474  0.00  0.00    +0.000 HD
BRANCH  13  12
ATOM     12  C   UNL     1      45.882   6.804  11.920  0.00  0.00    +0.000 C 
BRANCH  12  11
ATOM     11  C   UNL     1      44.474   6.889  11.346  0.00  0.00    +0.000 C 
BRANCH  11  10
ATOM     10  C   UNL     1      43.597   5.841  11.994  0.00  0.00    +0.000 C 
BRANCH  10   9
ATOM      9  C   UNL     1      43.097   4.856  10.954  0.00  0.00    +0.000 C 
BRANCH   9   8
ATOM      8  C   UNL     1      43.587   3.460  11.298  0.00  0.00    +0.000 C 
BRANCH   8   7
ATOM      7  C   UNL     1      44.905   3.179  10.598  0.00  0.00    +0.000 C 
BRANCH   7   6
ATOM      6  C   UNL     1      44.652   2.506   9.259  0.00  0.00    +0.000 C 
BRANCH   6   5
ATOM      5  C   UNL     1      44.731   3.529   8.137  0.00  0.00    +0.000 C 
BRANCH   5   4
ATOM      4  C   UNL     1      46.184   3.832   7.801  0.00  0.00    +0.000 C 
BRANCH   4   3
ATOM      3  C   UNL     1      46.534   3.269   6.433  0.00  0.00    +0.000 C 
BRANCH   3   2
ATOM      1  C   UNL     1      47.263   1.034   7.280  0.00  0.00    +0.000 C 
ATOM      2  C   UNL     1      47.689   2.282   6.532  0.00  0.00    +0.000 C 
ENDBRANCH   3   2
ENDBRANCH   4   3
ENDBRANCH   5   4
ENDBRANCH   6   5
ENDBRANCH   7   6
ENDBRANCH   8   7
ENDBRANCH   9   8
ENDBRANCH  10   9
ENDBRANCH  11  10
ENDBRANCH  12  11
ENDBRANCH  13  12
ENDBRANCH  14  13
ENDBRANCH  15  14
BRANCH  18  19
ATOM     19  C   UNL     1      49.233   5.364  18.615  0.00  0.00    +0.000 C 
BRANCH  19  20
ATOM     20  N   UNL     1      50.381   4.512  18.782  0.00  0.00    +0.000 N 
ATOM     21  C   UNL     1      51.636   4.859  18.362  0.00  0.00    +0.000 C 
ATOM     22  O   UNL     1      51.894   5.923  17.805  0.00  0.00    +0.000 OA
ATOM     36  H   UNL     1      50.226   3.558  19.075  0.00  0.00    +0.000 HD
BRANCH  21  23
ATOM     23  C   UNL     1      52.680   3.892  18.711  0.00  0.00    +0.000 A 
ATOM     24  C   UNL     1      53.754   4.269  19.506  0.00  0.00    +0.000 A 
ATOM     25  S   UNL     1      54.826   2.985  19.847  0.00  0.00    +0.000 S 
ATOM     26  C   UNL     1      53.908   1.894  18.919  0.00  0.00    +0.000 A 
ATOM     27  N   UNL     1      54.290   0.593  18.773  0.00  0.00    +0.000 NA
ATOM     28  C   UNL     1      53.509  -0.111  18.030  0.00  0.00    +0.000 A 
ATOM     29  N   UNL     1      52.372   0.356  17.412  0.00  0.00    +0.000 N 
ATOM     30  C   UNL     1      51.936   1.659  17.542  0.00  0.00    +0.000 A 
ATOM     31  O   UNL     1      50.905   2.031  17.018  0.00  0.00    +0.000 OA
ATOM     32  C   UNL     1      52.796   2.492  18.369  0.00  0.00    +0.000 A 
ATOM     37  H   UNL     1      51.799  -0.251  16.855  0.00  0.00    +0.000 HD
ENDBRANCH  21  23
ENDBRANCH  19  20
ENDBRANCH  18  19
TORSDOF 16
ENDMDL
MODEL 6
REMARK VINA RESULT:    -5.738      3.538      9.209
REMARK INTER + INTRA:         -14.081
REMARK INTER:                 -10.513
REMARK INTRA:                  -3.568
REMARK UNBOUND:                -2.977
REMARK  Name = 
REMARK  17 active torsions:
REMARK  status: ('A' for Active; 'I' for Inactive)
REMARK    1  A    between atoms: C_1  and  C_2
REMARK    2  A    between atoms: C_2  and  C_3
REMARK    3  A    between atoms: C_3  and  C_4
REMARK    4  A    between atoms: C_4  and  C_5
REMARK    5  A    between atoms: C_5  and  C_6
REMARK    6  A    between atoms: C_6  and  C_7
REMARK    7  A    between atoms: C_7  and  C_8
REMARK    8  A    between atoms: C_8  and  C_9
REMARK    9  A    between atoms: C_9  and  C_10
REMARK   10  A    between atoms: C_10  and  C_11
REMARK   11  A    between atoms: C_11  and  C_12
REMARK   12  A    between atoms: C_12  and  N_13
REMARK   13  A    between atoms: N_13  and  C_14
REMARK   14  A    between atoms: C_14  and  C_15
REMARK   15  A    between atoms: C_18  and  C_19
REMARK   16  A    between atoms: C_19  and  N_20
REMARK   17  A    between atoms: C_21  and  C_23
REMARK                            x       y       z     vdW  Elec       q    Type
REMARK                         _______ _______ _______ _____ _____    ______ ____
ROOT
ATOM     15  C   UNL     1      51.283   3.106  17.753  0.00  0.00    +0.000 A 
ATOM     16  C   UNL     1      50.658   2.107  17.007  0.00  0.00    +0.000 A 
ATOM     17  C   UNL     1      49.295   2.181  16.733  0.00  0.00    +0.000 A 
ATOM     18  C   UNL     1      48.530   3.275  17.170  0.00  0.00    +0.000 A 
ATOM     33  C   UNL     1      49.173   4.282  17.904  0.00  0.00    +0.000 A 
ATOM     34  C   UNL     1      50.542   4.213  18.175  0.00  0.00    +0.000 A 
ENDROOT
BRANCH  15  14
ATOM     14  C   UNL     1      52.717   2.932  18.147  0.00  0.00    +0.000 C 
BRANCH  14  13
ATOM     13  N   UNL     1      53.237   4.190  18.678  0.00  0.00    +0.000 NA
ATOM     35  H   UNL     1      52.462   4.846  18.771  0.00  0.00    +0.000 HD
BRANCH  13  12
ATOM     12  C   UNL     1      54.262   4.739  17.808  0.00  0.00    +0.000 C 
BRANCH  12  11
ATOM     11  C   UNL     1      53.672   5.796  16.884  0.00  0.00    +0.000 C 
BRANCH  11  10
ATOM     10  C   UNL     1      53.172   6.965  17.702  0.00  0.00    +0.000 C 
BRANCH  10   9
ATOM      9  C   UNL     1      52.123   7.740  16.927  0.00  0.00    +0.000 C 
BRANCH   9   8
ATOM      8  C   UNL     1      51.256   6.776  16.136  0.00  0.00    +0.000 C 
BRANCH   8   7
ATOM      7  C   UNL     1      50.152   7.531  15.417  0.00  0.00    +0.000 C 
BRANCH   7   6
ATOM      6  C   UNL     1      48.900   7.568  16.276  0.00  0.00    +0.000 C 
BRANCH   6   5
ATOM      5  C   UNL     1      48.617   8.992  16.727  0.00  0.00    +0.000 C 
BRANCH   5   4
ATOM      4  C   UNL     1      47.952   8.990  18.095  0.00  0.00    +0.000 C 
BRANCH   4   3
ATOM      3  C   UNL     1      47.983   7.591  18.691  0.00  0.00    +0.000 C 
BRANCH   3   2
ATOM      1  C   UNL     1      50.102   7.402  20.003  0.00  0.00    +0.000 C 
ATOM      2  C   UNL     1      48.602   7.608  20.082  0.00  0.00    +0.000 C 
ENDBRANCH   3   2
ENDBRANCH   4   3
ENDBRANCH   5   4
ENDBRANCH   6   5
ENDBRANCH   7   6
ENDBRANCH   8   7
ENDBRANCH   9   8
ENDBRANCH  10   9
ENDBRANCH  11  10
ENDBRANCH  12  11
ENDBRANCH  13  12
ENDBRANCH  14  13
ENDBRANCH  15  14
BRANCH  18  19
ATOM     19  C   UNL     1      47.056   3.401  16.853  0.00  0.00    +0.000 C 
BRANCH  19  20
ATOM     20  N   UNL     1      46.758   4.385  15.846  0.00  0.00    +0.000 N 
ATOM     21  C   UNL     1      46.844   4.130  14.505  0.00  0.00    +0.000 C 
ATOM     22  O   UNL     1      47.185   3.045  14.043  0.00  0.00    +0.000 OA
ATOM     36  H   UNL     1      46.635   5.344  16.140  0.00  0.00    +0.000 HD
BRANCH  21  23
ATOM     23  C   UNL     1      46.408   5.237  13.650  0.00  0.00    +0.000 A 
ATOM     24  C   UNL     1      47.246   6.318  13.413  0.00  0.00    +0.000 A 
ATOM     25  S   UNL     1      46.576   7.471  12.346  0.00  0.00    +0.000 S 
ATOM     26  C   UNL     1      45.136   6.579  12.192  0.00  0.00    +0.000 A 
ATOM     27  N   UNL     1      44.106   7.025  11.417  0.00  0.00    +0.000 NA
ATOM     28  C   UNL     1      43.073   6.255  11.409  0.00  0.00    +0.000 A 
ATOM     29  N   UNL     1      42.963   5.072  12.103  0.00  0.00    +0.000 N 
ATOM     30  C   UNL     1      43.982   4.571  12.887  0.00  0.00    +0.000 A 
ATOM     31  O   UNL     1      43.870   3.503  13.454  0.00  0.00    +0.000 OA
ATOM     32  C   UNL     1      45.167   5.415  12.930  0.00  0.00    +0.000 A 
ATOM     37  H   UNL     1      42.132   4.512  12.042  0.00  0.00    +0.000 HD
ENDBRANCH  21  23
ENDBRANCH  19  20
ENDBRANCH  18  19
TORSDOF 16
ENDMDL
MODEL 7
REMARK VINA RESULT:    -5.709      3.718      9.687
REMARK INTER + INTRA:         -14.026
REMARK INTER:                 -10.217
REMARK INTRA:                  -3.809
REMARK UNBOUND:                -2.977
REMARK  Name = 
REMARK  17 active torsions:
REMARK  status: ('A' for Active; 'I' for Inactive)
REMARK    1  A    between atoms: C_1  and  C_2
REMARK    2  A    between atoms: C_2  and  C_3
REMARK    3  A    between atoms: C_3  and  C_4
REMARK    4  A    between atoms: C_4  and  C_5
REMARK    5  A    between atoms: C_5  and  C_6
REMARK    6  A    between atoms: C_6  and  C_7
REMARK    7  A    between atoms: C_7  and  C_8
REMARK    8  A    between atoms: C_8  and  C_9
REMARK    9  A    between atoms: C_9  and  C_10
REMARK   10  A    between atoms: C_10  and  C_11
REMARK   11  A    between atoms: C_11  and  C_12
REMARK   12  A    between atoms: C_12  and  N_13
REMARK   13  A    between atoms: N_13  and  C_14
REMARK   14  A    between atoms: C_14  and  C_15
REMARK   15  A    between atoms: C_18  and  C_19
REMARK   16  A    between atoms: C_19  and  N_20
REMARK   17  A    between atoms: C_21  and  C_23
REMARK                            x       y       z     vdW  Elec       q    Type
REMARK                         _______ _______ _______ _____ _____    ______ ____
ROOT
ATOM     15  C   UNL     1      51.573   2.966  17.562  0.00  0.00    +0.000 A 
ATOM     16  C   UNL     1      50.747   1.909  17.181  0.00  0.00    +0.000 A 
ATOM     17  C   UNL     1      49.381   2.111  17.004  0.00  0.00    +0.000 A 
ATOM     18  C   UNL     1      48.814   3.385  17.171  0.00  0.00    +0.000 A 
ATOM     33  C   UNL     1      49.658   4.444  17.536  0.00  0.00    +0.000 A 
ATOM     34  C   UNL     1      51.030   4.244  17.709  0.00  0.00    +0.000 A 
ENDROOT
BRANCH  15  14
ATOM     14  C   UNL     1      53.011   2.689  17.877  0.00  0.00    +0.000 C 
BRANCH  14  13
ATOM     13  N   UNL     1      53.154   2.396  19.302  0.00  0.00    +0.000 NA
ATOM     35  H   UNL     1      52.222   2.318  19.710  0.00  0.00    +0.000 HD
BRANCH  13  12
ATOM     12  C   UNL     1      53.915   3.435  19.974  0.00  0.00    +0.000 C 
BRANCH  12  11
ATOM     11  C   UNL     1      53.096   4.058  21.097  0.00  0.00    +0.000 C 
BRANCH  11  10
ATOM     10  C   UNL     1      52.717   5.473  20.726  0.00  0.00    +0.000 C 
BRANCH  10   9
ATOM      9  C   UNL     1      51.232   5.695  20.941  0.00  0.00    +0.000 C 
BRANCH   9   8
ATOM      8  C   UNL     1      50.889   7.151  20.671  0.00  0.00    +0.000 C 
BRANCH   8   7
ATOM      7  C   UNL     1      51.345   7.547  19.277  0.00  0.00    +0.000 C 
BRANCH   7   6
ATOM      6  C   UNL     1      50.493   8.691  18.755  0.00  0.00    +0.000 C 
BRANCH   6   5
ATOM      5  C   UNL     1      49.420   8.159  17.819  0.00  0.00    +0.000 C 
BRANCH   5   4
ATOM      4  C   UNL     1      48.092   8.848  18.092  0.00  0.00    +0.000 C 
BRANCH   4   3
ATOM      3  C   UNL     1      47.416   8.223  19.303  0.00  0.00    +0.000 C 
BRANCH   3   2
ATOM      1  C   UNL     1      47.381   6.061  20.556  0.00  0.00    +0.000 C 
ATOM      2  C   UNL     1      47.387   6.705  19.183  0.00  0.00    +0.000 C 
ENDBRANCH   3   2
ENDBRANCH   4   3
ENDBRANCH   5   4
ENDBRANCH   6   5
ENDBRANCH   7   6
ENDBRANCH   8   7
ENDBRANCH   9   8
ENDBRANCH  10   9
ENDBRANCH  11  10
ENDBRANCH  12  11
ENDBRANCH  13  12
ENDBRANCH  14  13
ENDBRANCH  15  14
BRANCH  18  19
ATOM     19  C   UNL     1      47.340   3.643  16.947  0.00  0.00    +0.000 C 
BRANCH  19  20
ATOM     20  N   UNL     1      47.067   4.622  15.927  0.00  0.00    +0.000 N 
ATOM     21  C   UNL     1      47.044   4.322  14.592  0.00  0.00    +0.000 C 
ATOM     22  O   UNL     1      47.256   3.198  14.147  0.00  0.00    +0.000 OA
ATOM     36  H   UNL     1      47.050   5.595  16.195  0.00  0.00    +0.000 HD
BRANCH  21  23
ATOM     23  C   UNL     1      46.654   5.440  13.728  0.00  0.00    +0.000 A 
ATOM     24  C   UNL     1      45.451   5.410  13.037  0.00  0.00    +0.000 A 
ATOM     25  S   UNL     1      45.155   6.829  12.135  0.00  0.00    +0.000 S 
ATOM     26  C   UNL     1      46.637   7.513  12.614  0.00  0.00    +0.000 A 
ATOM     27  N   UNL     1      47.025   8.744  12.171  0.00  0.00    +0.000 NA
ATOM     28  C   UNL     1      48.177   9.126  12.602  0.00  0.00    +0.000 A 
ATOM     29  N   UNL     1      48.990   8.397  13.439  0.00  0.00    +0.000 N 
ATOM     30  C   UNL     1      48.636   7.155  13.926  0.00  0.00    +0.000 A 
ATOM     31  O   UNL     1      49.356   6.555  14.697  0.00  0.00    +0.000 OA
ATOM     32  C   UNL     1      47.342   6.682  13.457  0.00  0.00    +0.000 A 
ATOM     37  H   UNL     1      49.873   8.760  13.748  0.00  0.00    +0.000 HD
ENDBRANCH  21  23
ENDBRANCH  19  20
ENDBRANCH  18  19
TORSDOF 16
ENDMDL
MODEL 8
REMARK VINA RESULT:    -5.560      3.084      7.834
REMARK INTER + INTRA:         -13.738
REMARK INTER:                 -10.258
REMARK INTRA:                  -3.480
REMARK UNBOUND:                -2.977
REMARK  Name = 
REMARK  17 active torsions:
REMARK  status: ('A' for Active; 'I' for Inactive)
REMARK    1  A    between atoms: C_1  and  C_2
REMARK    2  A    between atoms: C_2  and  C_3
REMARK    3  A    between atoms: C_3  and  C_4
REMARK    4  A    between atoms: C_4  and  C_5
REMARK    5  A    between atoms: C_5  and  C_6
REMARK    6  A    between atoms: C_6  and  C_7
REMARK    7  A    between atoms: C_7  and  C_8
REMARK    8  A    between atoms: C_8  and  C_9
REMARK    9  A    between atoms: C_9  and  C_10
REMARK   10  A    between atoms: C_10  and  C_11
REMARK   11  A    between atoms: C_11  and  C_12
REMARK   12  A    between atoms: C_12  and  N_13
REMARK   13  A    between atoms: N_13  and  C_14
REMARK   14  A    between atoms: C_14  and  C_15
REMARK   15  A    between atoms: C_18  and  C_19
REMARK   16  A    between atoms: C_19  and  N_20
REMARK   17  A    between atoms: C_21  and  C_23
REMARK                            x       y       z     vdW  Elec       q    Type
REMARK                         _______ _______ _______ _____ _____    ______ ____
ROOT
ATOM     15  C   UNL     1      49.585   8.839  15.546  0.00  0.00    +0.000 A 
ATOM     16  C   UNL     1      49.979   7.693  14.857  0.00  0.00    +0.000 A 
ATOM     17  C   UNL     1      49.403   7.375  13.630  0.00  0.00    +0.000 A 
ATOM     18  C   UNL     1      48.442   8.218  13.046  0.00  0.00    +0.000 A 
ATOM     33  C   UNL     1      48.068   9.377  13.740  0.00  0.00    +0.000 A 
ATOM     34  C   UNL     1      48.648   9.699  14.969  0.00  0.00    +0.000 A 
ENDROOT
BRANCH  15  14
ATOM     14  C   UNL     1      50.121   9.081  16.923  0.00  0.00    +0.000 C 
BRANCH  14  13
ATOM     13  N   UNL     1      49.522   8.130  17.858  0.00  0.00    +0.000 NA
ATOM     35  H   UNL     1      48.902   8.642  18.486  0.00  0.00    +0.000 HD
BRANCH  13  12
ATOM     12  C   UNL     1      50.544   7.430  18.616  0.00  0.00    +0.000 C 
BRANCH  12  11
ATOM     11  C   UNL     1      50.525   5.941  18.296  0.00  0.00    +0.000 C 
BRANCH  11  10
ATOM     10  C   UNL     1      51.698   5.597  17.407  0.00  0.00    +0.000 C 
BRANCH  10   9
ATOM      9  C   UNL     1      52.087   4.141  17.586  0.00  0.00    +0.000 C 
BRANCH   9   8
ATOM      8  C   UNL     1      50.874   3.341  18.031  0.00  0.00    +0.000 C 
BRANCH   8   7
ATOM      7  C   UNL     1      50.514   2.306  16.978  0.00  0.00    +0.000 C 
BRANCH   7   6
ATOM      6  C   UNL     1      49.027   1.999  17.037  0.00  0.00    +0.000 C 
BRANCH   6   5
ATOM      5  C   UNL     1      48.299   3.086  17.811  0.00  0.00    +0.000 C 
BRANCH   5   4
ATOM      4  C   UNL     1      47.218   3.716  16.947  0.00  0.00    +0.000 C 
BRANCH   4   3
ATOM      3  C   UNL     1      47.824   4.767  16.030  0.00  0.00    +0.000 C 
BRANCH   3   2
ATOM      1  C   UNL     1      47.113   3.628  13.923  0.00  0.00    +0.000 C 
ATOM      2  C   UNL     1      47.017   4.898  14.746  0.00  0.00    +0.000 C 
ENDBRANCH   3   2
ENDBRANCH   4   3
ENDBRANCH   5   4
ENDBRANCH   6   5
ENDBRANCH   7   6
ENDBRANCH   8   7
ENDBRANCH   9   8
ENDBRANCH  10   9
ENDBRANCH  11  10
ENDBRANCH  12  11
ENDBRANCH  13  12
ENDBRANCH  14  13
ENDBRANCH  15  14
BRANCH  18  19
ATOM     19  C   UNL     1      47.828   7.920  11.696  0.00  0.00    +0.000 C 
BRANCH  19  20
ATOM     20  N   UNL     1      46.976   6.760  11.685  0.00  0.00    +0.000 N 
ATOM     21  C   UNL     1      45.611   6.837  11.621  0.00  0.00    +0.000 C 
ATOM     22  O   UNL     1      44.995   7.897  11.569  0.00  0.00    +0.000 OA
ATOM     36  H   UNL     1      47.392   5.863  11.894  0.00  0.00    +0.000 HD
BRANCH  21  23
ATOM     23  C   UNL     1      44.937   5.539  11.526  0.00  0.00    +0.000 A 
ATOM     24  C   UNL     1      44.155   5.073  12.574  0.00  0.00    +0.000 A 
ATOM     25  S   UNL     1      43.409   3.573  12.246  0.00  0.00    +0.000 S 
ATOM     26  C   UNL     1      44.132   3.484  10.708  0.00  0.00    +0.000 A 
ATOM     27  N   UNL     1      43.920   2.416   9.887  0.00  0.00    +0.000 NA
ATOM     28  C   UNL     1      44.544   2.477   8.761  0.00  0.00    +0.000 A 
ATOM     29  N   UNL     1      45.366   3.508   8.368  0.00  0.00    +0.000 N 
ATOM     30  C   UNL     1      45.599   4.616   9.156  0.00  0.00    +0.000 A 
ATOM     31  O   UNL     1      46.296   5.529   8.764  0.00  0.00    +0.000 OA
ATOM     32  C   UNL     1      44.917   4.584  10.441  0.00  0.00    +0.000 A 
ATOM     37  H   UNL     1      45.813   3.499   7.470  0.00  0.00    +0.000 HD
ENDBRANCH  21  23
ENDBRANCH  19  20
ENDBRANCH  18  19
TORSDOF 16
ENDMDL
MODEL 9
REMARK VINA RESULT:    -5.530      3.480      8.386
REMARK INTER + INTRA:         -13.679
REMARK INTER:                  -9.776
REMARK INTRA:                  -3.903
REMARK UNBOUND:                -2.977
REMARK  Name = 
REMARK  17 active torsions:
REMARK  status: ('A' for Active; 'I' for Inactive)
REMARK    1  A    between atoms: C_1  and  C_2
REMARK    2  A    between atoms: C_2  and  C_3
REMARK    3  A    between atoms: C_3  and  C_4
REMARK    4  A    between atoms: C_4  and  C_5
REMARK    5  A    between atoms: C_5  and  C_6
REMARK    6  A    between atoms: C_6  and  C_7
REMARK    7  A    between atoms: C_7  and  C_8
REMARK    8  A    between atoms: C_8  and  C_9
REMARK    9  A    between atoms: C_9  and  C_10
REMARK   10  A    between atoms: C_10  and  C_11
REMARK   11  A    between atoms: C_11  and  C_12
REMARK   12  A    between atoms: C_12  and  N_13
REMARK   13  A    between atoms: N_13  and  C_14
REMARK   14  A    between atoms: C_14  and  C_15
REMARK   15  A    between atoms: C_18  and  C_19
REMARK   16  A    between atoms: C_19  and  N_20
REMARK   17  A    between atoms: C_21  and  C_23
REMARK                            x       y       z     vdW  Elec       q    Type
REMARK                         _______ _______ _______ _____ _____    ______ ____
ROOT
ATOM     15  C   UNL     1      50.896   4.312  18.820  0.00  0.00    +0.000 A 
ATOM     16  C   UNL     1      50.876   3.480  17.701  0.00  0.00    +0.000 A 
ATOM     17  C   UNL     1      49.672   3.173  17.072  0.00  0.00    +0.000 A 
ATOM     18  C   UNL     1      48.462   3.720  17.529  0.00  0.00    +0.000 A 
ATOM     33  C   UNL     1      48.496   4.569  18.644  0.00  0.00    +0.000 A 
ATOM     34  C   UNL     1      49.704   4.882  19.273  0.00  0.00    +0.000 A 
ENDROOT
BRANCH  15  14
ATOM     14  C   UNL     1      52.185   4.513  19.555  0.00  0.00    +0.000 C 
BRANCH  14  13
ATOM     13  N   UNL     1      53.227   4.924  18.616  0.00  0.00    +0.000 NA
ATOM     35  H   UNL     1      54.124   4.580  18.958  0.00  0.00    +0.000 HD
BRANCH  13  12
ATOM     12  C   UNL     1      53.261   6.370  18.476  0.00  0.00    +0.000 C 
BRANCH  12  11
ATOM     11  C   UNL     1      53.583   6.762  17.039  0.00  0.00    +0.000 C 
BRANCH  11  10
ATOM     10  C   UNL     1      52.359   6.571  16.173  0.00  0.00    +0.000 C 
BRANCH  10   9
ATOM      9  C   UNL     1      51.163   7.275  16.787  0.00  0.00    +0.000 C 
BRANCH   9   8
ATOM      8  C   UNL     1      49.898   6.868  16.051  0.00  0.00    +0.000 C 
BRANCH   8   7
ATOM      7  C   UNL     1      48.719   7.693  16.537  0.00  0.00    +0.000 C 
BRANCH   7   6
ATOM      6  C   UNL     1      48.945   9.162  16.219  0.00  0.00    +0.000 C 
BRANCH   6   5
ATOM      5  C   UNL     1      48.752   9.410  14.732  0.00  0.00    +0.000 C 
BRANCH   5   4
ATOM      4  C   UNL     1      49.987  10.076  14.145  0.00  0.00    +0.000 C 
BRANCH   4   3
ATOM      3  C   UNL     1      50.780   9.076  13.317  0.00  0.00    +0.000 C 
BRANCH   3   2
ATOM      1  C   UNL     1      50.808   7.718  11.220  0.00  0.00    +0.000 C 
ATOM      2  C   UNL     1      49.963   8.587  12.129  0.00  0.00    +0.000 C 
ENDBRANCH   3   2
ENDBRANCH   4   3
ENDBRANCH   5   4
ENDBRANCH   6   5
ENDBRANCH   7   6
ENDBRANCH   8   7
ENDBRANCH   9   8
ENDBRANCH  10   9
ENDBRANCH  11  10
ENDBRANCH  12  11
ENDBRANCH  13  12
ENDBRANCH  14  13
ENDBRANCH  15  14
BRANCH  18  19
ATOM     19  C   UNL     1      47.144   3.436  16.842  0.00  0.00    +0.000 C 
BRANCH  19  20
ATOM     20  N   UNL     1      46.788   4.405  15.839  0.00  0.00    +0.000 N 
ATOM     21  C   UNL     1      46.856   4.151  14.497  0.00  0.00    +0.000 C 
ATOM     22  O   UNL     1      47.228   3.078  14.030  0.00  0.00    +0.000 OA
ATOM     36  H   UNL     1      46.634   5.359  16.134  0.00  0.00    +0.000 HD
BRANCH  21  23
ATOM     23  C   UNL     1      46.359   5.238  13.649  0.00  0.00    +0.000 A 
ATOM     24  C   UNL     1      47.112   6.391  13.468  0.00  0.00    +0.000 A 
ATOM     25  S   UNL     1      46.388   7.509  12.401  0.00  0.00    +0.000 S 
ATOM     26  C   UNL     1      45.034   6.505  12.173  0.00  0.00    +0.000 A 
ATOM     27  N   UNL     1      44.000   6.882  11.368  0.00  0.00    +0.000 NA
ATOM     28  C   UNL     1      43.036   6.030  11.303  0.00  0.00    +0.000 A 
ATOM     29  N   UNL     1      43.001   4.826  11.966  0.00  0.00    +0.000 N 
ATOM     30  C   UNL     1      44.028   4.392  12.779  0.00  0.00    +0.000 A 
ATOM     31  O   UNL     1      43.986   3.305  13.318  0.00  0.00    +0.000 OA
ATOM     32  C   UNL     1      45.135   5.330  12.886  0.00  0.00    +0.000 A 
ATOM     37  H   UNL     1      42.222   4.200  11.862  0.00  0.00    +0.000 HD
ENDBRANCH  21  23
ENDBRANCH  19  20
ENDBRANCH  18  19
TORSDOF 16
ENDMDL
