MODEL 1
REMARK VINA RESULT:    -7.613      0.000      0.000
REMARK INTER + INTRA:         -10.065
REMARK INTER:                  -9.393
REMARK INTRA:                  -0.671
REMARK UNBOUND:                -0.671
REMARK  Name = 
REMARK  4 active torsions:
REMARK  status: ('A' for Active; 'I' for Inactive)
REMARK    1  A    between atoms: C_2  and  C_4
REMARK    2  A    between atoms: N_11  and  C_12
REMARK    3  A    between atoms: C_12  and  C_13
REMARK    4  A    between atoms: N_15  and  C_16
REMARK                            x       y       z     vdW  Elec       q    Type
REMARK                         _______ _______ _______ _____ _____    ______ ____
ROOT
ATOM      4  C   UNL     1      46.484   2.884   7.568  0.00  0.00    +0.000 A 
ATOM      5  C   UNL     1      46.382   4.255   7.796  0.00  0.00    +0.000 A 
ATOM      6  N   UNL     1      45.584   4.844   8.724  0.00  0.00    +0.000 NA
ATOM      7  C   UNL     1      44.909   3.953   9.479  0.00  0.00    +0.000 A 
ATOM      8  C   UNL     1      44.964   2.564   9.388  0.00  0.00    +0.000 A 
ATOM      9  C   UNL     1      44.116   2.045  10.401  0.00  0.00    +0.000 A 
ATOM     10  C   UNL     1      43.551   3.116  11.060  0.00  0.00    +0.000 A 
ATOM     11  N   UNL     1      44.018   4.268  10.475  0.00  0.00    +0.000 N 
ATOM     22  C   UNL     1      45.780   2.003   8.393  0.00  0.00    +0.000 A 
ENDROOT
BRANCH   4   2
ATOM      1  N   UNL     1      47.304   3.148   5.297  0.00  0.00    +0.000 N 
ATOM      2  C   UNL     1      47.324   2.408   6.448  0.00  0.00    +0.000 C 
ATOM      3  O   UNL     1      48.040   1.423   6.559  0.00  0.00    +0.000 OA
ATOM     23  H   UNL     1      47.966   2.883   4.578  0.00  0.00    +0.000 HD
ATOM     24  H   UNL     1      46.917   4.080   5.249  0.00  0.00    +0.000 HD
ENDBRANCH   4   2
BRANCH  11  12
ATOM     12  C   UNL     1      43.689   5.617  10.900  0.00  0.00    +0.000 C 
BRANCH  12  13
ATOM     13  C   UNL     1      44.562   6.165  12.013  0.00  0.00    +0.000 C 
ATOM     14  O   UNL     1      44.213   6.031  13.188  0.00  0.00    +0.000 OA
ATOM     15  N   UNL     1      45.767   6.757  11.678  0.00  0.00    +0.000 N 
ATOM     25  H   UNL     1      46.111   6.661  10.726  0.00  0.00    +0.000 HD
BRANCH  15  16
ATOM     16  C   UNL     1      46.662   7.258  12.725  0.00  0.00    +0.000 C 
ATOM     17  C   UNL     1      46.490   8.758  12.989  0.00  0.00    +0.000 C 
ATOM     18  C   UNL     1      47.303   9.633  12.044  0.00  0.00    +0.000 C 
ATOM     19  N   UNL     1      48.712   9.248  12.025  0.00  0.00    +0.000 NA
ATOM     20  C   UNL     1      48.855   7.868  11.561  0.00  0.00    +0.000 C 
ATOM     21  C   UNL     1      48.129   6.883  12.472  0.00  0.00    +0.000 C 
ATOM     26  H   UNL     1      49.105   9.334  12.960  0.00  0.00    +0.000 HD
ENDBRANCH  15  16
ENDBRANCH  12  13
ENDBRANCH  11  12
TORSDOF 4
ENDMDL
MODEL 2
REMARK VINA RESULT:    -7.028      2.990      7.299
REMARK INTER + INTRA:          -9.343
REMARK INTER:                  -9.002
REMARK INTRA:                  -0.341
REMARK UNBOUND:                -0.671
REMARK  Name = 
REMARK  4 active torsions:
REMARK  status: ('A' for Active; 'I' for Inactive)
REMARK    1  A    between atoms: C_2  and  C_4
REMARK    2  A    between atoms: N_11  and  C_12
REMARK    3  A    between atoms: C_12  and  C_13
REMARK    4  A    between atoms: N_15  and  C_16
REMARK                            x       y       z     vdW  Elec       q    Type
REMARK                         _______ _______ _______ _____ _____    ______ ____
ROOT
ATOM      4  C   UNL     1      48.354   5.861  15.482  0.00  0.00    +0.000 A 
ATOM      5  C   UNL     1      47.606   4.700  15.670  0.00  0.00    +0.000 A 
ATOM      6  N   UNL     1      46.646   4.235  14.829  0.00  0.00    +0.000 NA
ATOM      7  C   UNL     1      46.506   4.990  13.721  0.00  0.00    +0.000 A 
ATOM      8  C   UNL     1      47.225   6.137  13.391  0.00  0.00    +0.000 A 
ATOM      9  C   UNL     1      46.759   6.570  12.121  0.00  0.00    +0.000 A 
ATOM     10  C   UNL     1      45.763   5.704  11.725  0.00  0.00    +0.000 A 
ATOM     11  N   UNL     1      45.599   4.765  12.715  0.00  0.00    +0.000 N 
ATOM     22  C   UNL     1      48.185   6.596  14.306  0.00  0.00    +0.000 A 
ENDROOT
BRANCH   4   2
ATOM      1  N   UNL     1      48.750   6.883  17.649  0.00  0.00    +0.000 N 
ATOM      2  C   UNL     1      49.291   6.286  16.544  0.00  0.00    +0.000 C 
ATOM      3  O   UNL     1      50.492   6.073  16.460  0.00  0.00    +0.000 OA
ATOM     23  H   UNL     1      49.382   7.066  18.419  0.00  0.00    +0.000 HD
ATOM     24  H   UNL     1      47.761   6.863  17.857  0.00  0.00    +0.000 HD
ENDBRANCH   4   2
BRANCH  11  12
ATOM     12  C   UNL     1      44.669   3.651  12.668  0.00  0.00    +0.000 C 
BRANCH  12  13
ATOM     13  C   UNL     1      44.186   3.282  11.278  0.00  0.00    +0.000 C 
ATOM     14  O   UNL     1      43.014   3.500  10.959  0.00  0.00    +0.000 OA
ATOM     15  N   UNL     1      45.097   2.759  10.378  0.00  0.00    +0.000 N 
ATOM     25  H   UNL     1      46.086   2.792  10.609  0.00  0.00    +0.000 HD
BRANCH  15  16
ATOM     16  C   UNL     1      44.682   2.434   9.010  0.00  0.00    +0.000 C 
ATOM     17  C   UNL     1      45.351   1.165   8.470  0.00  0.00    +0.000 C 
ATOM     18  C   UNL     1      46.725   1.421   7.864  0.00  0.00    +0.000 C 
ATOM     19  N   UNL     1      46.686   2.479   6.857  0.00  0.00    +0.000 NA
ATOM     20  C   UNL     1      46.243   3.736   7.459  0.00  0.00    +0.000 C 
ATOM     21  C   UNL     1      44.840   3.622   8.050  0.00  0.00    +0.000 C 
ATOM     26  H   UNL     1      46.048   2.218   6.108  0.00  0.00    +0.000 HD
ENDBRANCH  15  16
ENDBRANCH  12  13
ENDBRANCH  11  12
TORSDOF 4
ENDMDL
MODEL 3
REMARK VINA RESULT:    -6.843      3.324      7.392
REMARK INTER + INTRA:          -9.114
REMARK INTER:                  -8.495
REMARK INTRA:                  -0.619
REMARK UNBOUND:                -0.671
REMARK  Name = 
REMARK  4 active torsions:
REMARK  status: ('A' for Active; 'I' for Inactive)
REMARK    1  A    between atoms: C_2  and  C_4
REMARK    2  A    between atoms: N_11  and  C_12
REMARK    3  A    between atoms: C_12  and  C_13
REMARK    4  A    between atoms: N_15  and  C_16
REMARK                            x       y       z     vdW  Elec       q    Type
REMARK                         _______ _______ _______ _____ _____    ______ ____
ROOT
ATOM      4  C   UNL     1      47.713   4.491  16.223  0.00  0.00    +0.000 A 
ATOM      5  C   UNL     1      47.192   4.175  14.970  0.00  0.00    +0.000 A 
ATOM      6  N   UNL     1      47.237   4.974  13.872  0.00  0.00    +0.000 NA
ATOM      7  C   UNL     1      47.905   6.125  14.086  0.00  0.00    +0.000 A 
ATOM      8  C   UNL     1      48.516   6.534  15.270  0.00  0.00    +0.000 A 
ATOM      9  C   UNL     1      49.122   7.792  15.015  0.00  0.00    +0.000 A 
ATOM     10  C   UNL     1      48.847   8.129  13.706  0.00  0.00    +0.000 A 
ATOM     11  N   UNL     1      48.086   7.124  13.161  0.00  0.00    +0.000 N 
ATOM     22  C   UNL     1      48.416   5.688  16.385  0.00  0.00    +0.000 A 
ENDROOT
BRANCH   4   2
ATOM      1  N   UNL     1      48.478   3.470  18.290  0.00  0.00    +0.000 N 
ATOM      2  C   UNL     1      47.492   3.553  17.344  0.00  0.00    +0.000 C 
ATOM      3  O   UNL     1      46.456   2.912  17.448  0.00  0.00    +0.000 OA
ATOM     23  H   UNL     1      48.270   2.915  19.111  0.00  0.00    +0.000 HD
ATOM     24  H   UNL     1      49.228   4.144  18.363  0.00  0.00    +0.000 HD
ENDBRANCH   4   2
BRANCH  11  12
ATOM     12  C   UNL     1      47.616   7.079  11.787  0.00  0.00    +0.000 C 
BRANCH  12  13
ATOM     13  C   UNL     1      46.131   6.816  11.630  0.00  0.00    +0.000 C 
ATOM     14  O   UNL     1      45.329   7.746  11.740  0.00  0.00    +0.000 OA
ATOM     15  N   UNL     1      45.717   5.536  11.306  0.00  0.00    +0.000 N 
ATOM     25  H   UNL     1      46.415   4.854  11.020  0.00  0.00    +0.000 HD
BRANCH  15  16
ATOM     16  C   UNL     1      44.294   5.249  11.099  0.00  0.00    +0.000 C 
ATOM     17  C   UNL     1      43.599   4.735  12.364  0.00  0.00    +0.000 C 
ATOM     18  C   UNL     1      43.749   3.232  12.566  0.00  0.00    +0.000 C 
ATOM     19  N   UNL     1      43.337   2.482  11.382  0.00  0.00    +0.000 NA
ATOM     20  C   UNL     1      44.168   2.846  10.234  0.00  0.00    +0.000 C 
ATOM     21  C   UNL     1      44.051   4.328   9.893  0.00  0.00    +0.000 C 
ATOM     26  H   UNL     1      42.361   2.682  11.171  0.00  0.00    +0.000 HD
ENDBRANCH  15  16
ENDBRANCH  12  13
ENDBRANCH  11  12
TORSDOF 4
ENDMDL
MODEL 4
REMARK VINA RESULT:    -6.827      2.405      6.604
REMARK INTER + INTRA:          -9.095
REMARK INTER:                  -8.638
REMARK INTRA:                  -0.457
REMARK UNBOUND:                -0.671
REMARK  Name = 
REMARK  4 active torsions:
REMARK  status: ('A' for Active; 'I' for Inactive)
REMARK    1  A    between atoms: C_2  and  C_4
REMARK    2  A    between atoms: N_11  and  C_12
REMARK    3  A    between atoms: C_12  and  C_13
REMARK    4  A    between atoms: N_15  and  C_16
REMARK                            x       y       z     vdW  Elec       q    Type
REMARK                         _______ _______ _______ _____ _____    ______ ____
ROOT
ATOM      4  C   UNL     1      44.902   8.407  11.778  0.00  0.00    +0.000 A 
ATOM      5  C   UNL     1      43.878   7.473  11.630  0.00  0.00    +0.000 A 
ATOM      6  N   UNL     1      43.967   6.150  11.925  0.00  0.00    +0.000 NA
ATOM      7  C   UNL     1      45.161   5.807  12.449  0.00  0.00    +0.000 A 
ATOM      8  C   UNL     1      46.242   6.650  12.697  0.00  0.00    +0.000 A 
ATOM      9  C   UNL     1      47.265   5.856  13.281  0.00  0.00    +0.000 A 
ATOM     10  C   UNL     1      46.798   4.561  13.350  0.00  0.00    +0.000 A 
ATOM     11  N   UNL     1      45.532   4.537  12.818  0.00  0.00    +0.000 N 
ATOM     22  C   UNL     1      46.113   8.003  12.346  0.00  0.00    +0.000 A 
ENDROOT
BRANCH   4   2
ATOM      1  N   UNL     1      45.107  10.800  12.134  0.00  0.00    +0.000 N 
ATOM      2  C   UNL     1      44.677   9.792  11.314  0.00  0.00    +0.000 C 
ATOM      3  O   UNL     1      44.170  10.029  10.228  0.00  0.00    +0.000 OA
ATOM     23  H   UNL     1      45.054  11.740  11.760  0.00  0.00    +0.000 HD
ATOM     24  H   UNL     1      45.730  10.646  12.915  0.00  0.00    +0.000 HD
ENDBRANCH   4   2
BRANCH  11  12
ATOM     12  C   UNL     1      44.678   3.365  12.737  0.00  0.00    +0.000 C 
BRANCH  12  13
ATOM     13  C   UNL     1      44.201   3.020  11.339  0.00  0.00    +0.000 C 
ATOM     14  O   UNL     1      42.993   3.017  11.088  0.00  0.00    +0.000 OA
ATOM     15  N   UNL     1      45.145   2.771  10.360  0.00  0.00    +0.000 N 
ATOM     25  H   UNL     1      46.120   2.987  10.554  0.00  0.00    +0.000 HD
BRANCH  15  16
ATOM     16  C   UNL     1      44.727   2.479   8.985  0.00  0.00    +0.000 C 
ATOM     17  C   UNL     1      45.380   1.214   8.419  0.00  0.00    +0.000 C 
ATOM     18  C   UNL     1      46.758   1.464   7.819  0.00  0.00    +0.000 C 
ATOM     19  N   UNL     1      46.734   2.544   6.835  0.00  0.00    +0.000 NA
ATOM     20  C   UNL     1      46.306   3.794   7.463  0.00  0.00    +0.000 C 
ATOM     21  C   UNL     1      44.902   3.685   8.051  0.00  0.00    +0.000 C 
ATOM     26  H   UNL     1      46.092   2.306   6.081  0.00  0.00    +0.000 HD
ENDBRANCH  15  16
ENDBRANCH  12  13
ENDBRANCH  11  12
TORSDOF 4
ENDMDL
MODEL 5
REMARK VINA RESULT:    -6.735      6.084      8.727
REMARK INTER + INTRA:          -8.981
REMARK INTER:                  -8.580
REMARK INTRA:                  -0.401
REMARK UNBOUND:                -0.671
REMARK  Name = 
REMARK  4 active torsions:
REMARK  status: ('A' for Active; 'I' for Inactive)
REMARK    1  A    between atoms: C_2  and  C_4
REMARK    2  A    between atoms: N_11  and  C_12
REMARK    3  A    between atoms: C_12  and  C_13
REMARK    4  A    between atoms: N_15  and  C_16
REMARK                            x       y       z     vdW  Elec       q    Type
REMARK                         _______ _______ _______ _____ _____    ______ ____
ROOT
ATOM      4  C   UNL     1      51.679   2.287  17.575  0.00  0.00    +0.000 A 
ATOM      5  C   UNL     1      50.512   1.749  17.035  0.00  0.00    +0.000 A 
ATOM      6  N   UNL     1      49.371   2.439  16.777  0.00  0.00    +0.000 NA
ATOM      7  C   UNL     1      49.480   3.756  17.044  0.00  0.00    +0.000 A 
ATOM      8  C   UNL     1      50.602   4.423  17.532  0.00  0.00    +0.000 A 
ATOM      9  C   UNL     1      50.262   5.798  17.624  0.00  0.00    +0.000 A 
ATOM     10  C   UNL     1      48.951   5.931  17.220  0.00  0.00    +0.000 A 
ATOM     11  N   UNL     1      48.478   4.683  16.896  0.00  0.00    +0.000 N 
ATOM     22  C   UNL     1      51.747   3.662  17.813  0.00  0.00    +0.000 A 
ENDROOT
BRANCH   4   2
ATOM      1  N   UNL     1      52.494   0.070  18.139  0.00  0.00    +0.000 N 
ATOM      2  C   UNL     1      52.803   1.380  17.891  0.00  0.00    +0.000 C 
ATOM      3  O   UNL     1      53.961   1.770  17.889  0.00  0.00    +0.000 OA
ATOM     23  H   UNL     1      53.275  -0.567  18.242  0.00  0.00    +0.000 HD
ATOM     24  H   UNL     1      51.593  -0.333  17.924  0.00  0.00    +0.000 HD
ENDBRANCH   4   2
BRANCH  11  12
ATOM     12  C   UNL     1      47.148   4.395  16.390  0.00  0.00    +0.000 C 
BRANCH  12  13
ATOM     13  C   UNL     1      46.949   4.688  14.915  0.00  0.00    +0.000 C 
ATOM     14  O   UNL     1      47.898   5.089  14.238  0.00  0.00    +0.000 OA
ATOM     15  N   UNL     1      45.711   4.438  14.352  0.00  0.00    +0.000 N 
ATOM     25  H   UNL     1      45.025   3.915  14.891  0.00  0.00    +0.000 HD
BRANCH  15  16
ATOM     16  C   UNL     1      45.490   4.663  12.920  0.00  0.00    +0.000 C 
ATOM     17  C   UNL     1      44.456   5.758  12.641  0.00  0.00    +0.000 C 
ATOM     18  C   UNL     1      43.020   5.250  12.660  0.00  0.00    +0.000 C 
ATOM     19  N   UNL     1      42.839   4.101  11.775  0.00  0.00    +0.000 NA
ATOM     20  C   UNL     1      43.692   2.992  12.202  0.00  0.00    +0.000 C 
ATOM     21  C   UNL     1      45.172   3.364  12.165  0.00  0.00    +0.000 C 
ATOM     26  H   UNL     1      43.076   4.362  10.820  0.00  0.00    +0.000 HD
ENDBRANCH  15  16
ENDBRANCH  12  13
ENDBRANCH  11  12
TORSDOF 4
ENDMDL
MODEL 6
REMARK VINA RESULT:    -6.697      6.207      8.472
REMARK INTER + INTRA:          -8.935
REMARK INTER:                  -8.495
REMARK INTRA:                  -0.440
REMARK UNBOUND:                -0.671
REMARK  Name = 
REMARK  4 active torsions:
REMARK  status: ('A' for Active; 'I' for Inactive)
REMARK    1  A    between atoms: C_2  and  C_4
REMARK    2  A    between atoms: N_11  and  C_12
REMARK    3  A    between atoms: C_12  and  C_13
REMARK    4  A    between atoms: N_15  and  C_16
REMARK                            x       y       z     vdW  Elec       q    Type
REMARK                         _______ _______ _______ _____ _____    ______ ____
ROOT
ATOM      4  C   UNL     1      51.758   2.039  17.515  0.00  0.00    +0.000 A 
ATOM      5  C   UNL     1      50.607   1.520  16.926  0.00  0.00    +0.000 A 
ATOM      6  N   UNL     1      49.450   2.201  16.718  0.00  0.00    +0.000 NA
ATOM      7  C   UNL     1      49.526   3.494  17.092  0.00  0.00    +0.000 A 
ATOM      8  C   UNL     1      50.629   4.145  17.641  0.00  0.00    +0.000 A 
ATOM      9  C   UNL     1      50.256   5.500  17.843  0.00  0.00    +0.000 A 
ATOM     10  C   UNL     1      48.944   5.635  17.443  0.00  0.00    +0.000 A 
ATOM     11  N   UNL     1      48.503   4.406  17.015  0.00  0.00    +0.000 N 
ATOM     22  C   UNL     1      51.791   3.392  17.866  0.00  0.00    +0.000 A 
ENDROOT
BRANCH   4   2
ATOM      1  N   UNL     1      52.624  -0.079  18.326  0.00  0.00    +0.000 N 
ATOM      2  C   UNL     1      52.902   1.136  17.764  0.00  0.00    +0.000 C 
ATOM      3  O   UNL     1      54.040   1.442  17.441  0.00  0.00    +0.000 OA
ATOM     23  H   UNL     1      53.393  -0.735  18.388  0.00  0.00    +0.000 HD
ATOM     24  H   UNL     1      51.688  -0.456  18.389  0.00  0.00    +0.000 HD
ENDBRANCH   4   2
BRANCH  11  12
ATOM     12  C   UNL     1      47.182   4.130  16.478  0.00  0.00    +0.000 C 
BRANCH  12  13
ATOM     13  C   UNL     1      47.083   4.186  14.966  0.00  0.00    +0.000 C 
ATOM     14  O   UNL     1      47.457   3.222  14.292  0.00  0.00    +0.000 OA
ATOM     15  N   UNL     1      46.518   5.305  14.380  0.00  0.00    +0.000 N 
ATOM     25  H   UNL     1      46.037   5.976  14.973  0.00  0.00    +0.000 HD
BRANCH  15  16
ATOM     16  C   UNL     1      46.361   5.379  12.925  0.00  0.00    +0.000 C 
ATOM     17  C   UNL     1      46.595   6.789  12.371  0.00  0.00    +0.000 C 
ATOM     18  C   UNL     1      45.355   7.672  12.430  0.00  0.00    +0.000 C 
ATOM     19  N   UNL     1      44.202   7.030  11.801  0.00  0.00    +0.000 NA
ATOM     20  C   UNL     1      43.874   5.784  12.493  0.00  0.00    +0.000 C 
ATOM     21  C   UNL     1      45.027   4.786  12.447  0.00  0.00    +0.000 C 
ATOM     26  H   UNL     1      44.410   6.831  10.824  0.00  0.00    +0.000 HD
ENDBRANCH  15  16
ENDBRANCH  12  13
ENDBRANCH  11  12
TORSDOF 4
ENDMDL
MODEL 7
REMARK VINA RESULT:    -6.514      2.193      6.724
REMARK INTER + INTRA:          -8.708
REMARK INTER:                  -8.128
REMARK INTRA:                  -0.580
REMARK UNBOUND:                -0.671
REMARK  Name = 
REMARK  4 active torsions:
REMARK  status: ('A' for Active; 'I' for Inactive)
REMARK    1  A    between atoms: C_2  and  C_4
REMARK    2  A    between atoms: N_11  and  C_12
REMARK    3  A    between atoms: C_12  and  C_13
REMARK    4  A    between atoms: N_15  and  C_16
REMARK                            x       y       z     vdW  Elec       q    Type
REMARK                         _______ _______ _______ _____ _____    ______ ____
ROOT
ATOM      4  C   UNL     1      48.477   7.627  12.925  0.00  0.00    +0.000 A 
ATOM      5  C   UNL     1      48.473   6.253  13.151  0.00  0.00    +0.000 A 
ATOM      6  N   UNL     1      47.405   5.429  12.987  0.00  0.00    +0.000 NA
ATOM      7  C   UNL     1      46.316   6.067  12.513  0.00  0.00    +0.000 A 
ATOM      8  C   UNL     1      46.207   7.419  12.197  0.00  0.00    +0.000 A 
ATOM      9  C   UNL     1      44.892   7.628  11.704  0.00  0.00    +0.000 A 
ATOM     10  C   UNL     1      44.231   6.420  11.756  0.00  0.00    +0.000 A 
ATOM     11  N   UNL     1      45.096   5.485  12.273  0.00  0.00    +0.000 N 
ATOM     22  C   UNL     1      47.328   8.236  12.412  0.00  0.00    +0.000 A 
ENDROOT
BRANCH   4   2
ATOM      1  N   UNL     1      50.734   7.714  13.816  0.00  0.00    +0.000 N 
ATOM      2  C   UNL     1      49.695   8.400  13.249  0.00  0.00    +0.000 C 
ATOM      3  O   UNL     1      49.789   9.589  12.982  0.00  0.00    +0.000 OA
ATOM     23  H   UNL     1      51.603   8.222  13.930  0.00  0.00    +0.000 HD
ATOM     24  H   UNL     1      50.782   6.704  13.835  0.00  0.00    +0.000 HD
ENDBRANCH   4   2
BRANCH  11  12
ATOM     12  C   UNL     1      44.795   4.077  12.458  0.00  0.00    +0.000 C 
BRANCH  12  13
ATOM     13  C   UNL     1      44.306   3.361  11.214  0.00  0.00    +0.000 C 
ATOM     14  O   UNL     1      43.193   2.829  11.210  0.00  0.00    +0.000 OA
ATOM     15  N   UNL     1      45.107   3.373  10.086  0.00  0.00    +0.000 N 
ATOM     25  H   UNL     1      45.912   3.994  10.065  0.00  0.00    +0.000 HD
BRANCH  15  16
ATOM     16  C   UNL     1      44.652   2.733   8.848  0.00  0.00    +0.000 C 
ATOM     17  C   UNL     1      45.240   1.332   8.650  0.00  0.00    +0.000 C 
ATOM     18  C   UNL     1      46.617   1.343   7.996  0.00  0.00    +0.000 C 
ATOM     19  N   UNL     1      46.620   2.110   6.752  0.00  0.00    +0.000 NA
ATOM     20  C   UNL     1      46.258   3.503   7.012  0.00  0.00    +0.000 C 
ATOM     21  C   UNL     1      44.861   3.625   7.615  0.00  0.00    +0.000 C 
ATOM     26  H   UNL     1      45.955   1.703   6.096  0.00  0.00    +0.000 HD
ENDBRANCH  15  16
ENDBRANCH  12  13
ENDBRANCH  11  12
TORSDOF 4
ENDMDL
MODEL 8
REMARK VINA RESULT:    -6.496      4.111      6.375
REMARK INTER + INTRA:          -8.686
REMARK INTER:                  -7.956
REMARK INTRA:                  -0.730
REMARK UNBOUND:                -0.671
REMARK  Name = 
REMARK  4 active torsions:
REMARK  status: ('A' for Active; 'I' for Inactive)
REMARK    1  A    between atoms: C_2  and  C_4
REMARK    2  A    between atoms: N_11  and  C_12
REMARK    3  A    between atoms: C_12  and  C_13
REMARK    4  A    between atoms: N_15  and  C_16
REMARK                            x       y       z     vdW  Elec       q    Type
REMARK                         _______ _______ _______ _____ _____    ______ ____
ROOT
ATOM      4  C   UNL     1      44.646   4.551  12.327  0.00  0.00    +0.000 A 
ATOM      5  C   UNL     1      45.864   4.192  12.901  0.00  0.00    +0.000 A 
ATOM      6  N   UNL     1      46.839   5.054  13.290  0.00  0.00    +0.000 NA
ATOM      7  C   UNL     1      46.496   6.347  13.120  0.00  0.00    +0.000 A 
ATOM      8  C   UNL     1      45.295   6.837  12.610  0.00  0.00    +0.000 A 
ATOM      9  C   UNL     1      45.373   8.254  12.649  0.00  0.00    +0.000 A 
ATOM     10  C   UNL     1      46.612   8.590  13.151  0.00  0.00    +0.000 A 
ATOM     11  N   UNL     1      47.295   7.426  13.408  0.00  0.00    +0.000 N 
ATOM     22  C   UNL     1      44.332   5.906  12.193  0.00  0.00    +0.000 A 
ENDROOT
BRANCH   4   2
ATOM      1  N   UNL     1      43.748   2.307  12.561  0.00  0.00    +0.000 N 
ATOM      2  C   UNL     1      43.733   3.485  11.864  0.00  0.00    +0.000 C 
ATOM      3  O   UNL     1      42.967   3.660  10.928  0.00  0.00    +0.000 OA
ATOM     23  H   UNL     1      43.042   1.626  12.311  0.00  0.00    +0.000 HD
ATOM     24  H   UNL     1      44.187   2.209  13.466  0.00  0.00    +0.000 HD
ENDBRANCH   4   2
BRANCH  11  12
ATOM     12  C   UNL     1      48.627   7.345  13.980  0.00  0.00    +0.000 C 
BRANCH  12  13
ATOM     13  C   UNL     1      48.665   7.138  15.482  0.00  0.00    +0.000 C 
ATOM     14  O   UNL     1      48.865   8.100  16.228  0.00  0.00    +0.000 OA
ATOM     15  N   UNL     1      48.414   5.873  15.983  0.00  0.00    +0.000 N 
ATOM     25  H   UNL     1      48.050   5.162  15.354  0.00  0.00    +0.000 HD
BRANCH  15  16
ATOM     16  C   UNL     1      48.395   5.640  17.430  0.00  0.00    +0.000 C 
ATOM     17  C   UNL     1      49.773   5.279  17.995  0.00  0.00    +0.000 C 
ATOM     18  C   UNL     1      50.101   3.796  17.882  0.00  0.00    +0.000 C 
ATOM     19  N   UNL     1      49.047   2.962  18.458  0.00  0.00    +0.000 NA
ATOM     20  C   UNL     1      47.785   3.178  17.750  0.00  0.00    +0.000 C 
ATOM     21  C   UNL     1      47.318   4.627  17.847  0.00  0.00    +0.000 C 
ATOM     26  H   UNL     1      48.928   3.192  19.443  0.00  0.00    +0.000 HD
ENDBRANCH  15  16
ENDBRANCH  12  13
ENDBRANCH  11  12
TORSDOF 4
ENDMDL
MODEL 9
REMARK VINA RESULT:    -6.109      4.305      5.530
REMARK INTER + INTRA:          -8.209
REMARK INTER:                  -7.879
REMARK INTRA:                  -0.330
REMARK UNBOUND:                -0.671
REMARK  Name = 
REMARK  4 active torsions:
REMARK  status: ('A' for Active; 'I' for Inactive)
REMARK    1  A    between atoms: C_2  and  C_4
REMARK    2  A    between atoms: N_11  and  C_12
REMARK    3  A    between atoms: C_12  and  C_13
REMARK    4  A    between atoms: N_15  and  C_16
REMARK                            x       y       z     vdW  Elec       q    Type
REMARK                         _______ _______ _______ _____ _____    ______ ____
ROOT
ATOM      4  C   UNL     1      44.981   3.945  10.982  0.00  0.00    +0.000 A 
ATOM      5  C   UNL     1      45.013   3.106  12.093  0.00  0.00    +0.000 A 
ATOM      6  N   UNL     1      45.678   3.355  13.252  0.00  0.00    +0.000 NA
ATOM      7  C   UNL     1      46.286   4.558  13.262  0.00  0.00    +0.000 A 
ATOM      8  C   UNL     1      46.285   5.507  12.241  0.00  0.00    +0.000 A 
ATOM      9  C   UNL     1      47.023   6.625  12.711  0.00  0.00    +0.000 A 
ATOM     10  C   UNL     1      47.473   6.324  13.979  0.00  0.00    +0.000 A 
ATOM     11  N   UNL     1      47.043   5.058  14.292  0.00  0.00    +0.000 N 
ATOM     22  C   UNL     1      45.610   5.191  11.052  0.00  0.00    +0.000 A 
ENDROOT
BRANCH   4   2
ATOM      1  N   UNL     1      44.040   4.420   8.794  0.00  0.00    +0.000 N 
ATOM      2  C   UNL     1      44.294   3.482   9.757  0.00  0.00    +0.000 C 
ATOM      3  O   UNL     1      44.005   2.306   9.592  0.00  0.00    +0.000 OA
ATOM     23  H   UNL     1      43.674   4.076   7.914  0.00  0.00    +0.000 HD
ATOM     24  H   UNL     1      44.465   5.336   8.793  0.00  0.00    +0.000 HD
ENDBRANCH   4   2
BRANCH  11  12
ATOM     12  C   UNL     1      47.277   4.382  15.556  0.00  0.00    +0.000 C 
BRANCH  12  13
ATOM     13  C   UNL     1      48.249   5.085  16.484  0.00  0.00    +0.000 C 
ATOM     14  O   UNL     1      49.440   4.765  16.481  0.00  0.00    +0.000 OA
ATOM     15  N   UNL     1      47.778   6.117  17.276  0.00  0.00    +0.000 N 
ATOM     25  H   UNL     1      46.847   6.485  17.097  0.00  0.00    +0.000 HD
BRANCH  15  16
ATOM     16  C   UNL     1      48.692   6.854  18.153  0.00  0.00    +0.000 C 
ATOM     17  C   UNL     1      48.054   7.240  19.492  0.00  0.00    +0.000 C 
ATOM     18  C   UNL     1      47.260   8.539  19.428  0.00  0.00    +0.000 C 
ATOM     19  N   UNL     1      48.055   9.633  18.875  0.00  0.00    +0.000 NA
ATOM     20  C   UNL     1      48.472   9.318  17.509  0.00  0.00    +0.000 C 
ATOM     21  C   UNL     1      49.334   8.060  17.452  0.00  0.00    +0.000 C 
ATOM     26  H   UNL     1      48.878   9.787  19.454  0.00  0.00    +0.000 HD
ENDBRANCH  15  16
ENDBRANCH  12  13
ENDBRANCH  11  12
TORSDOF 4
ENDMDL
