MODEL 1
REMARK VINA RESULT:    -7.257      0.000      0.000
REMARK INTER + INTRA:         -12.203
REMARK INTER:                 -11.075
REMARK INTRA:                  -1.129
REMARK UNBOUND:                -1.129
REMARK  Name = 
REMARK  10 active torsions:
REMARK  status: ('A' for Active; 'I' for Inactive)
REMARK    1  A    between atoms: C_1  and  C_2
REMARK    2  A    between atoms: C_2  and  C_3
REMARK    3  A    between atoms: C_3  and  C_4
REMARK    4  A    between atoms: C_4  and  C_5
REMARK    5  A    between atoms: C_5  and  N_6
REMARK    6  A    between atoms: N_6  and  C_7
REMARK    7  A    between atoms: C_7  and  C_8
REMARK    8  A    between atoms: C_11  and  C_12
REMARK    9  A    between atoms: C_12  and  N_13
REMARK   10  A    between atoms: C_14  and  C_16
REMARK                            x       y       z     vdW  Elec       q    Type
REMARK                         _______ _______ _______ _____ _____    ______ ____
ROOT
ATOM     12  C   UNL     1      46.778   7.959  13.005  0.00  0.00    +0.000 C 
ENDROOT
BRANCH  12  11
ATOM      8  C   UNL     1      44.543   4.872  10.950  0.00  0.00    +0.000 A 
ATOM      9  C   UNL     1      45.635   5.498  10.329  0.00  0.00    +0.000 A 
ATOM     10  C   UNL     1      46.362   6.489  10.993  0.00  0.00    +0.000 A 
ATOM     11  C   UNL     1      46.009   6.883  12.288  0.00  0.00    +0.000 A 
ATOM     26  C   UNL     1      44.892   6.291  12.892  0.00  0.00    +0.000 A 
ATOM     27  C   UNL     1      44.172   5.291  12.235  0.00  0.00    +0.000 A 
BRANCH   8   7
ATOM      7  C   UNL     1      43.762   3.788  10.241  0.00  0.00    +0.000 C 
BRANCH   7   6
ATOM      6  N   UNL     1      44.424   2.488  10.362  0.00  0.00    +0.000 NA
ATOM     28  H   UNL     1      45.356   2.620  10.748  0.00  0.00    +0.000 HD
BRANCH   6   5
ATOM      5  C   UNL     1      44.521   1.817   9.068  0.00  0.00    +0.000 C 
BRANCH   5   4
ATOM      4  C   UNL     1      45.886   2.115   8.445  0.00  0.00    +0.000 C 
BRANCH   4   3
ATOM      3  C   UNL     1      45.774   3.187   7.360  0.00  0.00    +0.000 C 
BRANCH   3   2
ATOM      1  C   UNL     1      47.872   2.058   6.551  0.00  0.00    +0.000 C 
ATOM      2  C   UNL     1      47.095   3.364   6.614  0.00  0.00    +0.000 C 
ENDBRANCH   3   2
ENDBRANCH   4   3
ENDBRANCH   5   4
ENDBRANCH   6   5
ENDBRANCH   7   6
ENDBRANCH   8   7
ENDBRANCH  12  11
BRANCH  12  13
ATOM     13  N   UNL     1      47.261   7.484  14.277  0.00  0.00    +0.000 N 
ATOM     14  C   UNL     1      48.370   6.686  14.363  0.00  0.00    +0.000 C 
ATOM     15  O   UNL     1      49.025   6.371  13.371  0.00  0.00    +0.000 OA
ATOM     29  H   UNL     1      46.622   7.547  15.062  0.00  0.00    +0.000 HD
BRANCH  14  16
ATOM     16  C   UNL     1      48.776   6.270  15.710  0.00  0.00    +0.000 A 
ATOM     17  C   UNL     1      49.697   7.034  16.414  0.00  0.00    +0.000 A 
ATOM     18  S   UNL     1      50.018   6.449  17.983  0.00  0.00    +0.000 S 
ATOM     19  C   UNL     1      48.975   5.125  17.761  0.00  0.00    +0.000 A 
ATOM     20  N   UNL     1      48.803   4.199  18.743  0.00  0.00    +0.000 NA
ATOM     21  C   UNL     1      48.006   3.232  18.432  0.00  0.00    +0.000 A 
ATOM     22  N   UNL     1      47.362   3.109  17.230  0.00  0.00    +0.000 N 
ATOM     23  C   UNL     1      47.485   4.032  16.218  0.00  0.00    +0.000 A 
ATOM     24  O   UNL     1      46.866   3.908  15.166  0.00  0.00    +0.000 OA
ATOM     25  C   UNL     1      48.378   5.136  16.512  0.00  0.00    +0.000 A 
ATOM     30  H   UNL     1      46.743   2.331  17.050  0.00  0.00    +0.000 HD
ENDBRANCH  14  16
ENDBRANCH  12  13
TORSDOF 9
ENDMDL
MODEL 2
REMARK VINA RESULT:    -7.148      1.500      1.701
REMARK INTER + INTRA:         -12.037
REMARK INTER:                 -10.980
REMARK INTRA:                  -1.058
REMARK UNBOUND:                -1.129
REMARK  Name = 
REMARK  10 active torsions:
REMARK  status: ('A' for Active; 'I' for Inactive)
REMARK    1  A    between atoms: C_1  and  C_2
REMARK    2  A    between atoms: C_2  and  C_3
REMARK    3  A    between atoms: C_3  and  C_4
REMARK    4  A    between atoms: C_4  and  C_5
REMARK    5  A    between atoms: C_5  and  N_6
REMARK    6  A    between atoms: N_6  and  C_7
REMARK    7  A    between atoms: C_7  and  C_8
REMARK    8  A    between atoms: C_11  and  C_12
REMARK    9  A    between atoms: C_12  and  N_13
REMARK   10  A    between atoms: C_14  and  C_16
REMARK                            x       y       z     vdW  Elec       q    Type
REMARK                         _______ _______ _______ _____ _____    ______ ____
ROOT
ATOM     12  C   UNL     1      48.114   6.649  13.289  0.00  0.00    +0.000 C 
ENDROOT
BRANCH  12  11
ATOM      8  C   UNL     1      44.862   4.446  11.468  0.00  0.00    +0.000 A 
ATOM      9  C   UNL     1      45.382   5.595  10.851  0.00  0.00    +0.000 A 
ATOM     10  C   UNL     1      46.436   6.303  11.433  0.00  0.00    +0.000 A 
ATOM     11  C   UNL     1      46.988   5.884  12.649  0.00  0.00    +0.000 A 
ATOM     26  C   UNL     1      46.441   4.764  13.288  0.00  0.00    +0.000 A 
ATOM     27  C   UNL     1      45.396   4.048  12.701  0.00  0.00    +0.000 A 
BRANCH   8   7
ATOM      7  C   UNL     1      43.731   3.667  10.833  0.00  0.00    +0.000 C 
BRANCH   7   6
ATOM      6  N   UNL     1      44.008   3.375   9.426  0.00  0.00    +0.000 NA
ATOM     28  H   UNL     1      43.148   3.468   8.888  0.00  0.00    +0.000 HD
BRANCH   6   5
ATOM      5  C   UNL     1      44.549   2.030   9.257  0.00  0.00    +0.000 C 
BRANCH   5   4
ATOM      4  C   UNL     1      45.829   2.102   8.421  0.00  0.00    +0.000 C 
BRANCH   4   3
ATOM      3  C   UNL     1      45.878   3.390   7.597  0.00  0.00    +0.000 C 
BRANCH   3   2
ATOM      1  C   UNL     1      47.715   2.106   6.454  0.00  0.00    +0.000 C 
ATOM      2  C   UNL     1      46.662   3.192   6.301  0.00  0.00    +0.000 C 
ENDBRANCH   3   2
ENDBRANCH   4   3
ENDBRANCH   5   4
ENDBRANCH   6   5
ENDBRANCH   7   6
ENDBRANCH   8   7
ENDBRANCH  12  11
BRANCH  12  13
ATOM     13  N   UNL     1      47.952   6.699  14.720  0.00  0.00    +0.000 N 
ATOM     14  C   UNL     1      49.034   6.732  15.558  0.00  0.00    +0.000 C 
ATOM     15  O   UNL     1      50.187   6.759  15.131  0.00  0.00    +0.000 OA
ATOM     29  H   UNL     1      47.037   6.457  15.087  0.00  0.00    +0.000 HD
BRANCH  14  16
ATOM     16  C   UNL     1      48.750   6.792  16.996  0.00  0.00    +0.000 A 
ATOM     17  C   UNL     1      48.374   7.999  17.570  0.00  0.00    +0.000 A 
ATOM     18  S   UNL     1      48.023   7.887  19.234  0.00  0.00    +0.000 S 
ATOM     19  C   UNL     1      48.409   6.231  19.260  0.00  0.00    +0.000 A 
ATOM     20  N   UNL     1      48.337   5.515  20.415  0.00  0.00    +0.000 NA
ATOM     21  C   UNL     1      48.684   4.277  20.299  0.00  0.00    +0.000 A 
ATOM     22  N   UNL     1      49.093   3.689  19.131  0.00  0.00    +0.000 N 
ATOM     23  C   UNL     1      49.158   4.366  17.936  0.00  0.00    +0.000 A 
ATOM     24  O   UNL     1      49.496   3.799  16.902  0.00  0.00    +0.000 OA
ATOM     25  C   UNL     1      48.787   5.766  18.013  0.00  0.00    +0.000 A 
ATOM     30  H   UNL     1      49.345   2.711  19.104  0.00  0.00    +0.000 HD
ENDBRANCH  14  16
ENDBRANCH  12  13
TORSDOF 9
ENDMDL
MODEL 3
REMARK VINA RESULT:    -6.773      2.190      2.811
REMARK INTER + INTRA:         -11.466
REMARK INTER:                 -10.602
REMARK INTRA:                  -0.864
REMARK UNBOUND:                -1.129
REMARK  Name = 
REMARK  10 active torsions:
REMARK  status: ('A' for Active; 'I' for Inactive)
REMARK    1  A    between atoms: C_1  and  C_2
REMARK    2  A    between atoms: C_2  and  C_3
REMARK    3  A    between atoms: C_3  and  C_4
REMARK    4  A    between atoms: C_4  and  C_5
REMARK    5  A    between atoms: C_5  and  N_6
REMARK    6  A    between atoms: N_6  and  C_7
REMARK    7  A    between atoms: C_7  and  C_8
REMARK    8  A    between atoms: C_11  and  C_12
REMARK    9  A    between atoms: C_12  and  N_13
REMARK   10  A    between atoms: C_14  and  C_16
REMARK                            x       y       z     vdW  Elec       q    Type
REMARK                         _______ _______ _______ _____ _____    ______ ____
ROOT
ATOM     12  C   UNL     1      48.100   6.559  13.681  0.00  0.00    +0.000 C 
ENDROOT
BRANCH  12  11
ATOM      8  C   UNL     1      44.663   5.259  11.392  0.00  0.00    +0.000 A 
ATOM      9  C   UNL     1      45.034   4.588  12.567  0.00  0.00    +0.000 A 
ATOM     10  C   UNL     1      46.139   5.010  13.311  0.00  0.00    +0.000 A 
ATOM     11  C   UNL     1      46.902   6.106  12.893  0.00  0.00    +0.000 A 
ATOM     26  C   UNL     1      46.558   6.750  11.696  0.00  0.00    +0.000 A 
ATOM     27  C   UNL     1      45.447   6.337  10.959  0.00  0.00    +0.000 A 
BRANCH   8   7
ATOM      7  C   UNL     1      43.458   4.816  10.591  0.00  0.00    +0.000 C 
BRANCH   7   6
ATOM      6  N   UNL     1      43.829   4.460   9.221  0.00  0.00    +0.000 NA
ATOM     28  H   UNL     1      42.990   4.404   8.649  0.00  0.00    +0.000 HD
BRANCH   6   5
ATOM      5  C   UNL     1      44.540   3.185   9.174  0.00  0.00    +0.000 C 
BRANCH   5   4
ATOM      4  C   UNL     1      45.629   3.252   8.102  0.00  0.00    +0.000 C 
BRANCH   4   3
ATOM      3  C   UNL     1      46.343   1.906   7.956  0.00  0.00    +0.000 C 
BRANCH   3   2
ATOM      1  C   UNL     1      46.972   2.775   5.680  0.00  0.00    +0.000 C 
ATOM      2  C   UNL     1      47.429   1.966   6.884  0.00  0.00    +0.000 C 
ENDBRANCH   3   2
ENDBRANCH   4   3
ENDBRANCH   5   4
ENDBRANCH   6   5
ENDBRANCH   7   6
ENDBRANCH   8   7
ENDBRANCH  12  11
BRANCH  12  13
ATOM     13  N   UNL     1      47.959   6.216  15.073  0.00  0.00    +0.000 N 
ATOM     14  C   UNL     1      49.032   6.239  15.923  0.00  0.00    +0.000 C 
ATOM     15  O   UNL     1      50.150   6.589  15.551  0.00  0.00    +0.000 OA
ATOM     29  H   UNL     1      47.114   5.722  15.340  0.00  0.00    +0.000 HD
BRANCH  14  16
ATOM     16  C   UNL     1      48.769   5.881  17.322  0.00  0.00    +0.000 A 
ATOM     17  C   UNL     1      48.940   4.566  17.735  0.00  0.00    +0.000 A 
ATOM     18  S   UNL     1      48.650   4.327  19.398  0.00  0.00    +0.000 S 
ATOM     19  C   UNL     1      48.237   5.962  19.617  0.00  0.00    +0.000 A 
ATOM     20  N   UNL     1      47.860   6.430  20.838  0.00  0.00    +0.000 NA
ATOM     21  C   UNL     1      47.546   7.682  20.856  0.00  0.00    +0.000 A 
ATOM     22  N   UNL     1      47.579   8.510  19.766  0.00  0.00    +0.000 N 
ATOM     23  C   UNL     1      47.977   8.088  18.519  0.00  0.00    +0.000 A 
ATOM     24  O   UNL     1      48.027   8.866  17.572  0.00  0.00    +0.000 OA
ATOM     25  C   UNL     1      48.332   6.684  18.440  0.00  0.00    +0.000 A 
ATOM     30  H   UNL     1      47.328   9.485  19.848  0.00  0.00    +0.000 HD
ENDBRANCH  14  16
ENDBRANCH  12  13
TORSDOF 9
ENDMDL
MODEL 4
REMARK VINA RESULT:    -6.500      3.203      8.381
REMARK INTER + INTRA:         -11.049
REMARK INTER:                  -8.927
REMARK INTRA:                  -2.122
REMARK UNBOUND:                -1.129
REMARK  Name = 
REMARK  10 active torsions:
REMARK  status: ('A' for Active; 'I' for Inactive)
REMARK    1  A    between atoms: C_1  and  C_2
REMARK    2  A    between atoms: C_2  and  C_3
REMARK    3  A    between atoms: C_3  and  C_4
REMARK    4  A    between atoms: C_4  and  C_5
REMARK    5  A    between atoms: C_5  and  N_6
REMARK    6  A    between atoms: N_6  and  C_7
REMARK    7  A    between atoms: C_7  and  C_8
REMARK    8  A    between atoms: C_11  and  C_12
REMARK    9  A    between atoms: C_12  and  N_13
REMARK   10  A    between atoms: C_14  and  C_16
REMARK                            x       y       z     vdW  Elec       q    Type
REMARK                         _______ _______ _______ _____ _____    ______ ____
ROOT
ATOM     12  C   UNL     1      48.443   6.997  14.392  0.00  0.00    +0.000 C 
ENDROOT
BRANCH  12  11
ATOM      8  C   UNL     1      49.395   4.833  18.019  0.00  0.00    +0.000 A 
ATOM      9  C   UNL     1      48.235   4.530  17.289  0.00  0.00    +0.000 A 
ATOM     10  C   UNL     1      47.929   5.222  16.115  0.00  0.00    +0.000 A 
ATOM     11  C   UNL     1      48.772   6.238  15.648  0.00  0.00    +0.000 A 
ATOM     26  C   UNL     1      49.906   6.571  16.399  0.00  0.00    +0.000 A 
ATOM     27  C   UNL     1      50.220   5.872  17.566  0.00  0.00    +0.000 A 
BRANCH   8   7
ATOM      7  C   UNL     1      49.738   4.076  19.283  0.00  0.00    +0.000 C 
BRANCH   7   6
ATOM      6  N   UNL     1      48.566   3.917  20.145  0.00  0.00    +0.000 NA
ATOM     28  H   UNL     1      47.725   3.920  19.573  0.00  0.00    +0.000 HD
BRANCH   6   5
ATOM      5  C   UNL     1      48.487   4.986  21.138  0.00  0.00    +0.000 C 
BRANCH   5   4
ATOM      4  C   UNL     1      47.396   5.977  20.727  0.00  0.00    +0.000 C 
BRANCH   4   3
ATOM      3  C   UNL     1      48.002   7.312  20.290  0.00  0.00    +0.000 C 
BRANCH   3   2
ATOM      1  C   UNL     1      48.055   9.069  18.489  0.00  0.00    +0.000 C 
ATOM      2  C   UNL     1      47.346   7.829  19.010  0.00  0.00    +0.000 C 
ENDBRANCH   3   2
ENDBRANCH   4   3
ENDBRANCH   5   4
ENDBRANCH   6   5
ENDBRANCH   7   6
ENDBRANCH   8   7
ENDBRANCH  12  11
BRANCH  12  13
ATOM     13  N   UNL     1      47.174   6.575  13.855  0.00  0.00    +0.000 N 
ATOM     14  C   UNL     1      46.877   6.732  12.527  0.00  0.00    +0.000 C 
ATOM     15  O   UNL     1      47.687   7.201  11.729  0.00  0.00    +0.000 OA
ATOM     29  H   UNL     1      46.430   6.398  14.521  0.00  0.00    +0.000 HD
BRANCH  14  16
ATOM     16  C   UNL     1      45.559   6.258  12.089  0.00  0.00    +0.000 A 
ATOM     17  C   UNL     1      44.648   7.162  11.562  0.00  0.00    +0.000 A 
ATOM     18  S   UNL     1      43.189   6.444  11.047  0.00  0.00    +0.000 S 
ATOM     19  C   UNL     1      43.703   4.906  11.557  0.00  0.00    +0.000 A 
ATOM     20  N   UNL     1      42.897   3.818  11.420  0.00  0.00    +0.000 NA
ATOM     21  C   UNL     1      43.400   2.719  11.873  0.00  0.00    +0.000 A 
ATOM     22  N   UNL     1      44.638   2.607  12.447  0.00  0.00    +0.000 N 
ATOM     23  C   UNL     1      45.497   3.673  12.585  0.00  0.00    +0.000 A 
ATOM     24  O   UNL     1      46.613   3.530  13.073  0.00  0.00    +0.000 OA
ATOM     25  C   UNL     1      44.977   4.936  12.099  0.00  0.00    +0.000 A 
ATOM     30  H   UNL     1      44.979   1.715  12.777  0.00  0.00    +0.000 HD
ENDBRANCH  14  16
ENDBRANCH  12  13
TORSDOF 9
ENDMDL
MODEL 5
REMARK VINA RESULT:    -6.462      4.120      8.661
REMARK INTER + INTRA:         -10.990
REMARK INTER:                  -9.946
REMARK INTRA:                  -1.044
REMARK UNBOUND:                -1.129
REMARK  Name = 
REMARK  10 active torsions:
REMARK  status: ('A' for Active; 'I' for Inactive)
REMARK    1  A    between atoms: C_1  and  C_2
REMARK    2  A    between atoms: C_2  and  C_3
REMARK    3  A    between atoms: C_3  and  C_4
REMARK    4  A    between atoms: C_4  and  C_5
REMARK    5  A    between atoms: C_5  and  N_6
REMARK    6  A    between atoms: N_6  and  C_7
REMARK    7  A    between atoms: C_7  and  C_8
REMARK    8  A    between atoms: C_11  and  C_12
REMARK    9  A    between atoms: C_12  and  N_13
REMARK   10  A    between atoms: C_14  and  C_16
REMARK                            x       y       z     vdW  Elec       q    Type
REMARK                         _______ _______ _______ _____ _____    ______ ____
ROOT
ATOM     12  C   UNL     1      47.192   3.310  16.903  0.00  0.00    +0.000 C 
ENDROOT
BRANCH  12  11
ATOM      8  C   UNL     1      51.438   3.266  17.745  0.00  0.00    +0.000 A 
ATOM      9  C   UNL     1      50.803   2.132  17.216  0.00  0.00    +0.000 A 
ATOM     10  C   UNL     1      49.434   2.146  16.937  0.00  0.00    +0.000 A 
ATOM     11  C   UNL     1      48.669   3.291  17.188  0.00  0.00    +0.000 A 
ATOM     26  C   UNL     1      49.293   4.408  17.757  0.00  0.00    +0.000 A 
ATOM     27  C   UNL     1      50.664   4.400  18.024  0.00  0.00    +0.000 A 
BRANCH   8   7
ATOM      7  C   UNL     1      52.923   3.261  18.034  0.00  0.00    +0.000 C 
BRANCH   7   6
ATOM      6  N   UNL     1      53.272   2.234  19.018  0.00  0.00    +0.000 NA
ATOM     28  H   UNL     1      53.326   2.659  19.942  0.00  0.00    +0.000 HD
BRANCH   6   5
ATOM      5  C   UNL     1      54.546   1.598  18.696  0.00  0.00    +0.000 C 
BRANCH   5   4
ATOM      4  C   UNL     1      55.053   2.132  17.355  0.00  0.00    +0.000 C 
BRANCH   4   3
ATOM      3  C   UNL     1      55.372   0.988  16.391  0.00  0.00    +0.000 C 
BRANCH   3   2
ATOM      1  C   UNL     1      55.089  -1.508  16.534  0.00  0.00    +0.000 C 
ATOM      2  C   UNL     1      54.380  -0.163  16.546  0.00  0.00    +0.000 C 
ENDBRANCH   3   2
ENDBRANCH   4   3
ENDBRANCH   5   4
ENDBRANCH   6   5
ENDBRANCH   7   6
ENDBRANCH   8   7
ENDBRANCH  12  11
BRANCH  12  13
ATOM     13  N   UNL     1      46.866   4.342  15.951  0.00  0.00    +0.000 N 
ATOM     14  C   UNL     1      46.958   4.120  14.603  0.00  0.00    +0.000 C 
ATOM     15  O   UNL     1      47.284   3.027  14.143  0.00  0.00    +0.000 OA
ATOM     29  H   UNL     1      46.814   5.291  16.304  0.00  0.00    +0.000 HD
BRANCH  14  16
ATOM     16  C   UNL     1      46.593   5.240  13.728  0.00  0.00    +0.000 A 
ATOM     17  C   UNL     1      47.491   6.280  13.536  0.00  0.00    +0.000 A 
ATOM     18  S   UNL     1      46.939   7.471  12.447  0.00  0.00    +0.000 S 
ATOM     19  C   UNL     1      45.458   6.665  12.231  0.00  0.00    +0.000 A 
ATOM     20  N   UNL     1      44.496   7.176  11.416  0.00  0.00    +0.000 NA
ATOM     21  C   UNL     1      43.411   6.478  11.365  0.00  0.00    +0.000 A 
ATOM     22  N   UNL     1      43.202   5.312  12.052  0.00  0.00    +0.000 N 
ATOM     23  C   UNL     1      44.153   4.745  12.868  0.00  0.00    +0.000 A 
ATOM     24  O   UNL     1      43.945   3.681  13.442  0.00  0.00    +0.000 OA
ATOM     25  C   UNL     1      45.390   5.495  12.968  0.00  0.00    +0.000 A 
ATOM     30  H   UNL     1      42.332   4.807  11.965  0.00  0.00    +0.000 HD
ENDBRANCH  14  16
ENDBRANCH  12  13
TORSDOF 9
ENDMDL
MODEL 6
REMARK VINA RESULT:    -6.374      2.458      3.634
REMARK INTER + INTRA:         -10.857
REMARK INTER:                  -9.943
REMARK INTRA:                  -0.913
REMARK UNBOUND:                -1.129
REMARK  Name = 
REMARK  10 active torsions:
REMARK  status: ('A' for Active; 'I' for Inactive)
REMARK    1  A    between atoms: C_1  and  C_2
REMARK    2  A    between atoms: C_2  and  C_3
REMARK    3  A    between atoms: C_3  and  C_4
REMARK    4  A    between atoms: C_4  and  C_5
REMARK    5  A    between atoms: C_5  and  N_6
REMARK    6  A    between atoms: N_6  and  C_7
REMARK    7  A    between atoms: C_7  and  C_8
REMARK    8  A    between atoms: C_11  and  C_12
REMARK    9  A    between atoms: C_12  and  N_13
REMARK   10  A    between atoms: C_14  and  C_16
REMARK                            x       y       z     vdW  Elec       q    Type
REMARK                         _______ _______ _______ _____ _____    ______ ____
ROOT
ATOM     12  C   UNL     1      47.514   4.124  15.267  0.00  0.00    +0.000 C 
ENDROOT
BRANCH  12  11
ATOM      8  C   UNL     1      45.658   5.371  11.560  0.00  0.00    +0.000 A 
ATOM      9  C   UNL     1      46.553   6.219  12.232  0.00  0.00    +0.000 A 
ATOM     10  C   UNL     1      47.159   5.815  13.425  0.00  0.00    +0.000 A 
ATOM     11  C   UNL     1      46.877   4.561  13.976  0.00  0.00    +0.000 A 
ATOM     26  C   UNL     1      45.949   3.733  13.330  0.00  0.00    +0.000 A 
ATOM     27  C   UNL     1      45.354   4.129  12.131  0.00  0.00    +0.000 A 
BRANCH   8   7
ATOM      7  C   UNL     1      45.012   5.798  10.260  0.00  0.00    +0.000 C 
BRANCH   7   6
ATOM      6  N   UNL     1      45.706   5.224   9.106  0.00  0.00    +0.000 NA
ATOM     28  H   UNL     1      45.846   5.947   8.404  0.00  0.00    +0.000 HD
BRANCH   6   5
ATOM      5  C   UNL     1      44.950   4.117   8.525  0.00  0.00    +0.000 C 
BRANCH   5   4
ATOM      4  C   UNL     1      45.857   3.328   7.578  0.00  0.00    +0.000 C 
BRANCH   4   3
ATOM      3  C   UNL     1      46.149   1.932   8.131  0.00  0.00    +0.000 C 
BRANCH   3   2
ATOM      1  C   UNL     1      47.976   2.185   6.420  0.00  0.00    +0.000 C 
ATOM      2  C   UNL     1      47.199   1.209   7.290  0.00  0.00    +0.000 C 
ENDBRANCH   3   2
ENDBRANCH   4   3
ENDBRANCH   5   4
ENDBRANCH   6   5
ENDBRANCH   7   6
ENDBRANCH   8   7
ENDBRANCH  12  11
BRANCH  12  13
ATOM     13  N   UNL     1      47.491   5.190  16.237  0.00  0.00    +0.000 N 
ATOM     14  C   UNL     1      48.628   5.577  16.895  0.00  0.00    +0.000 C 
ATOM     15  O   UNL     1      49.721   5.064  16.663  0.00  0.00    +0.000 OA
ATOM     29  H   UNL     1      46.582   5.466  16.595  0.00  0.00    +0.000 HD
BRANCH  14  16
ATOM     16  C   UNL     1      48.488   6.679  17.853  0.00  0.00    +0.000 A 
ATOM     17  C   UNL     1      48.487   6.406  19.214  0.00  0.00    +0.000 A 
ATOM     18  S   UNL     1      48.375   7.798  20.193  0.00  0.00    +0.000 S 
ATOM     19  C   UNL     1      48.275   8.813  18.833  0.00  0.00    +0.000 A 
ATOM     20  N   UNL     1      48.141  10.160  18.974  0.00  0.00    +0.000 NA
ATOM     21  C   UNL     1      48.048  10.807  17.860  0.00  0.00    +0.000 A 
ATOM     22  N   UNL     1      48.081  10.231  16.619  0.00  0.00    +0.000 N 
ATOM     23  C   UNL     1      48.240   8.878  16.427  0.00  0.00    +0.000 A 
ATOM     24  O   UNL     1      48.300   8.400  15.298  0.00  0.00    +0.000 OA
ATOM     25  C   UNL     1      48.340   8.102  17.647  0.00  0.00    +0.000 A 
ATOM     30  H   UNL     1      48.011  10.794  15.783  0.00  0.00    +0.000 HD
ENDBRANCH  14  16
ENDBRANCH  12  13
TORSDOF 9
ENDMDL
MODEL 7
REMARK VINA RESULT:    -6.324      3.513      8.763
REMARK INTER + INTRA:         -10.780
REMARK INTER:                  -9.266
REMARK INTRA:                  -1.514
REMARK UNBOUND:                -1.129
REMARK  Name = 
REMARK  10 active torsions:
REMARK  status: ('A' for Active; 'I' for Inactive)
REMARK    1  A    between atoms: C_1  and  C_2
REMARK    2  A    between atoms: C_2  and  C_3
REMARK    3  A    between atoms: C_3  and  C_4
REMARK    4  A    between atoms: C_4  and  C_5
REMARK    5  A    between atoms: C_5  and  N_6
REMARK    6  A    between atoms: N_6  and  C_7
REMARK    7  A    between atoms: C_7  and  C_8
REMARK    8  A    between atoms: C_11  and  C_12
REMARK    9  A    between atoms: C_12  and  N_13
REMARK   10  A    between atoms: C_14  and  C_16
REMARK                            x       y       z     vdW  Elec       q    Type
REMARK                         _______ _______ _______ _____ _____    ______ ____
ROOT
ATOM     12  C   UNL     1      47.464   3.559  16.534  0.00  0.00    +0.000 C 
ENDROOT
BRANCH  12  11
ATOM      8  C   UNL     1      50.203   5.559  19.225  0.00  0.00    +0.000 A 
ATOM      9  C   UNL     1      49.314   4.583  19.704  0.00  0.00    +0.000 A 
ATOM     10  C   UNL     1      48.435   3.932  18.836  0.00  0.00    +0.000 A 
ATOM     11  C   UNL     1      48.417   4.246  17.473  0.00  0.00    +0.000 A 
ATOM     26  C   UNL     1      49.272   5.251  17.002  0.00  0.00    +0.000 A 
ATOM     27  C   UNL     1      50.161   5.894  17.865  0.00  0.00    +0.000 A 
BRANCH   8   7
ATOM      7  C   UNL     1      51.168   6.256  20.159  0.00  0.00    +0.000 C 
BRANCH   7   6
ATOM      6  N   UNL     1      52.547   5.829  19.917  0.00  0.00    +0.000 NA
ATOM     28  H   UNL     1      52.805   6.052  18.959  0.00  0.00    +0.000 HD
BRANCH   6   5
ATOM      5  C   UNL     1      52.709   4.397  20.148  0.00  0.00    +0.000 C 
BRANCH   5   4
ATOM      4  C   UNL     1      53.733   3.837  19.158  0.00  0.00    +0.000 C 
BRANCH   4   3
ATOM      3  C   UNL     1      53.229   2.544  18.515  0.00  0.00    +0.000 C 
BRANCH   3   2
ATOM      1  C   UNL     1      51.270   1.463  17.365  0.00  0.00    +0.000 C 
ATOM      2  C   UNL     1      51.935   2.779  17.736  0.00  0.00    +0.000 C 
ENDBRANCH   3   2
ENDBRANCH   4   3
ENDBRANCH   5   4
ENDBRANCH   6   5
ENDBRANCH   7   6
ENDBRANCH   8   7
ENDBRANCH  12  11
BRANCH  12  13
ATOM     13  N   UNL     1      46.861   4.506  15.630  0.00  0.00    +0.000 N 
ATOM     14  C   UNL     1      46.772   4.249  14.288  0.00  0.00    +0.000 C 
ATOM     15  O   UNL     1      47.162   3.190  13.800  0.00  0.00    +0.000 OA
ATOM     29  H   UNL     1      46.740   5.453  15.972  0.00  0.00    +0.000 HD
BRANCH  14  16
ATOM     16  C   UNL     1      46.130   5.280  13.464  0.00  0.00    +0.000 A 
ATOM     17  C   UNL     1      46.797   6.474  13.221  0.00  0.00    +0.000 A 
ATOM     18  S   UNL     1      45.943   7.540  12.201  0.00  0.00    +0.000 S 
ATOM     19  C   UNL     1      44.629   6.466  12.087  0.00  0.00    +0.000 A 
ATOM     20  N   UNL     1      43.525   6.787  11.359  0.00  0.00    +0.000 NA
ATOM     21  C   UNL     1      42.592   5.895  11.382  0.00  0.00    +0.000 A 
ATOM     22  N   UNL     1      42.665   4.709  12.062  0.00  0.00    +0.000 N 
ATOM     23  C   UNL     1      43.769   4.331  12.790  0.00  0.00    +0.000 A 
ATOM     24  O   UNL     1      43.813   3.245  13.360  0.00  0.00    +0.000 OA
ATOM     25  C   UNL     1      44.844   5.303  12.806  0.00  0.00    +0.000 A 
ATOM     30  H   UNL     1      41.902   4.047  12.034  0.00  0.00    +0.000 HD
ENDBRANCH  14  16
ENDBRANCH  12  13
TORSDOF 9
ENDMDL
MODEL 8
REMARK VINA RESULT:    -6.321      1.765      2.145
REMARK INTER + INTRA:         -10.775
REMARK INTER:                  -9.762
REMARK INTRA:                  -1.013
REMARK UNBOUND:                -1.129
REMARK  Name = 
REMARK  10 active torsions:
REMARK  status: ('A' for Active; 'I' for Inactive)
REMARK    1  A    between atoms: C_1  and  C_2
REMARK    2  A    between atoms: C_2  and  C_3
REMARK    3  A    between atoms: C_3  and  C_4
REMARK    4  A    between atoms: C_4  and  C_5
REMARK    5  A    between atoms: C_5  and  N_6
REMARK    6  A    between atoms: N_6  and  C_7
REMARK    7  A    between atoms: C_7  and  C_8
REMARK    8  A    between atoms: C_11  and  C_12
REMARK    9  A    between atoms: C_12  and  N_13
REMARK   10  A    between atoms: C_14  and  C_16
REMARK                            x       y       z     vdW  Elec       q    Type
REMARK                         _______ _______ _______ _____ _____    ______ ____
ROOT
ATOM     12  C   UNL     1      47.730   7.597  13.355  0.00  0.00    +0.000 C 
ENDROOT
BRANCH  12  11
ATOM      8  C   UNL     1      45.120   4.501  11.824  0.00  0.00    +0.000 A 
ATOM      9  C   UNL     1      45.578   4.459  13.150  0.00  0.00    +0.000 A 
ATOM     10  C   UNL     1      46.415   5.461  13.649  0.00  0.00    +0.000 A 
ATOM     11  C   UNL     1      46.819   6.522  12.831  0.00  0.00    +0.000 A 
ATOM     26  C   UNL     1      46.398   6.541  11.494  0.00  0.00    +0.000 A 
ATOM     27  C   UNL     1      45.552   5.548  10.998  0.00  0.00    +0.000 A 
BRANCH   8   7
ATOM      7  C   UNL     1      44.202   3.426  11.285  0.00  0.00    +0.000 C 
BRANCH   7   6
ATOM      6  N   UNL     1      44.941   2.436  10.500  0.00  0.00    +0.000 NA
ATOM     28  H   UNL     1      45.940   2.587  10.623  0.00  0.00    +0.000 HD
BRANCH   6   5
ATOM      5  C   UNL     1      44.604   2.520   9.082  0.00  0.00    +0.000 C 
BRANCH   5   4
ATOM      4  C   UNL     1      45.844   2.191   8.247  0.00  0.00    +0.000 C 
BRANCH   4   3
ATOM      3  C   UNL     1      46.304   3.408   7.442  0.00  0.00    +0.000 C 
BRANCH   3   2
ATOM      1  C   UNL     1      48.004   2.180   6.052  0.00  0.00    +0.000 C 
ATOM      2  C   UNL     1      46.731   3.011   6.030  0.00  0.00    +0.000 C 
ENDBRANCH   3   2
ENDBRANCH   4   3
ENDBRANCH   5   4
ENDBRANCH   6   5
ENDBRANCH   7   6
ENDBRANCH   8   7
ENDBRANCH  12  11
BRANCH  12  13
ATOM     13  N   UNL     1      48.827   7.025  14.095  0.00  0.00    +0.000 N 
ATOM     14  C   UNL     1      49.449   7.722  15.096  0.00  0.00    +0.000 C 
ATOM     15  O   UNL     1      49.079   8.845  15.435  0.00  0.00    +0.000 OA
ATOM     29  H   UNL     1      49.278   6.212  13.690  0.00  0.00    +0.000 HD
BRANCH  14  16
ATOM     16  C   UNL     1      50.547   7.037  15.787  0.00  0.00    +0.000 A 
ATOM     17  C   UNL     1      51.852   7.468  15.592  0.00  0.00    +0.000 A 
ATOM     18  S   UNL     1      53.003   6.607  16.510  0.00  0.00    +0.000 S 
ATOM     19  C   UNL     1      51.804   5.594  17.164  0.00  0.00    +0.000 A 
ATOM     20  N   UNL     1      52.128   4.598  18.033  0.00  0.00    +0.000 NA
ATOM     21  C   UNL     1      51.125   3.887  18.429  0.00  0.00    +0.000 A 
ATOM     22  N   UNL     1      49.828   4.085  18.039  0.00  0.00    +0.000 N 
ATOM     23  C   UNL     1      49.449   5.093  17.183  0.00  0.00    +0.000 A 
ATOM     24  O   UNL     1      48.272   5.262  16.881  0.00  0.00    +0.000 OA
ATOM     25  C   UNL     1      50.540   5.917  16.700  0.00  0.00    +0.000 A 
ATOM     30  H   UNL     1      49.085   3.498  18.391  0.00  0.00    +0.000 HD
ENDBRANCH  14  16
ENDBRANCH  12  13
TORSDOF 9
ENDMDL
MODEL 9
REMARK VINA RESULT:    -6.307      3.490      8.664
REMARK INTER + INTRA:         -10.754
REMARK INTER:                  -8.666
REMARK INTRA:                  -2.088
REMARK UNBOUND:                -1.129
REMARK  Name = 
REMARK  10 active torsions:
REMARK  status: ('A' for Active; 'I' for Inactive)
REMARK    1  A    between atoms: C_1  and  C_2
REMARK    2  A    between atoms: C_2  and  C_3
REMARK    3  A    between atoms: C_3  and  C_4
REMARK    4  A    between atoms: C_4  and  C_5
REMARK    5  A    between atoms: C_5  and  N_6
REMARK    6  A    between atoms: N_6  and  C_7
REMARK    7  A    between atoms: C_7  and  C_8
REMARK    8  A    between atoms: C_11  and  C_12
REMARK    9  A    between atoms: C_12  and  N_13
REMARK   10  A    between atoms: C_14  and  C_16
REMARK                            x       y       z     vdW  Elec       q    Type
REMARK                         _______ _______ _______ _____ _____    ______ ____
ROOT
ATOM     12  C   UNL     1      47.499   3.545  16.498  0.00  0.00    +0.000 C 
ENDROOT
BRANCH  12  11
ATOM      8  C   UNL     1      49.255   5.549  19.911  0.00  0.00    +0.000 A 
ATOM      9  C   UNL     1      47.924   5.801  19.540  0.00  0.00    +0.000 A 
ATOM     10  C   UNL     1      47.354   5.150  18.444  0.00  0.00    +0.000 A 
ATOM     11  C   UNL     1      48.102   4.240  17.688  0.00  0.00    +0.000 A 
ATOM     26  C   UNL     1      49.443   4.022  18.030  0.00  0.00    +0.000 A 
ATOM     27  C   UNL     1      50.011   4.661  19.133  0.00  0.00    +0.000 A 
BRANCH   8   7
ATOM      7  C   UNL     1      49.872   6.240  21.106  0.00  0.00    +0.000 C 
BRANCH   7   6
ATOM      6  N   UNL     1      49.923   7.691  20.918  0.00  0.00    +0.000 NA
ATOM     28  H   UNL     1      49.079   7.997  20.439  0.00  0.00    +0.000 HD
BRANCH   6   5
ATOM      5  C   UNL     1      51.097   8.087  20.145  0.00  0.00    +0.000 C 
BRANCH   5   4
ATOM      4  C   UNL     1      50.646   8.839  18.891  0.00  0.00    +0.000 C 
BRANCH   4   3
ATOM      3  C   UNL     1      50.815   7.975  17.640  0.00  0.00    +0.000 C 
BRANCH   3   2
ATOM      1  C   UNL     1      49.671   6.999  15.622  0.00  0.00    +0.000 C 
ATOM      2  C   UNL     1      49.486   7.791  16.908  0.00  0.00    +0.000 C 
ENDBRANCH   3   2
ENDBRANCH   4   3
ENDBRANCH   5   4
ENDBRANCH   6   5
ENDBRANCH   7   6
ENDBRANCH   8   7
ENDBRANCH  12  11
BRANCH  12  13
ATOM     13  N   UNL     1      46.904   4.498  15.595  0.00  0.00    +0.000 N 
ATOM     14  C   UNL     1      46.801   4.237  14.254  0.00  0.00    +0.000 C 
ATOM     15  O   UNL     1      47.172   3.171  13.767  0.00  0.00    +0.000 OA
ATOM     29  H   UNL     1      46.799   5.448  15.934  0.00  0.00    +0.000 HD
BRANCH  14  16
ATOM     16  C   UNL     1      46.169   5.275  13.431  0.00  0.00    +0.000 A 
ATOM     17  C   UNL     1      46.848   6.460  13.185  0.00  0.00    +0.000 A 
ATOM     18  S   UNL     1      46.004   7.535  12.165  0.00  0.00    +0.000 S 
ATOM     19  C   UNL     1      44.678   6.476  12.057  0.00  0.00    +0.000 A 
ATOM     20  N   UNL     1      43.575   6.809  11.331  0.00  0.00    +0.000 NA
ATOM     21  C   UNL     1      42.632   5.927  11.358  0.00  0.00    +0.000 A 
ATOM     22  N   UNL     1      42.693   4.741  12.039  0.00  0.00    +0.000 N 
ATOM     23  C   UNL     1      43.795   4.352  12.765  0.00  0.00    +0.000 A 
ATOM     24  O   UNL     1      43.828   3.266  13.335  0.00  0.00    +0.000 OA
ATOM     25  C   UNL     1      44.882   5.312  12.776  0.00  0.00    +0.000 A 
ATOM     30  H   UNL     1      41.923   4.088  12.014  0.00  0.00    +0.000 HD
ENDBRANCH  14  16
ENDBRANCH  12  13
TORSDOF 9
ENDMDL
