MODEL 1
REMARK VINA RESULT:    -6.340      0.000      0.000
REMARK INTER + INTRA:          -8.625
REMARK INTER:                  -8.193
REMARK INTRA:                  -0.432
REMARK UNBOUND:                -0.432
REMARK  Name = 
REMARK  6 active torsions:
REMARK  status: ('A' for Active; 'I' for Inactive)
REMARK    1  A    between atoms: C_1  and  N_2
REMARK    2  A    between atoms: N_2  and  C_21
REMARK    3  A    between atoms: C_3  and  C_5
REMARK    4  A    between atoms: C_5  and  N_6
REMARK    5  A    between atoms: C_7  and  C_8
REMARK    6  A    between atoms: C_14  and  C_15
REMARK                            x       y       z     vdW  Elec       q    Type
REMARK                         _______ _______ _______ _____ _____    ______ ____
ROOT
ATOM      6  N   UNL     1      48.335   7.104  13.902  0.00  0.00    +0.000 N 
ATOM      7  C   UNL     1      48.126   8.108  12.973  0.00  0.00    +0.000 A 
ATOM     11  C   UNL     1      47.019   7.768  12.224  0.00  0.00    +0.000 A 
ATOM     12  C   UNL     1      46.650   6.460  12.573  0.00  0.00    +0.000 A 
ATOM     13  C   UNL     1      45.704   5.563  12.070  0.00  0.00    +0.000 A 
ATOM     14  C   UNL     1      45.663   4.289  12.621  0.00  0.00    +0.000 A 
ATOM     18  C   UNL     1      46.552   3.988  13.655  0.00  0.00    +0.000 A 
ATOM     19  N   UNL     1      47.480   4.833  14.195  0.00  0.00    +0.000 NA
ATOM     20  C   UNL     1      47.482   6.052  13.609  0.00  0.00    +0.000 A 
ENDROOT
BRANCH  14  15
ATOM     15  C   UNL     1      44.730   3.249  12.135  0.00  0.00    +0.000 C 
ATOM     16  N   UNL     1      44.920   2.736  10.880  0.00  0.00    +0.000 N 
ATOM     17  O   UNL     1      43.810   2.846  12.832  0.00  0.00    +0.000 OA
ATOM     27  H   UNL     1      45.656   2.999  10.239  0.00  0.00    +0.000 HD
ATOM     28  H   UNL     1      44.271   2.025  10.568  0.00  0.00    +0.000 HD
ENDBRANCH  14  15
BRANCH   7   8
ATOM      8  C   UNL     1      48.945   9.373  12.723  0.00  0.00    +0.000 C 
ATOM      9  C   UNL     1      48.887  10.034  11.357  0.00  0.00    +0.000 C 
ATOM     10  C   UNL     1      50.094   9.246  11.728  0.00  0.00    +0.000 C 
ENDBRANCH   7   8
BRANCH   6   5
ATOM      5  C   UNL     1      49.381   7.016  14.918  0.00  0.00    +0.000 C 
BRANCH   5   3
ATOM      1  C   UNL     1      48.592   7.897  18.551  0.00  0.00    +0.000 C 
ATOM      2  N   UNL     1      48.848   7.042  17.383  0.00  0.00    +0.000 N 
ATOM      3  C   UNL     1      49.128   7.778  16.202  0.00  0.00    +0.000 C 
ATOM      4  O   UNL     1      49.213   9.009  16.228  0.00  0.00    +0.000 OA
BRANCH   2  21
ATOM     21  C   UNL     1      48.284   5.642  17.454  0.00  0.00    +0.000 C 
ATOM     22  C   UNL     1      47.471   5.360  18.748  0.00  0.00    +0.000 C 
ATOM     23  C   UNL     1      48.387   5.236  19.973  0.00  0.00    +0.000 C 
ATOM     24  N   UNL     1      49.413   4.204  19.809  0.00  0.00    +0.000 NA
ATOM     25  C   UNL     1      50.182   4.407  18.583  0.00  0.00    +0.000 C 
ATOM     26  C   UNL     1      49.267   4.457  17.367  0.00  0.00    +0.000 C 
ATOM     29  H   UNL     1      48.969   3.287  19.781  0.00  0.00    +0.000 HD
ENDBRANCH   2  21
ENDBRANCH   5   3
ENDBRANCH   6   5
TORSDOF 5
ENDMDL
MODEL 2
REMARK VINA RESULT:    -5.920      1.911      2.515
REMARK INTER + INTRA:          -8.083
REMARK INTER:                  -7.914
REMARK INTRA:                  -0.169
REMARK UNBOUND:                -0.432
REMARK  Name = 
REMARK  6 active torsions:
REMARK  status: ('A' for Active; 'I' for Inactive)
REMARK    1  A    between atoms: C_1  and  N_2
REMARK    2  A    between atoms: N_2  and  C_21
REMARK    3  A    between atoms: C_3  and  C_5
REMARK    4  A    between atoms: C_5  and  N_6
REMARK    5  A    between atoms: C_7  and  C_8
REMARK    6  A    between atoms: C_14  and  C_15
REMARK                            x       y       z     vdW  Elec       q    Type
REMARK                         _______ _______ _______ _____ _____    ______ ____
ROOT
ATOM      6  N   UNL     1      47.569   5.421  14.583  0.00  0.00    +0.000 N 
ATOM      7  C   UNL     1      47.796   6.734  14.208  0.00  0.00    +0.000 A 
ATOM     11  C   UNL     1      46.960   7.023  13.150  0.00  0.00    +0.000 A 
ATOM     12  C   UNL     1      46.343   5.827  12.752  0.00  0.00    +0.000 A 
ATOM     13  C   UNL     1      45.512   5.486  11.681  0.00  0.00    +0.000 A 
ATOM     14  C   UNL     1      45.141   4.155  11.549  0.00  0.00    +0.000 A 
ATOM     18  C   UNL     1      45.601   3.243  12.501  0.00  0.00    +0.000 A 
ATOM     19  N   UNL     1      46.398   3.527  13.574  0.00  0.00    +0.000 NA
ATOM     20  C   UNL     1      46.737   4.835  13.642  0.00  0.00    +0.000 A 
ENDROOT
BRANCH  14  15
ATOM     15  C   UNL     1      44.298   3.678  10.430  0.00  0.00    +0.000 C 
ATOM     16  N   UNL     1      44.132   2.329  10.265  0.00  0.00    +0.000 N 
ATOM     17  O   UNL     1      43.753   4.463   9.667  0.00  0.00    +0.000 OA
ATOM     27  H   UNL     1      44.534   1.609  10.849  0.00  0.00    +0.000 HD
ATOM     28  H   UNL     1      43.552   2.025   9.495  0.00  0.00    +0.000 HD
ENDBRANCH  14  15
BRANCH   7   8
ATOM      8  C   UNL     1      48.797   7.737  14.777  0.00  0.00    +0.000 C 
ATOM      9  C   UNL     1      49.489   8.706  13.836  0.00  0.00    +0.000 C 
ATOM     10  C   UNL     1      50.253   7.543  14.364  0.00  0.00    +0.000 C 
ENDBRANCH   7   8
BRANCH   6   5
ATOM      5  C   UNL     1      48.208   4.664  15.656  0.00  0.00    +0.000 C 
BRANCH   5   3
ATOM      1  C   UNL     1      47.230   5.514  19.250  0.00  0.00    +0.000 C 
ATOM      2  N   UNL     1      47.970   5.606  17.983  0.00  0.00    +0.000 N 
ATOM      3  C   UNL     1      47.510   4.693  16.999  0.00  0.00    +0.000 C 
ATOM      4  O   UNL     1      46.532   3.971  17.213  0.00  0.00    +0.000 OA
BRANCH   2  21
ATOM     21  C   UNL     1      49.352   6.210  18.069  0.00  0.00    +0.000 C 
ATOM     22  C   UNL     1      50.466   5.309  17.465  0.00  0.00    +0.000 C 
ATOM     23  C   UNL     1      50.756   4.096  18.360  0.00  0.00    +0.000 C 
ATOM     24  N   UNL     1      51.124   4.476  19.725  0.00  0.00    +0.000 NA
ATOM     25  C   UNL     1      50.121   5.355  20.323  0.00  0.00    +0.000 C 
ATOM     26  C   UNL     1      49.896   6.590  19.461  0.00  0.00    +0.000 C 
ATOM     29  H   UNL     1      52.026   4.951  19.713  0.00  0.00    +0.000 HD
ENDBRANCH   2  21
ENDBRANCH   5   3
ENDBRANCH   6   5
TORSDOF 5
ENDMDL
MODEL 3
REMARK VINA RESULT:    -5.910      2.123      5.542
REMARK INTER + INTRA:          -8.069
REMARK INTER:                  -7.770
REMARK INTRA:                  -0.299
REMARK UNBOUND:                -0.432
REMARK  Name = 
REMARK  6 active torsions:
REMARK  status: ('A' for Active; 'I' for Inactive)
REMARK    1  A    between atoms: C_1  and  N_2
REMARK    2  A    between atoms: N_2  and  C_21
REMARK    3  A    between atoms: C_3  and  C_5
REMARK    4  A    between atoms: C_5  and  N_6
REMARK    5  A    between atoms: C_7  and  C_8
REMARK    6  A    between atoms: C_14  and  C_15
REMARK                            x       y       z     vdW  Elec       q    Type
REMARK                         _______ _______ _______ _____ _____    ______ ____
ROOT
ATOM      6  N   UNL     1      47.471   5.836  14.389  0.00  0.00    +0.000 N 
ATOM      7  C   UNL     1      47.569   4.726  15.210  0.00  0.00    +0.000 A 
ATOM     11  C   UNL     1      46.997   3.659  14.549  0.00  0.00    +0.000 A 
ATOM     12  C   UNL     1      46.381   4.153  13.389  0.00  0.00    +0.000 A 
ATOM     13  C   UNL     1      45.561   3.573  12.418  0.00  0.00    +0.000 A 
ATOM     14  C   UNL     1      45.053   4.400  11.424  0.00  0.00    +0.000 A 
ATOM     18  C   UNL     1      45.409   5.750  11.442  0.00  0.00    +0.000 A 
ATOM     19  N   UNL     1      46.220   6.360  12.355  0.00  0.00    +0.000 NA
ATOM     20  C   UNL     1      46.672   5.510  13.305  0.00  0.00    +0.000 A 
ENDROOT
BRANCH  14  15
ATOM     15  C   UNL     1      44.142   3.898  10.371  0.00  0.00    +0.000 C 
ATOM     16  N   UNL     1      44.128   4.538   9.160  0.00  0.00    +0.000 N 
ATOM     17  O   UNL     1      43.419   2.932  10.565  0.00  0.00    +0.000 OA
ATOM     27  H   UNL     1      44.696   5.334   8.907  0.00  0.00    +0.000 HD
ATOM     28  H   UNL     1      43.499   4.178   8.455  0.00  0.00    +0.000 HD
ENDBRANCH  14  15
BRANCH   7   8
ATOM      8  C   UNL     1      48.149   4.620  16.619  0.00  0.00    +0.000 C 
ATOM      9  C   UNL     1      47.728   3.463  17.507  0.00  0.00    +0.000 C 
ATOM     10  C   UNL     1      47.165   4.815  17.768  0.00  0.00    +0.000 C 
ENDBRANCH   7   8
BRANCH   6   5
ATOM      5  C   UNL     1      47.937   7.196  14.648  0.00  0.00    +0.000 C 
BRANCH   5   3
ATOM      1  C   UNL     1      51.587   8.005  13.861  0.00  0.00    +0.000 C 
ATOM      2  N   UNL     1      50.138   7.906  13.640  0.00  0.00    +0.000 N 
ATOM      3  C   UNL     1      49.436   7.377  14.755  0.00  0.00    +0.000 C 
ATOM      4  O   UNL     1      50.026   7.115  15.808  0.00  0.00    +0.000 OA
BRANCH   2  21
ATOM     21  C   UNL     1      49.691   7.861  12.198  0.00  0.00    +0.000 C 
ATOM     22  C   UNL     1      50.855   8.008  11.178  0.00  0.00    +0.000 C 
ATOM     23  C   UNL     1      51.395   9.444  11.142  0.00  0.00    +0.000 C 
ATOM     24  N   UNL     1      50.356  10.431  10.841  0.00  0.00    +0.000 NA
ATOM     25  C   UNL     1      49.221  10.308  11.754  0.00  0.00    +0.000 C 
ATOM     26  C   UNL     1      48.650   8.896  11.725  0.00  0.00    +0.000 C 
ATOM     29  H   UNL     1      50.034  10.301   9.882  0.00  0.00    +0.000 HD
ENDBRANCH   2  21
ENDBRANCH   5   3
ENDBRANCH   6   5
TORSDOF 5
ENDMDL
MODEL 4
REMARK VINA RESULT:    -5.825      2.091      4.966
REMARK INTER + INTRA:          -7.959
REMARK INTER:                  -7.828
REMARK INTRA:                  -0.132
REMARK UNBOUND:                -0.432
REMARK  Name = 
REMARK  6 active torsions:
REMARK  status: ('A' for Active; 'I' for Inactive)
REMARK    1  A    between atoms: C_1  and  N_2
REMARK    2  A    between atoms: N_2  and  C_21
REMARK    3  A    between atoms: C_3  and  C_5
REMARK    4  A    between atoms: C_5  and  N_6
REMARK    5  A    between atoms: C_7  and  C_8
REMARK    6  A    between atoms: C_14  and  C_15
REMARK                            x       y       z     vdW  Elec       q    Type
REMARK                         _______ _______ _______ _____ _____    ______ ____
ROOT
ATOM      6  N   UNL     1      46.917   5.252  14.189  0.00  0.00    +0.000 N 
ATOM      7  C   UNL     1      45.959   5.099  13.202  0.00  0.00    +0.000 A 
ATOM     11  C   UNL     1      46.410   5.741  12.068  0.00  0.00    +0.000 A 
ATOM     12  C   UNL     1      47.573   6.449  12.411  0.00  0.00    +0.000 A 
ATOM     13  C   UNL     1      48.379   7.360  11.723  0.00  0.00    +0.000 A 
ATOM     14  C   UNL     1      49.434   7.940  12.415  0.00  0.00    +0.000 A 
ATOM     18  C   UNL     1      49.638   7.565  13.745  0.00  0.00    +0.000 A 
ATOM     19  N   UNL     1      48.892   6.669  14.455  0.00  0.00    +0.000 NA
ATOM     20  C   UNL     1      47.872   6.148  13.735  0.00  0.00    +0.000 A 
ENDROOT
BRANCH  14  15
ATOM     15  C   UNL     1      50.324   8.947  11.796  0.00  0.00    +0.000 C 
ATOM     16  N   UNL     1      49.762  10.074  11.259  0.00  0.00    +0.000 N 
ATOM     17  O   UNL     1      51.536   8.789  11.764  0.00  0.00    +0.000 OA
ATOM     27  H   UNL     1      48.776  10.294  11.249  0.00  0.00    +0.000 HD
ATOM     28  H   UNL     1      50.388  10.750  10.842  0.00  0.00    +0.000 HD
ENDBRANCH  14  15
BRANCH   7   8
ATOM      8  C   UNL     1      44.603   4.400  13.279  0.00  0.00    +0.000 C 
ATOM      9  C   UNL     1      43.820   4.159  12.001  0.00  0.00    +0.000 C 
ATOM     10  C   UNL     1      43.387   5.247  12.919  0.00  0.00    +0.000 C 
ENDBRANCH   7   8
BRANCH   6   5
ATOM      5  C   UNL     1      46.894   4.746  15.558  0.00  0.00    +0.000 C 
BRANCH   5   3
ATOM      1  C   UNL     1      49.576   2.553  17.169  0.00  0.00    +0.000 C 
ATOM      2  N   UNL     1      48.685   3.709  17.001  0.00  0.00    +0.000 N 
ATOM      3  C   UNL     1      47.842   3.606  15.863  0.00  0.00    +0.000 C 
ATOM      4  O   UNL     1      47.845   2.588  15.164  0.00  0.00    +0.000 OA
BRANCH   2  21
ATOM     21  C   UNL     1      49.127   4.987  17.674  0.00  0.00    +0.000 C 
ATOM     22  C   UNL     1      49.819   4.763  19.048  0.00  0.00    +0.000 C 
ATOM     23  C   UNL     1      48.809   4.346  20.126  0.00  0.00    +0.000 C 
ATOM     24  N   UNL     1      47.718   5.310  20.281  0.00  0.00    +0.000 NA
ATOM     25  C   UNL     1      47.058   5.581  19.005  0.00  0.00    +0.000 C 
ATOM     26  C   UNL     1      48.061   6.063  17.965  0.00  0.00    +0.000 C 
ATOM     29  H   UNL     1      48.087   6.181  20.662  0.00  0.00    +0.000 HD
ENDBRANCH   2  21
ENDBRANCH   5   3
ENDBRANCH   6   5
TORSDOF 5
ENDMDL
MODEL 5
REMARK VINA RESULT:    -5.767      2.135      7.241
REMARK INTER + INTRA:          -7.885
REMARK INTER:                  -7.696
REMARK INTRA:                  -0.189
REMARK UNBOUND:                -0.432
REMARK  Name = 
REMARK  6 active torsions:
REMARK  status: ('A' for Active; 'I' for Inactive)
REMARK    1  A    between atoms: C_1  and  N_2
REMARK    2  A    between atoms: N_2  and  C_21
REMARK    3  A    between atoms: C_3  and  C_5
REMARK    4  A    between atoms: C_5  and  N_6
REMARK    5  A    between atoms: C_7  and  C_8
REMARK    6  A    between atoms: C_14  and  C_15
REMARK                            x       y       z     vdW  Elec       q    Type
REMARK                         _______ _______ _______ _____ _____    ______ ____
ROOT
ATOM      6  N   UNL     1      47.012   4.845  14.115  0.00  0.00    +0.000 N 
ATOM      7  C   UNL     1      47.588   6.014  13.648  0.00  0.00    +0.000 A 
ATOM     11  C   UNL     1      48.416   6.503  14.637  0.00  0.00    +0.000 A 
ATOM     12  C   UNL     1      48.212   5.728  15.789  0.00  0.00    +0.000 A 
ATOM     13  C   UNL     1      48.668   5.829  17.106  0.00  0.00    +0.000 A 
ATOM     14  C   UNL     1      48.190   4.907  18.028  0.00  0.00    +0.000 A 
ATOM     18  C   UNL     1      47.301   3.927  17.583  0.00  0.00    +0.000 A 
ATOM     19  N   UNL     1      46.839   3.774  16.306  0.00  0.00    +0.000 NA
ATOM     20  C   UNL     1      47.328   4.707  15.457  0.00  0.00    +0.000 A 
ENDROOT
BRANCH  14  15
ATOM     15  C   UNL     1      48.576   4.948  19.456  0.00  0.00    +0.000 C 
ATOM     16  N   UNL     1      48.444   3.807  20.201  0.00  0.00    +0.000 N 
ATOM     17  O   UNL     1      49.009   5.970  19.967  0.00  0.00    +0.000 OA
ATOM     27  H   UNL     1      48.107   2.916  19.863  0.00  0.00    +0.000 HD
ATOM     28  H   UNL     1      48.715   3.856  21.174  0.00  0.00    +0.000 HD
ENDBRANCH  14  15
BRANCH   7   8
ATOM      8  C   UNL     1      47.370   6.727  12.315  0.00  0.00    +0.000 C 
ATOM      9  C   UNL     1      47.772   8.185  12.182  0.00  0.00    +0.000 C 
ATOM     10  C   UNL     1      46.330   7.843  12.310  0.00  0.00    +0.000 C 
ENDBRANCH   7   8
BRANCH   6   5
ATOM      5  C   UNL     1      46.070   3.964  13.429  0.00  0.00    +0.000 C 
BRANCH   5   3
ATOM      1  C   UNL     1      43.402   5.146  10.963  0.00  0.00    +0.000 C 
ATOM      2  N   UNL     1      44.588   4.421  11.440  0.00  0.00    +0.000 N 
ATOM      3  C   UNL     1      44.857   4.632  12.818  0.00  0.00    +0.000 C 
ATOM      4  O   UNL     1      44.094   5.306  13.516  0.00  0.00    +0.000 OA
BRANCH   2  21
ATOM     21  C   UNL     1      45.592   4.028  10.381  0.00  0.00    +0.000 C 
ATOM     22  C   UNL     1      45.396   4.769   9.029  0.00  0.00    +0.000 C 
ATOM     23  C   UNL     1      44.155   4.259   8.282  0.00  0.00    +0.000 C 
ATOM     24  N   UNL     1      44.192   2.815   8.046  0.00  0.00    +0.000 NA
ATOM     25  C   UNL     1      44.411   2.076   9.288  0.00  0.00    +0.000 C 
ATOM     26  C   UNL     1      45.684   2.542   9.981  0.00  0.00    +0.000 C 
ATOM     29  H   UNL     1      44.940   2.599   7.387  0.00  0.00    +0.000 HD
ENDBRANCH   2  21
ENDBRANCH   5   3
ENDBRANCH   6   5
TORSDOF 5
ENDMDL
MODEL 6
REMARK VINA RESULT:    -5.754      2.284      5.979
REMARK INTER + INTRA:          -7.867
REMARK INTER:                  -7.838
REMARK INTRA:                  -0.029
REMARK UNBOUND:                -0.432
REMARK  Name = 
REMARK  6 active torsions:
REMARK  status: ('A' for Active; 'I' for Inactive)
REMARK    1  A    between atoms: C_1  and  N_2
REMARK    2  A    between atoms: N_2  and  C_21
REMARK    3  A    between atoms: C_3  and  C_5
REMARK    4  A    between atoms: C_5  and  N_6
REMARK    5  A    between atoms: C_7  and  C_8
REMARK    6  A    between atoms: C_14  and  C_15
REMARK                            x       y       z     vdW  Elec       q    Type
REMARK                         _______ _______ _______ _____ _____    ______ ____
ROOT
ATOM      6  N   UNL     1      48.519   7.036  13.492  0.00  0.00    +0.000 N 
ATOM      7  C   UNL     1      49.214   8.133  13.970  0.00  0.00    +0.000 A 
ATOM     11  C   UNL     1      49.592   7.863  15.268  0.00  0.00    +0.000 A 
ATOM     12  C   UNL     1      48.971   6.666  15.656  0.00  0.00    +0.000 A 
ATOM     13  C   UNL     1      48.884   5.979  16.870  0.00  0.00    +0.000 A 
ATOM     14  C   UNL     1      48.100   4.833  16.910  0.00  0.00    +0.000 A 
ATOM     18  C   UNL     1      47.464   4.427  15.735  0.00  0.00    +0.000 A 
ATOM     19  N   UNL     1      47.531   5.051  14.522  0.00  0.00    +0.000 NA
ATOM     20  C   UNL     1      48.296   6.166  14.548  0.00  0.00    +0.000 A 
ENDROOT
BRANCH  14  15
ATOM     15  C   UNL     1      47.907   4.054  18.152  0.00  0.00    +0.000 C 
ATOM     16  N   UNL     1      47.202   2.882  18.086  0.00  0.00    +0.000 N 
ATOM     17  O   UNL     1      48.368   4.435  19.219  0.00  0.00    +0.000 OA
ATOM     27  H   UNL     1      46.795   2.485  17.250  0.00  0.00    +0.000 HD
ATOM     28  H   UNL     1      47.082   2.364  18.946  0.00  0.00    +0.000 HD
ENDBRANCH  14  15
BRANCH   7   8
ATOM      8  C   UNL     1      49.516   9.458  13.272  0.00  0.00    +0.000 C 
ATOM      9  C   UNL     1      49.888  10.667  14.110  0.00  0.00    +0.000 C 
ATOM     10  C   UNL     1      48.525  10.590  13.519  0.00  0.00    +0.000 C 
ENDBRANCH   7   8
BRANCH   6   5
ATOM      5  C   UNL     1      47.925   6.846  12.171  0.00  0.00    +0.000 C 
BRANCH   5   3
ATOM      1  C   UNL     1      44.130   6.871  11.732  0.00  0.00    +0.000 C 
ATOM      2  N   UNL     1      45.475   6.306  11.907  0.00  0.00    +0.000 N 
ATOM      3  C   UNL     1      46.488   7.295  12.016  0.00  0.00    +0.000 C 
ATOM      4  O   UNL     1      46.200   8.496  12.033  0.00  0.00    +0.000 OA
BRANCH   2  21
ATOM     21  C   UNL     1      45.661   4.883  11.435  0.00  0.00    +0.000 C 
ATOM     22  C   UNL     1      44.906   4.558  10.116  0.00  0.00    +0.000 C 
ATOM     23  C   UNL     1      43.391   4.465  10.342  0.00  0.00    +0.000 C 
ATOM     24  N   UNL     1      43.032   3.479  11.363  0.00  0.00    +0.000 NA
ATOM     25  C   UNL     1      43.746   3.723  12.615  0.00  0.00    +0.000 C 
ATOM     26  C   UNL     1      45.252   3.741  12.388  0.00  0.00    +0.000 C 
ATOM     29  H   UNL     1      43.254   2.544  11.023  0.00  0.00    +0.000 HD
ENDBRANCH   2  21
ENDBRANCH   5   3
ENDBRANCH   6   5
TORSDOF 5
ENDMDL
MODEL 7
REMARK VINA RESULT:    -5.666      2.194      4.154
REMARK INTER + INTRA:          -7.754
REMARK INTER:                  -7.209
REMARK INTRA:                  -0.545
REMARK UNBOUND:                -0.432
REMARK  Name = 
REMARK  6 active torsions:
REMARK  status: ('A' for Active; 'I' for Inactive)
REMARK    1  A    between atoms: C_1  and  N_2
REMARK    2  A    between atoms: N_2  and  C_21
REMARK    3  A    between atoms: C_3  and  C_5
REMARK    4  A    between atoms: C_5  and  N_6
REMARK    5  A    between atoms: C_7  and  C_8
REMARK    6  A    between atoms: C_14  and  C_15
REMARK                            x       y       z     vdW  Elec       q    Type
REMARK                         _______ _______ _______ _____ _____    ______ ____
ROOT
ATOM      6  N   UNL     1      47.505   5.793  14.374  0.00  0.00    +0.000 N 
ATOM      7  C   UNL     1      47.581   4.688  15.204  0.00  0.00    +0.000 A 
ATOM     11  C   UNL     1      46.967   3.633  14.563  0.00  0.00    +0.000 A 
ATOM     12  C   UNL     1      46.348   4.135  13.407  0.00  0.00    +0.000 A 
ATOM     13  C   UNL     1      45.495   3.573  12.454  0.00  0.00    +0.000 A 
ATOM     14  C   UNL     1      44.999   4.405  11.459  0.00  0.00    +0.000 A 
ATOM     18  C   UNL     1      45.396   5.744  11.459  0.00  0.00    +0.000 A 
ATOM     19  N   UNL     1      46.240   6.337  12.354  0.00  0.00    +0.000 NA
ATOM     20  C   UNL     1      46.679   5.482  13.305  0.00  0.00    +0.000 A 
ENDROOT
BRANCH  14  15
ATOM     15  C   UNL     1      44.056   3.922  10.426  0.00  0.00    +0.000 C 
ATOM     16  N   UNL     1      44.027   4.565   9.217  0.00  0.00    +0.000 N 
ATOM     17  O   UNL     1      43.320   2.968  10.633  0.00  0.00    +0.000 OA
ATOM     27  H   UNL     1      44.604   5.352   8.953  0.00  0.00    +0.000 HD
ATOM     28  H   UNL     1      43.377   4.218   8.524  0.00  0.00    +0.000 HD
ENDBRANCH  14  15
BRANCH   7   8
ATOM      8  C   UNL     1      48.179   4.578  16.605  0.00  0.00    +0.000 C 
ATOM      9  C   UNL     1      47.741   3.438  17.508  0.00  0.00    +0.000 C 
ATOM     10  C   UNL     1      47.218   4.807  17.767  0.00  0.00    +0.000 C 
ENDBRANCH   7   8
BRANCH   6   5
ATOM      5  C   UNL     1      48.018   7.140  14.612  0.00  0.00    +0.000 C 
BRANCH   5   3
ATOM      1  C   UNL     1      51.692   8.168  14.427  0.00  0.00    +0.000 C 
ATOM      2  N   UNL     1      50.380   7.915  15.038  0.00  0.00    +0.000 N 
ATOM      3  C   UNL     1      49.421   7.416  14.117  0.00  0.00    +0.000 C 
ATOM      4  O   UNL     1      49.735   7.166  12.950  0.00  0.00    +0.000 OA
BRANCH   2  21
ATOM     21  C   UNL     1      50.088   8.669  16.314  0.00  0.00    +0.000 C 
ATOM     22  C   UNL     1      51.312   9.446  16.875  0.00  0.00    +0.000 C 
ATOM     23  C   UNL     1      52.355   8.495  17.476  0.00  0.00    +0.000 C 
ATOM     24  N   UNL     1      51.800   7.638  18.525  0.00  0.00    +0.000 NA
ATOM     25  C   UNL     1      50.622   6.912  18.055  0.00  0.00    +0.000 C 
ATOM     26  C   UNL     1      49.565   7.874  17.527  0.00  0.00    +0.000 C 
ATOM     29  H   UNL     1      51.545   8.210  19.330  0.00  0.00    +0.000 HD
ENDBRANCH   2  21
ENDBRANCH   5   3
ENDBRANCH   6   5
TORSDOF 5
ENDMDL
MODEL 8
REMARK VINA RESULT:    -5.637      1.897      2.935
REMARK INTER + INTRA:          -7.717
REMARK INTER:                  -7.564
REMARK INTRA:                  -0.153
REMARK UNBOUND:                -0.432
REMARK  Name = 
REMARK  6 active torsions:
REMARK  status: ('A' for Active; 'I' for Inactive)
REMARK    1  A    between atoms: C_1  and  N_2
REMARK    2  A    between atoms: N_2  and  C_21
REMARK    3  A    between atoms: C_3  and  C_5
REMARK    4  A    between atoms: C_5  and  N_6
REMARK    5  A    between atoms: C_7  and  C_8
REMARK    6  A    between atoms: C_14  and  C_15
REMARK                            x       y       z     vdW  Elec       q    Type
REMARK                         _______ _______ _______ _____ _____    ______ ____
ROOT
ATOM      6  N   UNL     1      47.596   7.237  13.571  0.00  0.00    +0.000 N 
ATOM      7  C   UNL     1      47.084   8.411  13.046  0.00  0.00    +0.000 A 
ATOM     11  C   UNL     1      45.803   8.155  12.603  0.00  0.00    +0.000 A 
ATOM     12  C   UNL     1      45.588   6.771  12.691  0.00  0.00    +0.000 A 
ATOM     13  C   UNL     1      44.549   5.933  12.278  0.00  0.00    +0.000 A 
ATOM     14  C   UNL     1      44.708   4.566  12.461  0.00  0.00    +0.000 A 
ATOM     18  C   UNL     1      45.884   4.113  13.063  0.00  0.00    +0.000 A 
ATOM     19  N   UNL     1      46.919   4.889  13.500  0.00  0.00    +0.000 NA
ATOM     20  C   UNL     1      46.713   6.208  13.283  0.00  0.00    +0.000 A 
ENDROOT
BRANCH  14  15
ATOM     15  C   UNL     1      43.688   3.588  12.023  0.00  0.00    +0.000 C 
ATOM     16  N   UNL     1      43.745   2.315  12.526  0.00  0.00    +0.000 N 
ATOM     17  O   UNL     1      42.807   3.900  11.235  0.00  0.00    +0.000 OA
ATOM     27  H   UNL     1      44.428   1.972  13.186  0.00  0.00    +0.000 HD
ATOM     28  H   UNL     1      43.037   1.663  12.214  0.00  0.00    +0.000 HD
ENDBRANCH  14  15
BRANCH   7   8
ATOM      8  C   UNL     1      47.758   9.774  12.903  0.00  0.00    +0.000 C 
ATOM      9  C   UNL     1      47.421  10.644  11.706  0.00  0.00    +0.000 C 
ATOM     10  C   UNL     1      48.725   9.928  11.733  0.00  0.00    +0.000 C 
ENDBRANCH   7   8
BRANCH   6   5
ATOM      5  C   UNL     1      48.910   7.010  14.166  0.00  0.00    +0.000 C 
BRANCH   5   3
ATOM      1  C   UNL     1      48.569   7.069  17.970  0.00  0.00    +0.000 C 
ATOM      2  N   UNL     1      48.481   7.563  16.589  0.00  0.00    +0.000 N 
ATOM      3  C   UNL     1      48.922   6.616  15.627  0.00  0.00    +0.000 C 
ATOM      4  O   UNL     1      49.262   5.479  15.968  0.00  0.00    +0.000 OA
BRANCH   2  21
ATOM     21  C   UNL     1      48.462   9.064  16.424  0.00  0.00    +0.000 C 
ATOM     22  C   UNL     1      49.832   9.664  15.998  0.00  0.00    +0.000 C 
ATOM     23  C   UNL     1      50.843   9.633  17.153  0.00  0.00    +0.000 C 
ATOM     24  N   UNL     1      50.358  10.327  18.347  0.00  0.00    +0.000 NA
ATOM     25  C   UNL     1      49.052   9.821  18.765  0.00  0.00    +0.000 C 
ATOM     26  C   UNL     1      48.040   9.924  17.632  0.00  0.00    +0.000 C 
ATOM     29  H   UNL     1      50.287  11.326  18.153  0.00  0.00    +0.000 HD
ENDBRANCH   2  21
ENDBRANCH   5   3
ENDBRANCH   6   5
TORSDOF 5
ENDMDL
MODEL 9
REMARK VINA RESULT:    -5.621      2.696      3.568
REMARK INTER + INTRA:          -7.696
REMARK INTER:                  -7.068
REMARK INTRA:                  -0.627
REMARK UNBOUND:                -0.432
REMARK  Name = 
REMARK  6 active torsions:
REMARK  status: ('A' for Active; 'I' for Inactive)
REMARK    1  A    between atoms: C_1  and  N_2
REMARK    2  A    between atoms: N_2  and  C_21
REMARK    3  A    between atoms: C_3  and  C_5
REMARK    4  A    between atoms: C_5  and  N_6
REMARK    5  A    between atoms: C_7  and  C_8
REMARK    6  A    between atoms: C_14  and  C_15
REMARK                            x       y       z     vdW  Elec       q    Type
REMARK                         _______ _______ _______ _____ _____    ______ ____
ROOT
ATOM      6  N   UNL     1      46.592   6.974  13.396  0.00  0.00    +0.000 N 
ATOM      7  C   UNL     1      45.975   8.049  12.779  0.00  0.00    +0.000 A 
ATOM     11  C   UNL     1      44.890   7.569  12.075  0.00  0.00    +0.000 A 
ATOM     12  C   UNL     1      44.943   6.167  12.110  0.00  0.00    +0.000 A 
ATOM     13  C   UNL     1      44.200   5.163  11.483  0.00  0.00    +0.000 A 
ATOM     14  C   UNL     1      44.589   3.846  11.690  0.00  0.00    +0.000 A 
ATOM     18  C   UNL     1      45.682   3.603  12.525  0.00  0.00    +0.000 A 
ATOM     19  N   UNL     1      46.428   4.545  13.174  0.00  0.00    +0.000 NA
ATOM     20  C   UNL     1      46.012   5.808  12.924  0.00  0.00    +0.000 A 
ENDROOT
BRANCH  14  15
ATOM     15  C   UNL     1      43.898   2.709  11.042  0.00  0.00    +0.000 C 
ATOM     16  N   UNL     1      44.406   2.219   9.869  0.00  0.00    +0.000 N 
ATOM     17  O   UNL     1      42.900   2.208  11.538  0.00  0.00    +0.000 OA
ATOM     27  H   UNL     1      45.229   2.562   9.393  0.00  0.00    +0.000 HD
ATOM     28  H   UNL     1      43.919   1.441   9.444  0.00  0.00    +0.000 HD
ENDBRANCH  14  15
BRANCH   7   8
ATOM      8  C   UNL     1      46.377   9.523  12.788  0.00  0.00    +0.000 C 
ATOM      9  C   UNL     1      45.982  10.404  11.616  0.00  0.00    +0.000 C 
ATOM     10  C   UNL     1      47.394   9.949  11.733  0.00  0.00    +0.000 C 
ENDBRANCH   7   8
BRANCH   6   5
ATOM      5  C   UNL     1      47.774   6.980  14.253  0.00  0.00    +0.000 C 
BRANCH   5   3
ATOM      1  C   UNL     1      51.138   8.521  13.303  0.00  0.00    +0.000 C 
ATOM      2  N   UNL     1      49.902   8.323  14.072  0.00  0.00    +0.000 N 
ATOM      3  C   UNL     1      49.092   7.271  13.568  0.00  0.00    +0.000 C 
ATOM      4  O   UNL     1      49.475   6.575  12.623  0.00  0.00    +0.000 OA
BRANCH   2  21
ATOM     21  C   UNL     1      49.429   9.508  14.880  0.00  0.00    +0.000 C 
ATOM     22  C   UNL     1      50.562  10.509  15.244  0.00  0.00    +0.000 C 
ATOM     23  C   UNL     1      51.496   9.935  16.318  0.00  0.00    +0.000 C 
ATOM     24  N   UNL     1      50.784   9.541  17.535  0.00  0.00    +0.000 NA
ATOM     25  C   UNL     1      49.684   8.626  17.238  0.00  0.00    +0.000 C 
ATOM     26  C   UNL     1      48.725   9.238  16.225  0.00  0.00    +0.000 C 
ATOM     29  H   UNL     1      50.416  10.373  17.996  0.00  0.00    +0.000 HD
ENDBRANCH   2  21
ENDBRANCH   5   3
ENDBRANCH   6   5
TORSDOF 5
ENDMDL
