MODEL 1
REMARK VINA RESULT:    -7.419      0.000      0.000
REMARK INTER + INTRA:         -15.706
REMARK INTER:                 -13.057
REMARK INTRA:                  -2.649
REMARK UNBOUND:                -2.649
REMARK  Name = 
REMARK  14 active torsions:
REMARK  status: ('A' for Active; 'I' for Inactive)
REMARK    1  A    between atoms: C_1  and  C_2
REMARK    2  A    between atoms: C_2  and  C_3
REMARK    3  A    between atoms: C_3  and  C_4
REMARK    4  A    between atoms: C_4  and  C_5
REMARK    5  A    between atoms: C_5  and  C_6
REMARK    6  A    between atoms: C_6  and  O_7
REMARK    7  A    between atoms: O_7  and  C_8
REMARK    8  A    between atoms: C_15  and  C_16
REMARK    9  A    between atoms: N_18  and  C_19
REMARK   10  A    between atoms: C_19  and  C_20
REMARK   11  A    between atoms: C_23  and  C_24
REMARK   12  A    between atoms: C_24  and  N_25
REMARK   13  A    between atoms: N_25  and  C_26
REMARK   14  A    between atoms: C_26  and  C_27
REMARK                            x       y       z     vdW  Elec       q    Type
REMARK                         _______ _______ _______ _____ _____    ______ ____
ROOT
ATOM     16  C   UNL     1      49.200   7.060  15.482  0.00  0.00    +0.000 C 
ATOM     17  O   UNL     1      50.301   7.034  14.934  0.00  0.00    +0.000 OA
ATOM     18  N   UNL     1      48.055   6.738  14.795  0.00  0.00    +0.000 N 
ATOM     36  H   UNL     1      47.148   6.836  15.233  0.00  0.00    +0.000 HD
ENDROOT
BRANCH  16  15
ATOM      8  C   UNL     1      47.677   5.743  18.302  0.00  0.00    +0.000 A 
ATOM      9  N   UNL     1      47.295   5.448  19.565  0.00  0.00    +0.000 NA
ATOM     10  C   UNL     1      47.624   6.284  20.551  0.00  0.00    +0.000 A 
ATOM     11  N   UNL     1      48.295   7.421  20.437  0.00  0.00    +0.000 NA
ATOM     12  C   UNL     1      48.682   7.676  19.177  0.00  0.00    +0.000 A 
ATOM     13  S   UNL     1      49.576   9.083  18.866  0.00  0.00    +0.000 S 
ATOM     14  C   UNL     1      49.722   8.681  17.228  0.00  0.00    +0.000 A 
ATOM     15  C   UNL     1      49.083   7.496  16.877  0.00  0.00    +0.000 A 
ATOM     35  C   UNL     1      48.441   6.899  18.042  0.00  0.00    +0.000 A 
BRANCH   8   7
ATOM      7  O   UNL     1      47.346   4.840  17.304  0.00  0.00    +0.000 OA
BRANCH   7   6
ATOM      6  C   UNL     1      47.530   3.471  17.708  0.00  0.00    +0.000 C 
BRANCH   6   5
ATOM      5  C   UNL     1      48.722   2.844  16.983  0.00  0.00    +0.000 C 
BRANCH   5   4
ATOM      4  C   UNL     1      50.078   3.012  17.680  0.00  0.00    +0.000 C 
BRANCH   4   3
ATOM      3  C   UNL     1      50.910   4.252  17.324  0.00  0.00    +0.000 C 
BRANCH   3   2
ATOM      1  C   UNL     1      50.993   4.819  19.834  0.00  0.00    +0.000 C 
ATOM      2  C   UNL     1      51.648   4.958  18.467  0.00  0.00    +0.000 C 
ENDBRANCH   3   2
ENDBRANCH   4   3
ENDBRANCH   5   4
ENDBRANCH   6   5
ENDBRANCH   7   6
ENDBRANCH   8   7
ENDBRANCH  16  15
BRANCH  18  19
ATOM     19  C   UNL     1      48.126   6.461  13.375  0.00  0.00    +0.000 C 
BRANCH  19  20
ATOM     20  C   UNL     1      46.838   5.950  12.793  0.00  0.00    +0.000 A 
ATOM     21  C   UNL     1      46.427   6.279  11.494  0.00  0.00    +0.000 A 
ATOM     22  C   UNL     1      45.344   5.614  10.901  0.00  0.00    +0.000 A 
ATOM     23  C   UNL     1      44.670   4.598  11.589  0.00  0.00    +0.000 A 
ATOM     33  C   UNL     1      45.037   4.334  12.914  0.00  0.00    +0.000 A 
ATOM     34  C   UNL     1      46.106   4.996  13.507  0.00  0.00    +0.000 A 
BRANCH  23  24
ATOM     24  C   UNL     1      43.557   3.775  10.982  0.00  0.00    +0.000 C 
BRANCH  24  25
ATOM     25  N   UNL     1      43.795   3.404   9.587  0.00  0.00    +0.000 NA
ATOM     37  H   UNL     1      44.296   4.158   9.119  0.00  0.00    +0.000 HD
BRANCH  25  26
ATOM     26  C   UNL     1      44.630   2.199   9.529  0.00  0.00    +0.000 C 
BRANCH  26  27
ATOM     27  C   UNL     1      45.640   2.277   8.410  0.00  0.00    +0.000 A 
ATOM     28  C   UNL     1      46.379   1.149   8.025  0.00  0.00    +0.000 A 
ATOM     29  C   UNL     1      47.289   1.228   6.969  0.00  0.00    +0.000 A 
ATOM     30  C   UNL     1      47.468   2.431   6.288  0.00  0.00    +0.000 A 
ATOM     31  C   UNL     1      46.740   3.559   6.665  0.00  0.00    +0.000 A 
ATOM     32  C   UNL     1      45.829   3.481   7.718  0.00  0.00    +0.000 A 
ENDBRANCH  26  27
ENDBRANCH  25  26
ENDBRANCH  24  25
ENDBRANCH  23  24
ENDBRANCH  19  20
ENDBRANCH  18  19
TORSDOF 13
ENDMDL
MODEL 2
REMARK VINA RESULT:    -7.378      1.179      1.752
REMARK INTER + INTRA:         -15.634
REMARK INTER:                 -13.721
REMARK INTRA:                  -1.913
REMARK UNBOUND:                -2.649
REMARK  Name = 
REMARK  14 active torsions:
REMARK  status: ('A' for Active; 'I' for Inactive)
REMARK    1  A    between atoms: C_1  and  C_2
REMARK    2  A    between atoms: C_2  and  C_3
REMARK    3  A    between atoms: C_3  and  C_4
REMARK    4  A    between atoms: C_4  and  C_5
REMARK    5  A    between atoms: C_5  and  C_6
REMARK    6  A    between atoms: C_6  and  O_7
REMARK    7  A    between atoms: O_7  and  C_8
REMARK    8  A    between atoms: C_15  and  C_16
REMARK    9  A    between atoms: N_18  and  C_19
REMARK   10  A    between atoms: C_19  and  C_20
REMARK   11  A    between atoms: C_23  and  C_24
REMARK   12  A    between atoms: C_24  and  N_25
REMARK   13  A    between atoms: N_25  and  C_26
REMARK   14  A    between atoms: C_26  and  C_27
REMARK                            x       y       z     vdW  Elec       q    Type
REMARK                         _______ _______ _______ _____ _____    ______ ____
ROOT
ATOM     16  C   UNL     1      48.901   7.342  15.457  0.00  0.00    +0.000 C 
ATOM     17  O   UNL     1      49.906   6.639  15.356  0.00  0.00    +0.000 OA
ATOM     18  N   UNL     1      47.906   7.301  14.512  0.00  0.00    +0.000 N 
ATOM     36  H   UNL     1      47.120   7.937  14.564  0.00  0.00    +0.000 HD
ENDROOT
BRANCH  16  15
ATOM      8  C   UNL     1      48.652   7.002  18.896  0.00  0.00    +0.000 A 
ATOM      9  N   UNL     1      48.647   7.203  20.234  0.00  0.00    +0.000 NA
ATOM     10  C   UNL     1      48.643   8.453  20.700  0.00  0.00    +0.000 A 
ATOM     11  N   UNL     1      48.628   9.567  19.982  0.00  0.00    +0.000 NA
ATOM     12  C   UNL     1      48.657   9.338  18.659  0.00  0.00    +0.000 A 
ATOM     13  S   UNL     1      48.670  10.664  17.602  0.00  0.00    +0.000 S 
ATOM     14  C   UNL     1      48.771   9.643  16.255  0.00  0.00    +0.000 A 
ATOM     15  C   UNL     1      48.773   8.288  16.570  0.00  0.00    +0.000 A 
ATOM     35  C   UNL     1      48.686   8.101  18.013  0.00  0.00    +0.000 A 
BRANCH   8   7
ATOM      7  O   UNL     1      48.686   5.693  18.444  0.00  0.00    +0.000 OA
BRANCH   7   6
ATOM      6  C   UNL     1      47.376   5.158  18.184  0.00  0.00    +0.000 C 
BRANCH   6   5
ATOM      5  C   UNL     1      47.385   4.275  16.936  0.00  0.00    +0.000 C 
BRANCH   5   4
ATOM      4  C   UNL     1      47.698   2.793  17.181  0.00  0.00    +0.000 C 
BRANCH   4   3
ATOM      3  C   UNL     1      49.019   2.245  16.625  0.00  0.00    +0.000 C 
BRANCH   3   2
ATOM      1  C   UNL     1      51.372   1.503  17.359  0.00  0.00    +0.000 C 
ATOM      2  C   UNL     1      50.302   2.584  17.392  0.00  0.00    +0.000 C 
ENDBRANCH   3   2
ENDBRANCH   4   3
ENDBRANCH   5   4
ENDBRANCH   6   5
ENDBRANCH   7   6
ENDBRANCH   8   7
ENDBRANCH  16  15
BRANCH  18  19
ATOM     19  C   UNL     1      48.082   6.495  13.322  0.00  0.00    +0.000 C 
BRANCH  19  20
ATOM     20  C   UNL     1      46.792   6.011  12.722  0.00  0.00    +0.000 A 
ATOM     21  C   UNL     1      46.399   6.358  11.421  0.00  0.00    +0.000 A 
ATOM     22  C   UNL     1      45.311   5.718  10.811  0.00  0.00    +0.000 A 
ATOM     23  C   UNL     1      44.614   4.707  11.483  0.00  0.00    +0.000 A 
ATOM     33  C   UNL     1      44.963   4.425  12.809  0.00  0.00    +0.000 A 
ATOM     34  C   UNL     1      46.036   5.064  13.419  0.00  0.00    +0.000 A 
BRANCH  23  24
ATOM     24  C   UNL     1      43.493   3.908  10.858  0.00  0.00    +0.000 C 
BRANCH  24  25
ATOM     25  N   UNL     1      43.805   3.410   9.517  0.00  0.00    +0.000 NA
ATOM     37  H   UNL     1      44.167   4.175   8.950  0.00  0.00    +0.000 HD
BRANCH  25  26
ATOM     26  C   UNL     1      44.842   2.376   9.601  0.00  0.00    +0.000 C 
BRANCH  26  27
ATOM     27  C   UNL     1      45.738   2.388   8.387  0.00  0.00    +0.000 A 
ATOM     28  C   UNL     1      45.917   3.557   7.633  0.00  0.00    +0.000 A 
ATOM     29  C   UNL     1      46.772   3.562   6.529  0.00  0.00    +0.000 A 
ATOM     30  C   UNL     1      47.456   2.402   6.170  0.00  0.00    +0.000 A 
ATOM     31  C   UNL     1      47.283   1.233   6.910  0.00  0.00    +0.000 A 
ATOM     32  C   UNL     1      46.431   1.228   8.014  0.00  0.00    +0.000 A 
ENDBRANCH  26  27
ENDBRANCH  25  26
ENDBRANCH  24  25
ENDBRANCH  23  24
ENDBRANCH  19  20
ENDBRANCH  18  19
TORSDOF 13
ENDMDL
MODEL 3
REMARK VINA RESULT:    -7.031      1.968      2.910
REMARK INTER + INTRA:         -15.024
REMARK INTER:                 -12.958
REMARK INTRA:                  -2.066
REMARK UNBOUND:                -2.649
REMARK  Name = 
REMARK  14 active torsions:
REMARK  status: ('A' for Active; 'I' for Inactive)
REMARK    1  A    between atoms: C_1  and  C_2
REMARK    2  A    between atoms: C_2  and  C_3
REMARK    3  A    between atoms: C_3  and  C_4
REMARK    4  A    between atoms: C_4  and  C_5
REMARK    5  A    between atoms: C_5  and  C_6
REMARK    6  A    between atoms: C_6  and  O_7
REMARK    7  A    between atoms: O_7  and  C_8
REMARK    8  A    between atoms: C_15  and  C_16
REMARK    9  A    between atoms: N_18  and  C_19
REMARK   10  A    between atoms: C_19  and  C_20
REMARK   11  A    between atoms: C_23  and  C_24
REMARK   12  A    between atoms: C_24  and  N_25
REMARK   13  A    between atoms: N_25  and  C_26
REMARK   14  A    between atoms: C_26  and  C_27
REMARK                            x       y       z     vdW  Elec       q    Type
REMARK                         _______ _______ _______ _____ _____    ______ ____
ROOT
ATOM     16  C   UNL     1      49.477   8.220  14.128  0.00  0.00    +0.000 C 
ATOM     17  O   UNL     1      49.280   9.402  13.848  0.00  0.00    +0.000 OA
ATOM     18  N   UNL     1      48.516   7.265  13.902  0.00  0.00    +0.000 N 
ATOM     36  H   UNL     1      48.659   6.310  14.205  0.00  0.00    +0.000 HD
ENDROOT
BRANCH  16  15
ATOM      8  C   UNL     1      50.271   6.163  16.800  0.00  0.00    +0.000 A 
ATOM      9  N   UNL     1      50.895   5.365  17.697  0.00  0.00    +0.000 NA
ATOM     10  C   UNL     1      52.229   5.341  17.723  0.00  0.00    +0.000 A 
ATOM     11  N   UNL     1      53.049   6.043  16.956  0.00  0.00    +0.000 NA
ATOM     12  C   UNL     1      52.404   6.807  16.060  0.00  0.00    +0.000 A 
ATOM     13  S   UNL     1      53.316   7.749  14.983  0.00  0.00    +0.000 S 
ATOM     14  C   UNL     1      51.913   8.305  14.216  0.00  0.00    +0.000 A 
ATOM     15  C   UNL     1      50.733   7.815  14.767  0.00  0.00    +0.000 A 
ATOM     35  C   UNL     1      51.024   6.929  15.887  0.00  0.00    +0.000 A 
BRANCH   8   7
ATOM      7  O   UNL     1      48.886   6.142  16.778  0.00  0.00    +0.000 OA
BRANCH   7   6
ATOM      6  C   UNL     1      48.306   6.255  18.090  0.00  0.00    +0.000 C 
BRANCH   6   5
ATOM      5  C   UNL     1      47.218   5.200  18.298  0.00  0.00    +0.000 C 
BRANCH   5   4
ATOM      4  C   UNL     1      47.144   4.110  17.222  0.00  0.00    +0.000 C 
BRANCH   4   3
ATOM      3  C   UNL     1      47.826   2.768  17.523  0.00  0.00    +0.000 C 
BRANCH   3   2
ATOM      1  C   UNL     1      50.230   1.949  17.103  0.00  0.00    +0.000 C 
ATOM      2  C   UNL     1      48.862   2.261  16.514  0.00  0.00    +0.000 C 
ENDBRANCH   3   2
ENDBRANCH   4   3
ENDBRANCH   5   4
ENDBRANCH   6   5
ENDBRANCH   7   6
ENDBRANCH   8   7
ENDBRANCH  16  15
BRANCH  18  19
ATOM     19  C   UNL     1      47.209   7.665  13.423  0.00  0.00    +0.000 C 
BRANCH  19  20
ATOM     20  C   UNL     1      46.462   6.567  12.718  0.00  0.00    +0.000 A 
ATOM     21  C   UNL     1      46.512   5.235  13.151  0.00  0.00    +0.000 A 
ATOM     22  C   UNL     1      45.636   4.279  12.617  0.00  0.00    +0.000 A 
ATOM     23  C   UNL     1      44.684   4.645  11.658  0.00  0.00    +0.000 A 
ATOM     33  C   UNL     1      44.697   5.958  11.173  0.00  0.00    +0.000 A 
ATOM     34  C   UNL     1      45.569   6.906  11.696  0.00  0.00    +0.000 A 
BRANCH  23  24
ATOM     24  C   UNL     1      43.647   3.693  11.105  0.00  0.00    +0.000 C 
BRANCH  24  25
ATOM     25  N   UNL     1      43.836   3.380   9.688  0.00  0.00    +0.000 NA
ATOM     37  H   UNL     1      44.337   4.146   9.238  0.00  0.00    +0.000 HD
BRANCH  25  26
ATOM     26  C   UNL     1      44.647   2.165   9.552  0.00  0.00    +0.000 C 
BRANCH  26  27
ATOM     27  C   UNL     1      45.647   2.287   8.428  0.00  0.00    +0.000 A 
ATOM     28  C   UNL     1      46.445   1.197   8.050  0.00  0.00    +0.000 A 
ATOM     29  C   UNL     1      47.346   1.316   6.990  0.00  0.00    +0.000 A 
ATOM     30  C   UNL     1      47.455   2.521   6.297  0.00  0.00    +0.000 A 
ATOM     31  C   UNL     1      46.669   3.611   6.666  0.00  0.00    +0.000 A 
ATOM     32  C   UNL     1      45.767   3.493   7.724  0.00  0.00    +0.000 A 
ENDBRANCH  26  27
ENDBRANCH  25  26
ENDBRANCH  24  25
ENDBRANCH  23  24
ENDBRANCH  19  20
ENDBRANCH  18  19
TORSDOF 13
ENDMDL
MODEL 4
REMARK VINA RESULT:    -6.911      1.877      4.186
REMARK INTER + INTRA:         -14.812
REMARK INTER:                 -12.480
REMARK INTRA:                  -2.332
REMARK UNBOUND:                -2.649
REMARK  Name = 
REMARK  14 active torsions:
REMARK  status: ('A' for Active; 'I' for Inactive)
REMARK    1  A    between atoms: C_1  and  C_2
REMARK    2  A    between atoms: C_2  and  C_3
REMARK    3  A    between atoms: C_3  and  C_4
REMARK    4  A    between atoms: C_4  and  C_5
REMARK    5  A    between atoms: C_5  and  C_6
REMARK    6  A    between atoms: C_6  and  O_7
REMARK    7  A    between atoms: O_7  and  C_8
REMARK    8  A    between atoms: C_15  and  C_16
REMARK    9  A    between atoms: N_18  and  C_19
REMARK   10  A    between atoms: C_19  and  C_20
REMARK   11  A    between atoms: C_23  and  C_24
REMARK   12  A    between atoms: C_24  and  N_25
REMARK   13  A    between atoms: N_25  and  C_26
REMARK   14  A    between atoms: C_26  and  C_27
REMARK                            x       y       z     vdW  Elec       q    Type
REMARK                         _______ _______ _______ _____ _____    ______ ____
ROOT
ATOM     16  C   UNL     1      48.281   5.154  16.608  0.00  0.00    +0.000 C 
ATOM     17  O   UNL     1      49.205   4.345  16.673  0.00  0.00    +0.000 OA
ATOM     18  N   UNL     1      47.209   4.946  15.775  0.00  0.00    +0.000 N 
ATOM     36  H   UNL     1      46.492   5.653  15.673  0.00  0.00    +0.000 HD
ENDROOT
BRANCH  16  15
ATOM      8  C   UNL     1      49.133   8.429  15.866  0.00  0.00    +0.000 A 
ATOM      9  N   UNL     1      49.292   9.772  15.869  0.00  0.00    +0.000 NA
ATOM     10  C   UNL     1      49.052  10.450  16.993  0.00  0.00    +0.000 A 
ATOM     11  N   UNL     1      48.677   9.944  18.158  0.00  0.00    +0.000 NA
ATOM     12  C   UNL     1      48.503   8.613  18.120  0.00  0.00    +0.000 A 
ATOM     13  S   UNL     1      47.995   7.815  19.528  0.00  0.00    +0.000 S 
ATOM     14  C   UNL     1      47.948   6.328  18.720  0.00  0.00    +0.000 A 
ATOM     15  C   UNL     1      48.336   6.397  17.385  0.00  0.00    +0.000 A 
ATOM     35  C   UNL     1      48.688   7.765  17.026  0.00  0.00    +0.000 A 
BRANCH   8   7
ATOM      7  O   UNL     1      49.361   7.759  14.675  0.00  0.00    +0.000 OA
BRANCH   7   6
ATOM      6  C   UNL     1      50.250   8.471  13.795  0.00  0.00    +0.000 C 
BRANCH   6   5
ATOM      5  C   UNL     1      50.145   7.939  12.366  0.00  0.00    +0.000 C 
BRANCH   5   4
ATOM      4  C   UNL     1      48.719   7.685  11.860  0.00  0.00    +0.000 C 
BRANCH   4   3
ATOM      3  C   UNL     1      47.768   8.887  11.785  0.00  0.00    +0.000 C 
BRANCH   3   2
ATOM      1  C   UNL     1      45.324   9.437  12.375  0.00  0.00    +0.000 C 
ATOM      2  C   UNL     1      46.696   9.008  12.874  0.00  0.00    +0.000 C 
ENDBRANCH   3   2
ENDBRANCH   4   3
ENDBRANCH   5   4
ENDBRANCH   6   5
ENDBRANCH   7   6
ENDBRANCH   8   7
ENDBRANCH  16  15
BRANCH  18  19
ATOM     19  C   UNL     1      47.210   3.808  14.880  0.00  0.00    +0.000 C 
BRANCH  19  20
ATOM     20  C   UNL     1      46.468   4.049  13.595  0.00  0.00    +0.000 A 
ATOM     21  C   UNL     1      45.866   3.007  12.875  0.00  0.00    +0.000 A 
ATOM     22  C   UNL     1      44.998   3.285  11.811  0.00  0.00    +0.000 A 
ATOM     23  C   UNL     1      44.700   4.608  11.463  0.00  0.00    +0.000 A 
ATOM     33  C   UNL     1      45.368   5.639  12.134  0.00  0.00    +0.000 A 
ATOM     34  C   UNL     1      46.236   5.366  13.186  0.00  0.00    +0.000 A 
BRANCH  23  24
ATOM     24  C   UNL     1      43.704   4.986  10.390  0.00  0.00    +0.000 C 
BRANCH  24  25
ATOM     25  N   UNL     1      43.956   4.339   9.102  0.00  0.00    +0.000 NA
ATOM     37  H   UNL     1      43.316   4.717   8.404  0.00  0.00    +0.000 HD
BRANCH  25  26
ATOM     26  C   UNL     1      45.327   4.624   8.663  0.00  0.00    +0.000 C 
BRANCH  26  27
ATOM     27  C   UNL     1      45.977   3.410   8.046  0.00  0.00    +0.000 A 
ATOM     28  C   UNL     1      45.756   2.128   8.571  0.00  0.00    +0.000 A 
ATOM     29  C   UNL     1      46.341   1.010   7.973  0.00  0.00    +0.000 A 
ATOM     30  C   UNL     1      47.149   1.162   6.847  0.00  0.00    +0.000 A 
ATOM     31  C   UNL     1      47.377   2.432   6.319  0.00  0.00    +0.000 A 
ATOM     32  C   UNL     1      46.792   3.549   6.914  0.00  0.00    +0.000 A 
ENDBRANCH  26  27
ENDBRANCH  25  26
ENDBRANCH  24  25
ENDBRANCH  23  24
ENDBRANCH  19  20
ENDBRANCH  18  19
TORSDOF 13
ENDMDL
MODEL 5
REMARK VINA RESULT:    -6.815      1.804      3.868
REMARK INTER + INTRA:         -14.643
REMARK INTER:                 -12.250
REMARK INTRA:                  -2.394
REMARK UNBOUND:                -2.649
REMARK  Name = 
REMARK  14 active torsions:
REMARK  status: ('A' for Active; 'I' for Inactive)
REMARK    1  A    between atoms: C_1  and  C_2
REMARK    2  A    between atoms: C_2  and  C_3
REMARK    3  A    between atoms: C_3  and  C_4
REMARK    4  A    between atoms: C_4  and  C_5
REMARK    5  A    between atoms: C_5  and  C_6
REMARK    6  A    between atoms: C_6  and  O_7
REMARK    7  A    between atoms: O_7  and  C_8
REMARK    8  A    between atoms: C_15  and  C_16
REMARK    9  A    between atoms: N_18  and  C_19
REMARK   10  A    between atoms: C_19  and  C_20
REMARK   11  A    between atoms: C_23  and  C_24
REMARK   12  A    between atoms: C_24  and  N_25
REMARK   13  A    between atoms: N_25  and  C_26
REMARK   14  A    between atoms: C_26  and  C_27
REMARK                            x       y       z     vdW  Elec       q    Type
REMARK                         _______ _______ _______ _____ _____    ______ ____
ROOT
ATOM     16  C   UNL     1      48.342   5.530  16.471  0.00  0.00    +0.000 C 
ATOM     17  O   UNL     1      48.822   4.402  16.370  0.00  0.00    +0.000 OA
ATOM     18  N   UNL     1      47.903   6.219  15.366  0.00  0.00    +0.000 N 
ATOM     36  H   UNL     1      47.580   7.174  15.451  0.00  0.00    +0.000 HD
ENDROOT
BRANCH  16  15
ATOM      8  C   UNL     1      49.435   8.586  17.684  0.00  0.00    +0.000 A 
ATOM      9  N   UNL     1      49.636   9.709  18.411  0.00  0.00    +0.000 NA
ATOM     10  C   UNL     1      49.200   9.750  19.671  0.00  0.00    +0.000 A 
ATOM     11  N   UNL     1      48.582   8.780  20.328  0.00  0.00    +0.000 NA
ATOM     12  C   UNL     1      48.375   7.687  19.576  0.00  0.00    +0.000 A 
ATOM     13  S   UNL     1      47.569   6.363  20.265  0.00  0.00    +0.000 S 
ATOM     14  C   UNL     1      47.635   5.509  18.805  0.00  0.00    +0.000 A 
ATOM     15  C   UNL     1      48.283   6.190  17.779  0.00  0.00    +0.000 A 
ATOM     35  C   UNL     1      48.745   7.492  18.244  0.00  0.00    +0.000 A 
BRANCH   8   7
ATOM      7  O   UNL     1      49.873   8.586  16.370  0.00  0.00    +0.000 OA
BRANCH   7   6
ATOM      6  C   UNL     1      50.164   9.906  15.878  0.00  0.00    +0.000 C 
BRANCH   6   5
ATOM      5  C   UNL     1      49.025  10.425  15.000  0.00  0.00    +0.000 C 
BRANCH   5   4
ATOM      4  C   UNL     1      48.386   9.386  14.070  0.00  0.00    +0.000 C 
BRANCH   4   3
ATOM      3  C   UNL     1      48.242   9.754  12.587  0.00  0.00    +0.000 C 
BRANCH   3   2
ATOM      1  C   UNL     1      50.203   8.128  12.220  0.00  0.00    +0.000 C 
ATOM      2  C   UNL     1      49.153   9.031  11.589  0.00  0.00    +0.000 C 
ENDBRANCH   3   2
ENDBRANCH   4   3
ENDBRANCH   5   4
ENDBRANCH   6   5
ENDBRANCH   7   6
ENDBRANCH   8   7
ENDBRANCH  16  15
BRANCH  18  19
ATOM     19  C   UNL     1      48.100   5.654  14.047  0.00  0.00    +0.000 C 
BRANCH  19  20
ATOM     20  C   UNL     1      46.856   5.644  13.203  0.00  0.00    +0.000 A 
ATOM     21  C   UNL     1      46.791   6.301  11.966  0.00  0.00    +0.000 A 
ATOM     22  C   UNL     1      45.705   6.089  11.104  0.00  0.00    +0.000 A 
ATOM     23  C   UNL     1      44.681   5.202  11.455  0.00  0.00    +0.000 A 
ATOM     33  C   UNL     1      44.715   4.615  12.726  0.00  0.00    +0.000 A 
ATOM     34  C   UNL     1      45.786   4.828  13.586  0.00  0.00    +0.000 A 
BRANCH  23  24
ATOM     24  C   UNL     1      43.528   4.852  10.542  0.00  0.00    +0.000 C 
BRANCH  24  25
ATOM     25  N   UNL     1      43.949   4.366   9.227  0.00  0.00    +0.000 NA
ATOM     37  H   UNL     1      44.728   4.933   8.892  0.00  0.00    +0.000 HD
BRANCH  25  26
ATOM     26  C   UNL     1      44.412   2.978   9.336  0.00  0.00    +0.000 C 
BRANCH  26  27
ATOM     27  C   UNL     1      45.475   2.665   8.312  0.00  0.00    +0.000 A 
ATOM     28  C   UNL     1      45.895   3.633   7.387  0.00  0.00    +0.000 A 
ATOM     29  C   UNL     1      46.900   3.338   6.464  0.00  0.00    +0.000 A 
ATOM     30  C   UNL     1      47.496   2.078   6.457  0.00  0.00    +0.000 A 
ATOM     31  C   UNL     1      47.085   1.108   7.370  0.00  0.00    +0.000 A 
ATOM     32  C   UNL     1      46.083   1.402   8.294  0.00  0.00    +0.000 A 
ENDBRANCH  26  27
ENDBRANCH  25  26
ENDBRANCH  24  25
ENDBRANCH  23  24
ENDBRANCH  19  20
ENDBRANCH  18  19
TORSDOF 13
ENDMDL
MODEL 6
REMARK VINA RESULT:    -6.732      1.602      3.047
REMARK INTER + INTRA:         -14.498
REMARK INTER:                 -12.000
REMARK INTRA:                  -2.498
REMARK UNBOUND:                -2.649
REMARK  Name = 
REMARK  14 active torsions:
REMARK  status: ('A' for Active; 'I' for Inactive)
REMARK    1  A    between atoms: C_1  and  C_2
REMARK    2  A    between atoms: C_2  and  C_3
REMARK    3  A    between atoms: C_3  and  C_4
REMARK    4  A    between atoms: C_4  and  C_5
REMARK    5  A    between atoms: C_5  and  C_6
REMARK    6  A    between atoms: C_6  and  O_7
REMARK    7  A    between atoms: O_7  and  C_8
REMARK    8  A    between atoms: C_15  and  C_16
REMARK    9  A    between atoms: N_18  and  C_19
REMARK   10  A    between atoms: C_19  and  C_20
REMARK   11  A    between atoms: C_23  and  C_24
REMARK   12  A    between atoms: C_24  and  N_25
REMARK   13  A    between atoms: N_25  and  C_26
REMARK   14  A    between atoms: C_26  and  C_27
REMARK                            x       y       z     vdW  Elec       q    Type
REMARK                         _______ _______ _______ _____ _____    ______ ____
ROOT
ATOM     16  C   UNL     1      49.074   6.540  15.849  0.00  0.00    +0.000 C 
ATOM     17  O   UNL     1      50.156   6.640  15.271  0.00  0.00    +0.000 OA
ATOM     18  N   UNL     1      47.888   6.667  15.169  0.00  0.00    +0.000 N 
ATOM     36  H   UNL     1      47.006   6.658  15.665  0.00  0.00    +0.000 HD
ENDROOT
BRANCH  16  15
ATOM      8  C   UNL     1      47.827   8.380  18.507  0.00  0.00    +0.000 A 
ATOM      9  N   UNL     1      47.363   8.794  19.708  0.00  0.00    +0.000 NA
ATOM     10  C   UNL     1      47.563   8.023  20.778  0.00  0.00    +0.000 A 
ATOM     11  N   UNL     1      48.198   6.862  20.812  0.00  0.00    +0.000 NA
ATOM     12  C   UNL     1      48.627   6.464  19.603  0.00  0.00    +0.000 A 
ATOM     13  S   UNL     1      49.438   4.980  19.472  0.00  0.00    +0.000 S 
ATOM     14  C   UNL     1      49.572   5.153  17.793  0.00  0.00    +0.000 A 
ATOM     15  C   UNL     1      49.032   6.338  17.301  0.00  0.00    +0.000 A 
ATOM     35  C   UNL     1      48.480   7.136  18.388  0.00  0.00    +0.000 A 
BRANCH   8   7
ATOM      7  O   UNL     1      47.578   9.188  17.409  0.00  0.00    +0.000 OA
BRANCH   7   6
ATOM      6  C   UNL     1      48.492  10.295  17.312  0.00  0.00    +0.000 C 
BRANCH   6   5
ATOM      5  C   UNL     1      49.296  10.226  16.014  0.00  0.00    +0.000 C 
BRANCH   5   4
ATOM      4  C   UNL     1      50.807  10.023  16.185  0.00  0.00    +0.000 C 
BRANCH   4   3
ATOM      3  C   UNL     1      51.328   9.729  17.599  0.00  0.00    +0.000 C 
BRANCH   3   2
ATOM      1  C   UNL     1      53.016   7.973  16.767  0.00  0.00    +0.000 C 
ATOM      2  C   UNL     1      52.007   8.375  17.833  0.00  0.00    +0.000 C 
ENDBRANCH   3   2
ENDBRANCH   4   3
ENDBRANCH   5   4
ENDBRANCH   6   5
ENDBRANCH   7   6
ENDBRANCH   8   7
ENDBRANCH  16  15
BRANCH  18  19
ATOM     19  C   UNL     1      47.904   7.026  13.766  0.00  0.00    +0.000 C 
BRANCH  19  20
ATOM     20  C   UNL     1      46.892   6.283  12.940  0.00  0.00    +0.000 A 
ATOM     21  C   UNL     1      46.012   5.348  13.504  0.00  0.00    +0.000 A 
ATOM     22  C   UNL     1      44.939   4.840  12.758  0.00  0.00    +0.000 A 
ATOM     23  C   UNL     1      44.716   5.274  11.446  0.00  0.00    +0.000 A 
ATOM     33  C   UNL     1      45.646   6.145  10.866  0.00  0.00    +0.000 A 
ATOM     34  C   UNL     1      46.716   6.645  11.600  0.00  0.00    +0.000 A 
BRANCH  23  24
ATOM     24  C   UNL     1      43.530   4.844  10.614  0.00  0.00    +0.000 C 
BRANCH  24  25
ATOM     25  N   UNL     1      43.898   4.318   9.298  0.00  0.00    +0.000 NA
ATOM     37  H   UNL     1      44.632   4.900   8.896  0.00  0.00    +0.000 HD
BRANCH  25  26
ATOM     26  C   UNL     1      44.422   2.955   9.437  0.00  0.00    +0.000 C 
BRANCH  26  27
ATOM     27  C   UNL     1      45.494   2.665   8.415  0.00  0.00    +0.000 A 
ATOM     28  C   UNL     1      46.056   1.385   8.299  0.00  0.00    +0.000 A 
ATOM     29  C   UNL     1      47.026   1.125   7.330  0.00  0.00    +0.000 A 
ATOM     30  C   UNL     1      47.443   2.138   6.468  0.00  0.00    +0.000 A 
ATOM     31  C   UNL     1      46.894   3.414   6.576  0.00  0.00    +0.000 A 
ATOM     32  C   UNL     1      45.923   3.675   7.542  0.00  0.00    +0.000 A 
ENDBRANCH  26  27
ENDBRANCH  25  26
ENDBRANCH  24  25
ENDBRANCH  23  24
ENDBRANCH  19  20
ENDBRANCH  18  19
TORSDOF 13
ENDMDL
MODEL 7
REMARK VINA RESULT:    -6.714      3.551      9.486
REMARK INTER + INTRA:         -14.466
REMARK INTER:                 -13.039
REMARK INTRA:                  -1.427
REMARK UNBOUND:                -2.649
REMARK  Name = 
REMARK  14 active torsions:
REMARK  status: ('A' for Active; 'I' for Inactive)
REMARK    1  A    between atoms: C_1  and  C_2
REMARK    2  A    between atoms: C_2  and  C_3
REMARK    3  A    between atoms: C_3  and  C_4
REMARK    4  A    between atoms: C_4  and  C_5
REMARK    5  A    between atoms: C_5  and  C_6
REMARK    6  A    between atoms: C_6  and  O_7
REMARK    7  A    between atoms: O_7  and  C_8
REMARK    8  A    between atoms: C_15  and  C_16
REMARK    9  A    between atoms: N_18  and  C_19
REMARK   10  A    between atoms: C_19  and  C_20
REMARK   11  A    between atoms: C_23  and  C_24
REMARK   12  A    between atoms: C_24  and  N_25
REMARK   13  A    between atoms: N_25  and  C_26
REMARK   14  A    between atoms: C_26  and  C_27
REMARK                            x       y       z     vdW  Elec       q    Type
REMARK                         _______ _______ _______ _____ _____    ______ ____
ROOT
ATOM     16  C   UNL     1      47.004   4.314  14.435  0.00  0.00    +0.000 C 
ATOM     17  O   UNL     1      47.194   3.198  13.955  0.00  0.00    +0.000 OA
ATOM     18  N   UNL     1      47.049   4.523  15.792  0.00  0.00    +0.000 N 
ATOM     36  H   UNL     1      46.818   5.428  16.181  0.00  0.00    +0.000 HD
ENDROOT
BRANCH  16  15
ATOM      8  C   UNL     1      44.223   5.156  12.548  0.00  0.00    +0.000 A 
ATOM      9  N   UNL     1      43.281   5.799  11.820  0.00  0.00    +0.000 NA
ATOM     10  C   UNL     1      43.564   7.002  11.316  0.00  0.00    +0.000 A 
ATOM     11  N   UNL     1      44.705   7.662  11.434  0.00  0.00    +0.000 NA
ATOM     12  C   UNL     1      45.613   7.012  12.180  0.00  0.00    +0.000 A 
ATOM     13  S   UNL     1      47.121   7.740  12.450  0.00  0.00    +0.000 S 
ATOM     14  C   UNL     1      47.613   6.454  13.435  0.00  0.00    +0.000 A 
ATOM     15  C   UNL     1      46.665   5.443  13.562  0.00  0.00    +0.000 A 
ATOM     35  C   UNL     1      45.469   5.766  12.794  0.00  0.00    +0.000 A 
BRANCH   8   7
ATOM      7  O   UNL     1      43.888   3.922  13.082  0.00  0.00    +0.000 OA
BRANCH   7   6
ATOM      6  C   UNL     1      43.710   2.908  12.077  0.00  0.00    +0.000 C 
BRANCH   6   5
ATOM      5  C   UNL     1      44.848   2.945  11.056  0.00  0.00    +0.000 C 
BRANCH   5   4
ATOM      4  C   UNL     1      44.431   2.709   9.599  0.00  0.00    +0.000 C 
BRANCH   4   3
ATOM      3  C   UNL     1      44.724   3.825   8.587  0.00  0.00    +0.000 C 
BRANCH   3   2
ATOM      1  C   UNL     1      46.507   2.213   7.665  0.00  0.00    +0.000 C 
ATOM      2  C   UNL     1      45.851   3.584   7.577  0.00  0.00    +0.000 C 
ENDBRANCH   3   2
ENDBRANCH   4   3
ENDBRANCH   5   4
ENDBRANCH   6   5
ENDBRANCH   7   6
ENDBRANCH   8   7
ENDBRANCH  16  15
BRANCH  18  19
ATOM     19  C   UNL     1      47.222   3.395  16.684  0.00  0.00    +0.000 C 
BRANCH  19  20
ATOM     20  C   UNL     1      48.624   3.244  17.203  0.00  0.00    +0.000 A 
ATOM     21  C   UNL     1      49.419   2.133  16.888  0.00  0.00    +0.000 A 
ATOM     22  C   UNL     1      50.787   2.125  17.198  0.00  0.00    +0.000 A 
ATOM     23  C   UNL     1      51.384   3.235  17.808  0.00  0.00    +0.000 A 
ATOM     33  C   UNL     1      50.566   4.305  18.191  0.00  0.00    +0.000 A 
ATOM     34  C   UNL     1      49.208   4.312  17.892  0.00  0.00    +0.000 A 
BRANCH  23  24
ATOM     24  C   UNL     1      52.866   3.338  18.088  0.00  0.00    +0.000 C 
BRANCH  24  25
ATOM     25  N   UNL     1      53.311   2.499  19.201  0.00  0.00    +0.000 NA
ATOM     37  H   UNL     1      52.778   1.630  19.203  0.00  0.00    +0.000 HD
BRANCH  25  26
ATOM     26  C   UNL     1      54.729   2.161  19.033  0.00  0.00    +0.000 C 
BRANCH  26  27
ATOM     27  C   UNL     1      54.928   1.117  17.963  0.00  0.00    +0.000 A 
ATOM     28  C   UNL     1      55.506   1.448  16.728  0.00  0.00    +0.000 A 
ATOM     29  C   UNL     1      55.710   0.465  15.758  0.00  0.00    +0.000 A 
ATOM     30  C   UNL     1      55.342  -0.856  16.012  0.00  0.00    +0.000 A 
ATOM     31  C   UNL     1      54.764  -1.195  17.234  0.00  0.00    +0.000 A 
ATOM     32  C   UNL     1      54.562  -0.215  18.205  0.00  0.00    +0.000 A 
ENDBRANCH  26  27
ENDBRANCH  25  26
ENDBRANCH  24  25
ENDBRANCH  23  24
ENDBRANCH  19  20
ENDBRANCH  18  19
TORSDOF 13
ENDMDL
MODEL 8
REMARK VINA RESULT:    -6.624      3.022      9.089
REMARK INTER + INTRA:         -14.308
REMARK INTER:                 -12.543
REMARK INTRA:                  -1.765
REMARK UNBOUND:                -2.649
REMARK  Name = 
REMARK  14 active torsions:
REMARK  status: ('A' for Active; 'I' for Inactive)
REMARK    1  A    between atoms: C_1  and  C_2
REMARK    2  A    between atoms: C_2  and  C_3
REMARK    3  A    between atoms: C_3  and  C_4
REMARK    4  A    between atoms: C_4  and  C_5
REMARK    5  A    between atoms: C_5  and  C_6
REMARK    6  A    between atoms: C_6  and  O_7
REMARK    7  A    between atoms: O_7  and  C_8
REMARK    8  A    between atoms: C_15  and  C_16
REMARK    9  A    between atoms: N_18  and  C_19
REMARK   10  A    between atoms: C_19  and  C_20
REMARK   11  A    between atoms: C_23  and  C_24
REMARK   12  A    between atoms: C_24  and  N_25
REMARK   13  A    between atoms: N_25  and  C_26
REMARK   14  A    between atoms: C_26  and  C_27
REMARK                            x       y       z     vdW  Elec       q    Type
REMARK                         _______ _______ _______ _____ _____    ______ ____
ROOT
ATOM     16  C   UNL     1      47.011   4.352  14.479  0.00  0.00    +0.000 C 
ATOM     17  O   UNL     1      47.159   3.241  13.972  0.00  0.00    +0.000 OA
ATOM     18  N   UNL     1      47.132   4.538  15.835  0.00  0.00    +0.000 N 
ATOM     36  H   UNL     1      46.935   5.439  16.250  0.00  0.00    +0.000 HD
ENDROOT
BRANCH  16  15
ATOM      8  C   UNL     1      44.264   5.122  12.514  0.00  0.00    +0.000 A 
ATOM      9  N   UNL     1      43.316   5.744  11.776  0.00  0.00    +0.000 NA
ATOM     10  C   UNL     1      43.548   6.983  11.338  0.00  0.00    +0.000 A 
ATOM     11  N   UNL     1      44.643   7.701  11.534  0.00  0.00    +0.000 NA
ATOM     12  C   UNL     1      45.556   7.069  12.289  0.00  0.00    +0.000 A 
ATOM     13  S   UNL     1      47.008   7.868  12.655  0.00  0.00    +0.000 S 
ATOM     14  C   UNL     1      47.533   6.567  13.602  0.00  0.00    +0.000 A 
ATOM     15  C   UNL     1      46.642   5.499  13.644  0.00  0.00    +0.000 A 
ATOM     35  C   UNL     1      45.461   5.790  12.840  0.00  0.00    +0.000 A 
BRANCH   8   7
ATOM      7  O   UNL     1      43.981   3.848  12.978  0.00  0.00    +0.000 OA
BRANCH   7   6
ATOM      6  C   UNL     1      43.739   2.908  11.916  0.00  0.00    +0.000 C 
BRANCH   6   5
ATOM      5  C   UNL     1      44.881   2.927  10.900  0.00  0.00    +0.000 C 
BRANCH   5   4
ATOM      4  C   UNL     1      44.477   2.621   9.452  0.00  0.00    +0.000 C 
BRANCH   4   3
ATOM      3  C   UNL     1      44.793   3.681   8.388  0.00  0.00    +0.000 C 
BRANCH   3   2
ATOM      1  C   UNL     1      46.619   2.071   7.551  0.00  0.00    +0.000 C 
ATOM      2  C   UNL     1      46.067   3.489   7.557  0.00  0.00    +0.000 C 
ENDBRANCH   3   2
ENDBRANCH   4   3
ENDBRANCH   5   4
ENDBRANCH   6   5
ENDBRANCH   7   6
ENDBRANCH   8   7
ENDBRANCH  16  15
BRANCH  18  19
ATOM     19  C   UNL     1      47.336   3.393  16.698  0.00  0.00    +0.000 C 
BRANCH  19  20
ATOM     20  C   UNL     1      48.747   3.256  17.198  0.00  0.00    +0.000 A 
ATOM     21  C   UNL     1      49.509   2.101  16.970  0.00  0.00    +0.000 A 
ATOM     22  C   UNL     1      50.883   2.088  17.248  0.00  0.00    +0.000 A 
ATOM     23  C   UNL     1      51.520   3.235  17.738  0.00  0.00    +0.000 A 
ATOM     33  C   UNL     1      50.736   4.355  18.039  0.00  0.00    +0.000 A 
ATOM     34  C   UNL     1      49.371   4.369  17.771  0.00  0.00    +0.000 A 
BRANCH  23  24
ATOM     24  C   UNL     1      53.010   3.327  17.974  0.00  0.00    +0.000 C 
BRANCH  24  25
ATOM     25  N   UNL     1      53.497   4.699  18.123  0.00  0.00    +0.000 NA
ATOM     37  H   UNL     1      53.933   4.804  19.038  0.00  0.00    +0.000 HD
BRANCH  25  26
ATOM     26  C   UNL     1      54.511   4.980  17.101  0.00  0.00    +0.000 C 
BRANCH  26  27
ATOM     27  C   UNL     1      54.051   6.047  16.140  0.00  0.00    +0.000 A 
ATOM     28  C   UNL     1      52.795   6.655  16.283  0.00  0.00    +0.000 A 
ATOM     29  C   UNL     1      52.394   7.662  15.403  0.00  0.00    +0.000 A 
ATOM     30  C   UNL     1      53.242   8.072  14.375  0.00  0.00    +0.000 A 
ATOM     31  C   UNL     1      54.491   7.473  14.222  0.00  0.00    +0.000 A 
ATOM     32  C   UNL     1      54.894   6.468  15.101  0.00  0.00    +0.000 A 
ENDBRANCH  26  27
ENDBRANCH  25  26
ENDBRANCH  24  25
ENDBRANCH  23  24
ENDBRANCH  19  20
ENDBRANCH  18  19
TORSDOF 13
ENDMDL
MODEL 9
REMARK VINA RESULT:    -6.540      2.559      3.750
REMARK INTER + INTRA:         -14.160
REMARK INTER:                 -11.853
REMARK INTRA:                  -2.307
REMARK UNBOUND:                -2.649
REMARK  Name = 
REMARK  14 active torsions:
REMARK  status: ('A' for Active; 'I' for Inactive)
REMARK    1  A    between atoms: C_1  and  C_2
REMARK    2  A    between atoms: C_2  and  C_3
REMARK    3  A    between atoms: C_3  and  C_4
REMARK    4  A    between atoms: C_4  and  C_5
REMARK    5  A    between atoms: C_5  and  C_6
REMARK    6  A    between atoms: C_6  and  O_7
REMARK    7  A    between atoms: O_7  and  C_8
REMARK    8  A    between atoms: C_15  and  C_16
REMARK    9  A    between atoms: N_18  and  C_19
REMARK   10  A    between atoms: C_19  and  C_20
REMARK   11  A    between atoms: C_23  and  C_24
REMARK   12  A    between atoms: C_24  and  N_25
REMARK   13  A    between atoms: N_25  and  C_26
REMARK   14  A    between atoms: C_26  and  C_27
REMARK                            x       y       z     vdW  Elec       q    Type
REMARK                         _______ _______ _______ _____ _____    ______ ____
ROOT
ATOM     16  C   UNL     1      48.777   8.999  12.401  0.00  0.00    +0.000 C 
ATOM     17  O   UNL     1      48.450   9.936  11.674  0.00  0.00    +0.000 OA
ATOM     18  N   UNL     1      47.839   8.142  12.923  0.00  0.00    +0.000 N 
ATOM     36  H   UNL     1      48.110   7.421  13.580  0.00  0.00    +0.000 HD
ENDROOT
BRANCH  16  15
ATOM      8  C   UNL     1      50.386   7.797  15.224  0.00  0.00    +0.000 A 
ATOM      9  N   UNL     1      51.280   7.297  16.106  0.00  0.00    +0.000 NA
ATOM     10  C   UNL     1      52.576   7.303  15.788  0.00  0.00    +0.000 A 
ATOM     11  N   UNL     1      53.116   7.773  14.674  0.00  0.00    +0.000 NA
ATOM     12  C   UNL     1      52.204   8.242  13.806  0.00  0.00    +0.000 A 
ATOM     13  S   UNL     1      52.734   8.855  12.316  0.00  0.00    +0.000 S 
ATOM     14  C   UNL     1      51.141   9.147  11.822  0.00  0.00    +0.000 A 
ATOM     15  C   UNL     1      50.183   8.813  12.773  0.00  0.00    +0.000 A 
ATOM     35  C   UNL     1      50.819   8.286  13.975  0.00  0.00    +0.000 A 
BRANCH   8   7
ATOM      7  O   UNL     1      49.046   7.748  15.571  0.00  0.00    +0.000 OA
BRANCH   7   6
ATOM      6  C   UNL     1      48.656   6.474  16.114  0.00  0.00    +0.000 C 
BRANCH   6   5
ATOM      5  C   UNL     1      48.139   5.546  15.014  0.00  0.00    +0.000 C 
BRANCH   5   4
ATOM      4  C   UNL     1      47.180   4.444  15.480  0.00  0.00    +0.000 C 
BRANCH   4   3
ATOM      3  C   UNL     1      47.138   4.127  16.982  0.00  0.00    +0.000 C 
BRANCH   3   2
ATOM      1  C   UNL     1      49.281   2.728  17.250  0.00  0.00    +0.000 C 
ATOM      2  C   UNL     1      47.774   2.812  17.443  0.00  0.00    +0.000 C 
ENDBRANCH   3   2
ENDBRANCH   4   3
ENDBRANCH   5   4
ENDBRANCH   6   5
ENDBRANCH   7   6
ENDBRANCH   8   7
ENDBRANCH  16  15
BRANCH  18  19
ATOM     19  C   UNL     1      46.431   8.402  12.701  0.00  0.00    +0.000 C 
BRANCH  19  20
ATOM     20  C   UNL     1      45.662   7.199  12.232  0.00  0.00    +0.000 A 
ATOM     21  C   UNL     1      45.789   6.695  10.929  0.00  0.00    +0.000 A 
ATOM     22  C   UNL     1      45.237   5.452  10.589  0.00  0.00    +0.000 A 
ATOM     23  C   UNL     1      44.569   4.684  11.550  0.00  0.00    +0.000 A 
ATOM     33  C   UNL     1      44.377   5.232  12.824  0.00  0.00    +0.000 A 
ATOM     34  C   UNL     1      44.917   6.468  13.163  0.00  0.00    +0.000 A 
BRANCH  23  24
ATOM     24  C   UNL     1      44.029   3.298  11.284  0.00  0.00    +0.000 C 
BRANCH  24  25
ATOM     25  N   UNL     1      44.992   2.409  10.632  0.00  0.00    +0.000 NA
ATOM     37  H   UNL     1      45.065   1.543  11.165  0.00  0.00    +0.000 HD
BRANCH  25  26
ATOM     26  C   UNL     1      44.525   2.074   9.282  0.00  0.00    +0.000 C 
BRANCH  26  27
ATOM     27  C   UNL     1      45.628   2.215   8.262  0.00  0.00    +0.000 A 
ATOM     28  C   UNL     1      46.487   1.145   7.975  0.00  0.00    +0.000 A 
ATOM     29  C   UNL     1      47.484   1.280   7.007  0.00  0.00    +0.000 A 
ATOM     30  C   UNL     1      47.632   2.483   6.318  0.00  0.00    +0.000 A 
ATOM     31  C   UNL     1      46.785   3.554   6.598  0.00  0.00    +0.000 A 
ATOM     32  C   UNL     1      45.787   3.420   7.562  0.00  0.00    +0.000 A 
ENDBRANCH  26  27
ENDBRANCH  25  26
ENDBRANCH  24  25
ENDBRANCH  23  24
ENDBRANCH  19  20
ENDBRANCH  18  19
TORSDOF 13
ENDMDL
