MODEL 1
REMARK VINA RESULT:    -7.572      0.000      0.000
REMARK INTER + INTRA:         -11.199
REMARK INTER:                 -10.671
REMARK INTRA:                  -0.528
REMARK UNBOUND:                -0.528
REMARK  Name = 
REMARK  9 active torsions:
REMARK  status: ('A' for Active; 'I' for Inactive)
REMARK    1  A    between atoms: C_1  and  C_2
REMARK    2  A    between atoms: C_2  and  N_3
REMARK    3  A    between atoms: N_3  and  C_4
REMARK    4  A    between atoms: N_3  and  C_6
REMARK    5  A    between atoms: C_4  and  C_5
REMARK    6  A    between atoms: C_6  and  C_7
REMARK    7  A    between atoms: C_10  and  C_11
REMARK    8  A    between atoms: C_11  and  N_12
REMARK    9  A    between atoms: C_13  and  C_15
REMARK                            x       y       z     vdW  Elec       q    Type
REMARK                         _______ _______ _______ _____ _____    ______ ____
ROOT
ATOM     12  N   UNL     1      45.499   6.143  13.512  0.00  0.00    +0.000 N 
ATOM     13  C   UNL     1      46.309   5.162  14.012  0.00  0.00    +0.000 C 
ATOM     14  O   UNL     1      46.096   3.959  13.846  0.00  0.00    +0.000 OA
ATOM     27  H   UNL     1      45.496   7.029  14.013  0.00  0.00    +0.000 HD
ENDROOT
BRANCH  13  15
ATOM     15  C   UNL     1      47.503   5.641  14.713  0.00  0.00    +0.000 A 
ATOM     16  C   UNL     1      48.298   6.640  14.168  0.00  0.00    +0.000 A 
ATOM     17  S   UNL     1      49.601   7.090  15.180  0.00  0.00    +0.000 S 
ATOM     18  C   UNL     1      49.166   5.937  16.345  0.00  0.00    +0.000 A 
ATOM     19  N   UNL     1      49.896   5.772  17.487  0.00  0.00    +0.000 NA
ATOM     20  C   UNL     1      49.476   4.824  18.264  0.00  0.00    +0.000 A 
ATOM     21  N   UNL     1      48.380   4.028  18.011  0.00  0.00    +0.000 N 
ATOM     22  C   UNL     1      47.576   4.212  16.926  0.00  0.00    +0.000 A 
ATOM     23  O   UNL     1      46.537   3.570  16.784  0.00  0.00    +0.000 OA
ATOM     24  C   UNL     1      48.037   5.233  15.990  0.00  0.00    +0.000 A 
ATOM     28  H   UNL     1      48.087   3.334  18.673  0.00  0.00    +0.000 HD
ENDBRANCH  13  15
BRANCH  12  11
ATOM     11  C   UNL     1      44.319   5.856  12.751  0.00  0.00    +0.000 C 
BRANCH  11  10
ATOM      7  C   UNL     1      45.202   4.184   8.842  0.00  0.00    +0.000 A 
ATOM      8  C   UNL     1      45.885   5.315   9.282  0.00  0.00    +0.000 A 
ATOM      9  C   UNL     1      45.595   5.889  10.531  0.00  0.00    +0.000 A 
ATOM     10  C   UNL     1      44.608   5.332  11.362  0.00  0.00    +0.000 A 
ATOM     25  C   UNL     1      43.889   4.231  10.889  0.00  0.00    +0.000 A 
ATOM     26  C   UNL     1      44.178   3.656   9.649  0.00  0.00    +0.000 A 
BRANCH   7   6
ATOM      6  C   UNL     1      45.612   3.467   7.569  0.00  0.00    +0.000 C 
BRANCH   6   3
ATOM      3  N   UNL     1      46.685   2.464   7.769  0.00  0.00    +0.000 NA
BRANCH   3   4
ATOM      4  C   UNL     1      47.593   2.425   6.606  0.00  0.00    +0.000 C 
ATOM      5  C   UNL     1      46.982   2.844   5.273  0.00  0.00    +0.000 C 
ENDBRANCH   3   4
BRANCH   3   2
ATOM      1  C   UNL     1      46.811  -0.075   7.610  0.00  0.00    +0.000 C 
ATOM      2  C   UNL     1      46.066   1.163   8.089  0.00  0.00    +0.000 C 
ENDBRANCH   3   2
ENDBRANCH   6   3
ENDBRANCH   7   6
ENDBRANCH  11  10
ENDBRANCH  12  11
TORSDOF 7
ENDMDL
MODEL 2
REMARK VINA RESULT:    -7.053      2.013      3.224
REMARK INTER + INTRA:         -10.466
REMARK INTER:                  -9.068
REMARK INTRA:                  -1.399
REMARK UNBOUND:                -0.528
REMARK  Name = 
REMARK  9 active torsions:
REMARK  status: ('A' for Active; 'I' for Inactive)
REMARK    1  A    between atoms: C_1  and  C_2
REMARK    2  A    between atoms: C_2  and  N_3
REMARK    3  A    between atoms: N_3  and  C_4
REMARK    4  A    between atoms: N_3  and  C_6
REMARK    5  A    between atoms: C_4  and  C_5
REMARK    6  A    between atoms: C_6  and  C_7
REMARK    7  A    between atoms: C_10  and  C_11
REMARK    8  A    between atoms: C_11  and  N_12
REMARK    9  A    between atoms: C_13  and  C_15
REMARK                            x       y       z     vdW  Elec       q    Type
REMARK                         _______ _______ _______ _____ _____    ______ ____
ROOT
ATOM     12  N   UNL     1      47.627   7.607  14.677  0.00  0.00    +0.000 N 
ATOM     13  C   UNL     1      48.853   7.007  14.754  0.00  0.00    +0.000 C 
ATOM     14  O   UNL     1      49.686   7.052  13.846  0.00  0.00    +0.000 OA
ATOM     27  H   UNL     1      46.884   7.198  15.241  0.00  0.00    +0.000 HD
ENDROOT
BRANCH  13  15
ATOM     15  C   UNL     1      49.144   6.353  16.033  0.00  0.00    +0.000 A 
ATOM     16  C   UNL     1      50.122   6.850  16.883  0.00  0.00    +0.000 A 
ATOM     17  S   UNL     1      50.252   5.974  18.345  0.00  0.00    +0.000 S 
ATOM     18  C   UNL     1      49.044   4.886  17.864  0.00  0.00    +0.000 A 
ATOM     19  N   UNL     1      48.669   3.843  18.662  0.00  0.00    +0.000 NA
ATOM     20  C   UNL     1      47.769   3.066  18.147  0.00  0.00    +0.000 A 
ATOM     21  N   UNL     1      47.195   3.241  16.907  0.00  0.00    +0.000 N 
ATOM     22  C   UNL     1      47.478   4.312  16.114  0.00  0.00    +0.000 A 
ATOM     23  O   UNL     1      46.866   4.512  15.066  0.00  0.00    +0.000 OA
ATOM     24  C   UNL     1      48.527   5.189  16.624  0.00  0.00    +0.000 A 
ATOM     28  H   UNL     1      46.475   2.622  16.583  0.00  0.00    +0.000 HD
ENDBRANCH  13  15
BRANCH  12  11
ATOM     11  C   UNL     1      47.198   8.339  13.523  0.00  0.00    +0.000 C 
BRANCH  11  10
ATOM      7  C   UNL     1      44.811   5.860  10.875  0.00  0.00    +0.000 A 
ATOM      8  C   UNL     1      46.195   5.894  10.731  0.00  0.00    +0.000 A 
ATOM      9  C   UNL     1      46.984   6.710  11.558  0.00  0.00    +0.000 A 
ATOM     10  C   UNL     1      46.390   7.512  12.548  0.00  0.00    +0.000 A 
ATOM     25  C   UNL     1      44.996   7.513  12.649  0.00  0.00    +0.000 A 
ATOM     26  C   UNL     1      44.209   6.699  11.830  0.00  0.00    +0.000 A 
BRANCH   7   6
ATOM      6  C   UNL     1      43.965   4.871  10.094  0.00  0.00    +0.000 C 
BRANCH   6   3
ATOM      3  N   UNL     1      44.414   3.464  10.234  0.00  0.00    +0.000 NA
BRANCH   3   4
ATOM      4  C   UNL     1      44.520   2.812   8.914  0.00  0.00    +0.000 C 
ATOM      5  C   UNL     1      45.422   3.508   7.900  0.00  0.00    +0.000 C 
ENDBRANCH   3   4
BRANCH   3   2
ATOM      1  C   UNL     1      43.784   2.988  12.655  0.00  0.00    +0.000 C 
ATOM      2  C   UNL     1      43.513   2.769  11.174  0.00  0.00    +0.000 C 
ENDBRANCH   3   2
ENDBRANCH   6   3
ENDBRANCH   7   6
ENDBRANCH  11  10
ENDBRANCH  12  11
TORSDOF 7
ENDMDL
MODEL 3
REMARK VINA RESULT:    -7.028      3.939      8.947
REMARK INTER + INTRA:         -10.431
REMARK INTER:                  -9.520
REMARK INTRA:                  -0.912
REMARK UNBOUND:                -0.528
REMARK  Name = 
REMARK  9 active torsions:
REMARK  status: ('A' for Active; 'I' for Inactive)
REMARK    1  A    between atoms: C_1  and  C_2
REMARK    2  A    between atoms: C_2  and  N_3
REMARK    3  A    between atoms: N_3  and  C_4
REMARK    4  A    between atoms: N_3  and  C_6
REMARK    5  A    between atoms: C_4  and  C_5
REMARK    6  A    between atoms: C_6  and  C_7
REMARK    7  A    between atoms: C_10  and  C_11
REMARK    8  A    between atoms: C_11  and  N_12
REMARK    9  A    between atoms: C_13  and  C_15
REMARK                            x       y       z     vdW  Elec       q    Type
REMARK                         _______ _______ _______ _____ _____    ______ ____
ROOT
ATOM     12  N   UNL     1      46.762   4.568  15.767  0.00  0.00    +0.000 N 
ATOM     13  C   UNL     1      46.767   4.261  14.435  0.00  0.00    +0.000 C 
ATOM     14  O   UNL     1      47.157   3.178  13.992  0.00  0.00    +0.000 OA
ATOM     27  H   UNL     1      46.829   5.556  16.006  0.00  0.00    +0.000 HD
ENDROOT
BRANCH  13  15
ATOM     15  C   UNL     1      46.206   5.292  13.558  0.00  0.00    +0.000 A 
ATOM     16  C   UNL     1      46.920   6.446  13.266  0.00  0.00    +0.000 A 
ATOM     17  S   UNL     1      46.107   7.483  12.176  0.00  0.00    +0.000 S 
ATOM     18  C   UNL     1      44.768   6.445  12.102  0.00  0.00    +0.000 A 
ATOM     19  N   UNL     1      43.673   6.751  11.346  0.00  0.00    +0.000 NA
ATOM     20  C   UNL     1      42.707   5.891  11.421  0.00  0.00    +0.000 A 
ATOM     21  N   UNL     1      42.737   4.739  12.176  0.00  0.00    +0.000 N 
ATOM     22  C   UNL     1      43.839   4.353  12.879  0.00  0.00    +0.000 A 
ATOM     23  O   UNL     1      43.886   3.264  13.447  0.00  0.00    +0.000 OA
ATOM     24  C   UNL     1      44.937   5.315  12.872  0.00  0.00    +0.000 A 
ATOM     28  H   UNL     1      41.968   4.096  12.161  0.00  0.00    +0.000 HD
ENDBRANCH  13  15
BRANCH  12  11
ATOM     11  C   UNL     1      47.221   3.655  16.771  0.00  0.00    +0.000 C 
BRANCH  11  10
ATOM      7  C   UNL     1      51.488   3.698  17.579  0.00  0.00    +0.000 A 
ATOM      8  C   UNL     1      50.792   4.899  17.466  0.00  0.00    +0.000 A 
ATOM      9  C   UNL     1      49.418   4.909  17.177  0.00  0.00    +0.000 A 
ATOM     10  C   UNL     1      48.716   3.704  16.995  0.00  0.00    +0.000 A 
ATOM     25  C   UNL     1      49.433   2.506  17.056  0.00  0.00    +0.000 A 
ATOM     26  C   UNL     1      50.800   2.493  17.347  0.00  0.00    +0.000 A 
BRANCH   7   6
ATOM      6  C   UNL     1      52.933   3.670  18.042  0.00  0.00    +0.000 C 
BRANCH   6   3
ATOM      3  N   UNL     1      53.170   2.772  19.198  0.00  0.00    +0.000 NA
BRANCH   3   4
ATOM      4  C   UNL     1      53.493   3.551  20.411  0.00  0.00    +0.000 C 
ATOM      5  C   UNL     1      52.404   4.500  20.899  0.00  0.00    +0.000 C 
ENDBRANCH   3   4
BRANCH   3   2
ATOM      1  C   UNL     1      53.789   0.717  17.827  0.00  0.00    +0.000 C 
ATOM      2  C   UNL     1      54.203   1.785  18.829  0.00  0.00    +0.000 C 
ENDBRANCH   3   2
ENDBRANCH   6   3
ENDBRANCH   7   6
ENDBRANCH  11  10
ENDBRANCH  12  11
TORSDOF 7
ENDMDL
MODEL 4
REMARK VINA RESULT:    -7.026      3.927      8.847
REMARK INTER + INTRA:         -10.428
REMARK INTER:                  -9.403
REMARK INTRA:                  -1.025
REMARK UNBOUND:                -0.528
REMARK  Name = 
REMARK  9 active torsions:
REMARK  status: ('A' for Active; 'I' for Inactive)
REMARK    1  A    between atoms: C_1  and  C_2
REMARK    2  A    between atoms: C_2  and  N_3
REMARK    3  A    between atoms: N_3  and  C_4
REMARK    4  A    between atoms: N_3  and  C_6
REMARK    5  A    between atoms: C_4  and  C_5
REMARK    6  A    between atoms: C_6  and  C_7
REMARK    7  A    between atoms: C_10  and  C_11
REMARK    8  A    between atoms: C_11  and  N_12
REMARK    9  A    between atoms: C_13  and  C_15
REMARK                            x       y       z     vdW  Elec       q    Type
REMARK                         _______ _______ _______ _____ _____    ______ ____
ROOT
ATOM     12  N   UNL     1      46.834   4.449  15.823  0.00  0.00    +0.000 N 
ATOM     13  C   UNL     1      46.873   4.186  14.483  0.00  0.00    +0.000 C 
ATOM     14  O   UNL     1      47.209   3.095  14.017  0.00  0.00    +0.000 OA
ATOM     27  H   UNL     1      46.956   5.421  16.100  0.00  0.00    +0.000 HD
ENDROOT
BRANCH  13  15
ATOM     15  C   UNL     1      46.419   5.282  13.622  0.00  0.00    +0.000 A 
ATOM     16  C   UNL     1      47.228   6.384  13.382  0.00  0.00    +0.000 A 
ATOM     17  S   UNL     1      46.529   7.510  12.302  0.00  0.00    +0.000 S 
ATOM     18  C   UNL     1      45.116   6.583  12.164  0.00  0.00    +0.000 A 
ATOM     19  N   UNL     1      44.069   6.995  11.389  0.00  0.00    +0.000 NA
ATOM     20  C   UNL     1      43.038   6.211  11.414  0.00  0.00    +0.000 A 
ATOM     21  N   UNL     1      42.957   5.040  12.136  0.00  0.00    +0.000 N 
ATOM     22  C   UNL     1      44.006   4.550  12.856  0.00  0.00    +0.000 A 
ATOM     23  O   UNL     1      43.952   3.445  13.393  0.00  0.00    +0.000 OA
ATOM     24  C   UNL     1      45.175   5.423  12.904  0.00  0.00    +0.000 A 
ATOM     28  H   UNL     1      42.141   4.460  12.083  0.00  0.00    +0.000 HD
ENDBRANCH  13  15
BRANCH  12  11
ATOM     11  C   UNL     1      47.189   3.475  16.811  0.00  0.00    +0.000 C 
BRANCH  11  10
ATOM      7  C   UNL     1      51.430   3.058  17.648  0.00  0.00    +0.000 A 
ATOM      8  C   UNL     1      50.810   4.294  17.810  0.00  0.00    +0.000 A 
ATOM      9  C   UNL     1      49.446   4.458  17.518  0.00  0.00    +0.000 A 
ATOM     10  C   UNL     1      48.679   3.375  17.055  0.00  0.00    +0.000 A 
ATOM     25  C   UNL     1      49.321   2.152  16.842  0.00  0.00    +0.000 A 
ATOM     26  C   UNL     1      50.677   1.986  17.136  0.00  0.00    +0.000 A 
BRANCH   7   6
ATOM      6  C   UNL     1      52.859   2.832  18.104  0.00  0.00    +0.000 C 
BRANCH   6   3
ATOM      3  N   UNL     1      53.566   4.079  18.487  0.00  0.00    +0.000 NA
BRANCH   3   4
ATOM      4  C   UNL     1      54.566   4.451  17.466  0.00  0.00    +0.000 C 
ATOM      5  C   UNL     1      54.246   5.697  16.647  0.00  0.00    +0.000 C 
ENDBRANCH   3   4
BRANCH   3   2
ATOM      1  C   UNL     1      53.155   4.065  21.000  0.00  0.00    +0.000 C 
ATOM      2  C   UNL     1      54.129   3.910  19.841  0.00  0.00    +0.000 C 
ENDBRANCH   3   2
ENDBRANCH   6   3
ENDBRANCH   7   6
ENDBRANCH  11  10
ENDBRANCH  12  11
TORSDOF 7
ENDMDL
MODEL 5
REMARK VINA RESULT:    -6.907      1.527      2.033
REMARK INTER + INTRA:         -10.261
REMARK INTER:                  -9.677
REMARK INTRA:                  -0.584
REMARK UNBOUND:                -0.528
REMARK  Name = 
REMARK  9 active torsions:
REMARK  status: ('A' for Active; 'I' for Inactive)
REMARK    1  A    between atoms: C_1  and  C_2
REMARK    2  A    between atoms: C_2  and  N_3
REMARK    3  A    between atoms: N_3  and  C_4
REMARK    4  A    between atoms: N_3  and  C_6
REMARK    5  A    between atoms: C_4  and  C_5
REMARK    6  A    between atoms: C_6  and  C_7
REMARK    7  A    between atoms: C_10  and  C_11
REMARK    8  A    between atoms: C_11  and  N_12
REMARK    9  A    between atoms: C_13  and  C_15
REMARK                            x       y       z     vdW  Elec       q    Type
REMARK                         _______ _______ _______ _____ _____    ______ ____
ROOT
ATOM     12  N   UNL     1      46.995   6.992  14.022  0.00  0.00    +0.000 N 
ATOM     13  C   UNL     1      48.295   6.641  14.252  0.00  0.00    +0.000 C 
ATOM     14  O   UNL     1      49.174   6.699  13.389  0.00  0.00    +0.000 OA
ATOM     27  H   UNL     1      46.293   6.544  14.608  0.00  0.00    +0.000 HD
ENDROOT
BRANCH  13  15
ATOM     15  C   UNL     1      48.598   6.250  15.631  0.00  0.00    +0.000 A 
ATOM     16  C   UNL     1      49.351   7.071  16.458  0.00  0.00    +0.000 A 
ATOM     17  S   UNL     1      49.529   6.451  18.041  0.00  0.00    +0.000 S 
ATOM     18  C   UNL     1      48.647   5.056  17.653  0.00  0.00    +0.000 A 
ATOM     19  N   UNL     1      48.438   4.069  18.574  0.00  0.00    +0.000 NA
ATOM     20  C   UNL     1      47.789   3.041  18.126  0.00  0.00    +0.000 A 
ATOM     21  N   UNL     1      47.315   2.911  16.839  0.00  0.00    +0.000 N 
ATOM     22  C   UNL     1      47.430   3.904  15.912  0.00  0.00    +0.000 A 
ATOM     23  O   UNL     1      46.895   3.813  14.809  0.00  0.00    +0.000 OA
ATOM     24  C   UNL     1      48.201   5.062  16.350  0.00  0.00    +0.000 A 
ATOM     28  H   UNL     1      46.787   2.103  16.566  0.00  0.00    +0.000 HD
ENDBRANCH  13  15
BRANCH  12  11
ATOM     11  C   UNL     1      46.534   7.453  12.746  0.00  0.00    +0.000 C 
BRANCH  11  10
ATOM      7  C   UNL     1      45.035   4.174  10.326  0.00  0.00    +0.000 A 
ATOM      8  C   UNL     1      45.613   5.281   9.710  0.00  0.00    +0.000 A 
ATOM      9  C   UNL     1      46.078   6.365  10.472  0.00  0.00    +0.000 A 
ATOM     10  C   UNL     1      45.969   6.354  11.874  0.00  0.00    +0.000 A 
ATOM     25  C   UNL     1      45.339   5.263  12.479  0.00  0.00    +0.000 A 
ATOM     26  C   UNL     1      44.878   4.182  11.723  0.00  0.00    +0.000 A 
BRANCH   7   6
ATOM      6  C   UNL     1      44.671   2.935   9.528  0.00  0.00    +0.000 C 
BRANCH   6   3
ATOM      3  N   UNL     1      45.708   2.533   8.546  0.00  0.00    +0.000 NA
BRANCH   3   4
ATOM      4  C   UNL     1      45.514   3.233   7.261  0.00  0.00    +0.000 C 
ATOM      5  C   UNL     1      46.787   3.664   6.541  0.00  0.00    +0.000 C 
ENDBRANCH   3   4
BRANCH   3   2
ATOM      1  C   UNL     1      46.842   0.449   7.622  0.00  0.00    +0.000 C 
ATOM      2  C   UNL     1      45.709   1.062   8.432  0.00  0.00    +0.000 C 
ENDBRANCH   3   2
ENDBRANCH   6   3
ENDBRANCH   7   6
ENDBRANCH  11  10
ENDBRANCH  12  11
TORSDOF 7
ENDMDL
MODEL 6
REMARK VINA RESULT:    -6.614      3.667      8.597
REMARK INTER + INTRA:          -9.848
REMARK INTER:                  -8.910
REMARK INTRA:                  -0.938
REMARK UNBOUND:                -0.528
REMARK  Name = 
REMARK  9 active torsions:
REMARK  status: ('A' for Active; 'I' for Inactive)
REMARK    1  A    between atoms: C_1  and  C_2
REMARK    2  A    between atoms: C_2  and  N_3
REMARK    3  A    between atoms: N_3  and  C_4
REMARK    4  A    between atoms: N_3  and  C_6
REMARK    5  A    between atoms: C_4  and  C_5
REMARK    6  A    between atoms: C_6  and  C_7
REMARK    7  A    between atoms: C_10  and  C_11
REMARK    8  A    between atoms: C_11  and  N_12
REMARK    9  A    between atoms: C_13  and  C_15
REMARK                            x       y       z     vdW  Elec       q    Type
REMARK                         _______ _______ _______ _____ _____    ______ ____
ROOT
ATOM     12  N   UNL     1      47.841   5.845  16.192  0.00  0.00    +0.000 N 
ATOM     13  C   UNL     1      48.364   6.270  15.003  0.00  0.00    +0.000 C 
ATOM     14  O   UNL     1      49.541   6.610  14.864  0.00  0.00    +0.000 OA
ATOM     27  H   UNL     1      46.841   5.982  16.324  0.00  0.00    +0.000 HD
ENDROOT
BRANCH  13  15
ATOM     15  C   UNL     1      47.437   6.231  13.869  0.00  0.00    +0.000 A 
ATOM     16  C   UNL     1      47.118   7.385  13.167  0.00  0.00    +0.000 A 
ATOM     17  S   UNL     1      46.071   7.102  11.846  0.00  0.00    +0.000 S 
ATOM     18  C   UNL     1      45.979   5.447  12.202  0.00  0.00    +0.000 A 
ATOM     19  N   UNL     1      45.210   4.601  11.455  0.00  0.00    +0.000 NA
ATOM     20  C   UNL     1      45.199   3.374  11.869  0.00  0.00    +0.000 A 
ATOM     21  N   UNL     1      45.897   2.906  12.961  0.00  0.00    +0.000 N 
ATOM     22  C   UNL     1      46.739   3.696  13.685  0.00  0.00    +0.000 A 
ATOM     23  O   UNL     1      47.444   3.229  14.578  0.00  0.00    +0.000 OA
ATOM     24  C   UNL     1      46.748   5.101  13.291  0.00  0.00    +0.000 A 
ATOM     28  H   UNL     1      45.873   1.934  13.207  0.00  0.00    +0.000 HD
ENDBRANCH  13  15
BRANCH  12  11
ATOM     11  C   UNL     1      48.620   5.764  17.392  0.00  0.00    +0.000 C 
BRANCH  11  10
ATOM      7  C   UNL     1      51.561   2.570  17.462  0.00  0.00    +0.000 A 
ATOM      8  C   UNL     1      51.979   3.897  17.500  0.00  0.00    +0.000 A 
ATOM      9  C   UNL     1      51.047   4.946  17.450  0.00  0.00    +0.000 A 
ATOM     10  C   UNL     1      49.670   4.676  17.359  0.00  0.00    +0.000 A 
ATOM     25  C   UNL     1      49.263   3.342  17.265  0.00  0.00    +0.000 A 
ATOM     26  C   UNL     1      50.189   2.296  17.318  0.00  0.00    +0.000 A 
BRANCH   7   6
ATOM      6  C   UNL     1      52.543   1.432  17.670  0.00  0.00    +0.000 C 
BRANCH   6   3
ATOM      3  N   UNL     1      53.954   1.877  17.781  0.00  0.00    +0.000 NA
BRANCH   3   4
ATOM      4  C   UNL     1      54.799   1.202  16.776  0.00  0.00    +0.000 C 
ATOM      5  C   UNL     1      54.429  -0.243  16.461  0.00  0.00    +0.000 C 
ENDBRANCH   3   4
BRANCH   3   2
ATOM      1  C   UNL     1      55.700   2.376  19.566  0.00  0.00    +0.000 C 
ATOM      2  C   UNL     1      54.405   1.680  19.172  0.00  0.00    +0.000 C 
ENDBRANCH   3   2
ENDBRANCH   6   3
ENDBRANCH   7   6
ENDBRANCH  11  10
ENDBRANCH  12  11
TORSDOF 7
ENDMDL
MODEL 7
REMARK VINA RESULT:    -6.610      4.201      8.781
REMARK INTER + INTRA:          -9.843
REMARK INTER:                  -8.648
REMARK INTRA:                  -1.195
REMARK UNBOUND:                -0.528
REMARK  Name = 
REMARK  9 active torsions:
REMARK  status: ('A' for Active; 'I' for Inactive)
REMARK    1  A    between atoms: C_1  and  C_2
REMARK    2  A    between atoms: C_2  and  N_3
REMARK    3  A    between atoms: N_3  and  C_4
REMARK    4  A    between atoms: N_3  and  C_6
REMARK    5  A    between atoms: C_4  and  C_5
REMARK    6  A    between atoms: C_6  and  C_7
REMARK    7  A    between atoms: C_10  and  C_11
REMARK    8  A    between atoms: C_11  and  N_12
REMARK    9  A    between atoms: C_13  and  C_15
REMARK                            x       y       z     vdW  Elec       q    Type
REMARK                         _______ _______ _______ _____ _____    ______ ____
ROOT
ATOM     12  N   UNL     1      46.979   4.556  15.942  0.00  0.00    +0.000 N 
ATOM     13  C   UNL     1      47.031   4.253  14.610  0.00  0.00    +0.000 C 
ATOM     14  O   UNL     1      47.274   3.123  14.182  0.00  0.00    +0.000 OA
ATOM     27  H   UNL     1      47.185   5.520  16.198  0.00  0.00    +0.000 HD
ENDROOT
BRANCH  13  15
ATOM     15  C   UNL     1      46.706   5.363  13.709  0.00  0.00    +0.000 A 
ATOM     16  C   UNL     1      45.537   5.358  12.962  0.00  0.00    +0.000 A 
ATOM     17  S   UNL     1      45.327   6.775  12.029  0.00  0.00    +0.000 S 
ATOM     18  C   UNL     1      46.808   7.409  12.560  0.00  0.00    +0.000 A 
ATOM     19  N   UNL     1      47.262   8.617  12.117  0.00  0.00    +0.000 NA
ATOM     20  C   UNL     1      48.429   8.955  12.569  0.00  0.00    +0.000 A 
ATOM     21  N   UNL     1      49.183   8.198  13.438  0.00  0.00    +0.000 N 
ATOM     22  C   UNL     1      48.734   7.027  13.970  0.00  0.00    +0.000 A 
ATOM     23  O   UNL     1      49.372   6.430  14.835  0.00  0.00    +0.000 OA
ATOM     24  C   UNL     1      47.447   6.575  13.451  0.00  0.00    +0.000 A 
ATOM     28  H   UNL     1      50.065   8.535  13.779  0.00  0.00    +0.000 HD
ENDBRANCH  13  15
BRANCH  12  11
ATOM     11  C   UNL     1      47.213   3.580  16.964  0.00  0.00    +0.000 C 
BRANCH  11  10
ATOM      7  C   UNL     1      51.461   3.118  17.734  0.00  0.00    +0.000 A 
ATOM      8  C   UNL     1      50.735   2.057  17.200  0.00  0.00    +0.000 A 
ATOM      9  C   UNL     1      49.354   2.175  16.971  0.00  0.00    +0.000 A 
ATOM     10  C   UNL     1      48.678   3.369  17.275  0.00  0.00    +0.000 A 
ATOM     25  C   UNL     1      49.404   4.409  17.860  0.00  0.00    +0.000 A 
ATOM     26  C   UNL     1      50.779   4.296  18.087  0.00  0.00    +0.000 A 
BRANCH   7   6
ATOM      6  C   UNL     1      52.974   3.056  17.842  0.00  0.00    +0.000 C 
BRANCH   6   3
ATOM      3  N   UNL     1      53.456   2.204  18.956  0.00  0.00    +0.000 NA
BRANCH   3   4
ATOM      4  C   UNL     1      53.943   3.031  20.078  0.00  0.00    +0.000 C 
ATOM      5  C   UNL     1      55.325   2.674  20.615  0.00  0.00    +0.000 C 
ENDBRANCH   3   4
BRANCH   3   2
ATOM      1  C   UNL     1      54.012   0.369  17.279  0.00  0.00    +0.000 C 
ATOM      2  C   UNL     1      54.460   1.258  18.430  0.00  0.00    +0.000 C 
ENDBRANCH   3   2
ENDBRANCH   6   3
ENDBRANCH   7   6
ENDBRANCH  11  10
ENDBRANCH  12  11
TORSDOF 7
ENDMDL
MODEL 8
REMARK VINA RESULT:    -6.582      3.172      5.328
REMARK INTER + INTRA:          -9.803
REMARK INTER:                  -8.798
REMARK INTRA:                  -1.005
REMARK UNBOUND:                -0.528
REMARK  Name = 
REMARK  9 active torsions:
REMARK  status: ('A' for Active; 'I' for Inactive)
REMARK    1  A    between atoms: C_1  and  C_2
REMARK    2  A    between atoms: C_2  and  N_3
REMARK    3  A    between atoms: N_3  and  C_4
REMARK    4  A    between atoms: N_3  and  C_6
REMARK    5  A    between atoms: C_4  and  C_5
REMARK    6  A    between atoms: C_6  and  C_7
REMARK    7  A    between atoms: C_10  and  C_11
REMARK    8  A    between atoms: C_11  and  N_12
REMARK    9  A    between atoms: C_13  and  C_15
REMARK                            x       y       z     vdW  Elec       q    Type
REMARK                         _______ _______ _______ _____ _____    ______ ____
ROOT
ATOM     12  N   UNL     1      50.032   6.243  16.325  0.00  0.00    +0.000 N 
ATOM     13  C   UNL     1      49.940   5.640  17.548  0.00  0.00    +0.000 C 
ATOM     14  O   UNL     1      48.949   5.736  18.276  0.00  0.00    +0.000 OA
ATOM     27  H   UNL     1      50.970   6.461  15.995  0.00  0.00    +0.000 HD
ENDROOT
BRANCH  13  15
ATOM     15  C   UNL     1      51.086   4.805  17.916  0.00  0.00    +0.000 A 
ATOM     16  C   UNL     1      52.204   5.355  18.528  0.00  0.00    +0.000 A 
ATOM     17  S   UNL     1      53.393   4.194  18.927  0.00  0.00    +0.000 S 
ATOM     18  C   UNL     1      52.472   2.939  18.255  0.00  0.00    +0.000 A 
ATOM     19  N   UNL     1      52.928   1.652  18.241  0.00  0.00    +0.000 NA
ATOM     20  C   UNL     1      52.140   0.806  17.656  0.00  0.00    +0.000 A 
ATOM     21  N   UNL     1      50.926   1.125  17.089  0.00  0.00    +0.000 N 
ATOM     22  C   UNL     1      50.395   2.379  17.152  0.00  0.00    +0.000 A 
ATOM     23  O   UNL     1      49.258   2.613  16.746  0.00  0.00    +0.000 OA
ATOM     24  C   UNL     1      51.267   3.382  17.755  0.00  0.00    +0.000 A 
ATOM     28  H   UNL     1      50.347   0.414  16.682  0.00  0.00    +0.000 HD
ENDBRANCH  13  15
BRANCH  12  11
ATOM     11  C   UNL     1      48.981   7.050  15.781  0.00  0.00    +0.000 C 
BRANCH  11  10
ATOM      7  C   UNL     1      46.365   5.101  12.915  0.00  0.00    +0.000 A 
ATOM      8  C   UNL     1      46.606   4.504  14.150  0.00  0.00    +0.000 A 
ATOM      9  C   UNL     1      47.471   5.103  15.080  0.00  0.00    +0.000 A 
ATOM     10  C   UNL     1      48.112   6.318  14.783  0.00  0.00    +0.000 A 
ATOM     25  C   UNL     1      47.907   6.882  13.520  0.00  0.00    +0.000 A 
ATOM     26  C   UNL     1      47.044   6.290  12.594  0.00  0.00    +0.000 A 
BRANCH   7   6
ATOM      6  C   UNL     1      45.319   4.545  11.967  0.00  0.00    +0.000 C 
BRANCH   6   3
ATOM      3  N   UNL     1      44.131   3.982  12.656  0.00  0.00    +0.000 NA
BRANCH   3   4
ATOM      4  C   UNL     1      43.527   2.896  11.860  0.00  0.00    +0.000 C 
ATOM      5  C   UNL     1      44.095   2.706  10.457  0.00  0.00    +0.000 C 
ENDBRANCH   3   4
BRANCH   3   2
ATOM      1  C   UNL     1      42.340   5.589  11.820  0.00  0.00    +0.000 C 
ATOM      2  C   UNL     1      43.199   5.083  12.970  0.00  0.00    +0.000 C 
ENDBRANCH   3   2
ENDBRANCH   6   3
ENDBRANCH   7   6
ENDBRANCH  11  10
ENDBRANCH  12  11
TORSDOF 7
ENDMDL
MODEL 9
REMARK VINA RESULT:    -6.387      3.031      8.225
REMARK INTER + INTRA:          -9.528
REMARK INTER:                  -8.470
REMARK INTRA:                  -1.058
REMARK UNBOUND:                -0.528
REMARK  Name = 
REMARK  9 active torsions:
REMARK  status: ('A' for Active; 'I' for Inactive)
REMARK    1  A    between atoms: C_1  and  C_2
REMARK    2  A    between atoms: C_2  and  N_3
REMARK    3  A    between atoms: N_3  and  C_4
REMARK    4  A    between atoms: N_3  and  C_6
REMARK    5  A    between atoms: C_4  and  C_5
REMARK    6  A    between atoms: C_6  and  C_7
REMARK    7  A    between atoms: C_10  and  C_11
REMARK    8  A    between atoms: C_11  and  N_12
REMARK    9  A    between atoms: C_13  and  C_15
REMARK                            x       y       z     vdW  Elec       q    Type
REMARK                         _______ _______ _______ _____ _____    ______ ____
ROOT
ATOM     12  N   UNL     1      47.630   6.679  11.734  0.00  0.00    +0.000 N 
ATOM     13  C   UNL     1      46.290   6.826  11.515  0.00  0.00    +0.000 C 
ATOM     14  O   UNL     1      45.663   7.845  11.814  0.00  0.00    +0.000 OA
ATOM     27  H   UNL     1      47.971   5.726  11.851  0.00  0.00    +0.000 HD
ENDROOT
BRANCH  13  15
ATOM     15  C   UNL     1      45.646   5.702  10.829  0.00  0.00    +0.000 A 
ATOM     16  C   UNL     1      45.759   5.544   9.455  0.00  0.00    +0.000 A 
ATOM     17  S   UNL     1      44.986   4.135   8.873  0.00  0.00    +0.000 S 
ATOM     18  C   UNL     1      44.445   3.724  10.427  0.00  0.00    +0.000 A 
ATOM     19  N   UNL     1      43.685   2.610  10.642  0.00  0.00    +0.000 NA
ATOM     20  C   UNL     1      43.304   2.446  11.870  0.00  0.00    +0.000 A 
ATOM     21  N   UNL     1      43.624   3.288  12.912  0.00  0.00    +0.000 N 
ATOM     22  C   UNL     1      44.447   4.364  12.758  0.00  0.00    +0.000 A 
ATOM     23  O   UNL     1      44.815   5.031  13.723  0.00  0.00    +0.000 OA
ATOM     24  C   UNL     1      44.860   4.625  11.382  0.00  0.00    +0.000 A 
ATOM     28  H   UNL     1      43.326   3.083  13.847  0.00  0.00    +0.000 HD
ENDBRANCH  13  15
BRANCH  12  11
ATOM     11  C   UNL     1      48.430   7.701  12.341  0.00  0.00    +0.000 C 
BRANCH  11  10
ATOM      7  C   UNL     1      50.009   6.554  16.221  0.00  0.00    +0.000 A 
ATOM      8  C   UNL     1      48.716   6.184  15.863  0.00  0.00    +0.000 A 
ATOM      9  C   UNL     1      48.175   6.569  14.625  0.00  0.00    +0.000 A 
ATOM     10  C   UNL     1      48.930   7.337  13.722  0.00  0.00    +0.000 A 
ATOM     25  C   UNL     1      50.207   7.749  14.111  0.00  0.00    +0.000 A 
ATOM     26  C   UNL     1      50.749   7.365  15.341  0.00  0.00    +0.000 A 
BRANCH   7   6
ATOM      6  C   UNL     1      50.657   6.017  17.483  0.00  0.00    +0.000 C 
BRANCH   6   3
ATOM      3  N   UNL     1      50.108   4.712  17.925  0.00  0.00    +0.000 NA
BRANCH   3   4
ATOM      4  C   UNL     1      49.652   4.781  19.328  0.00  0.00    +0.000 C 
ATOM      5  C   UNL     1      48.776   5.977  19.682  0.00  0.00    +0.000 C 
ENDBRANCH   3   4
BRANCH   3   2
ATOM      1  C   UNL     1      50.582   2.294  17.281  0.00  0.00    +0.000 C 
ATOM      2  C   UNL     1      51.116   3.663  17.675  0.00  0.00    +0.000 C 
ENDBRANCH   3   2
ENDBRANCH   6   3
ENDBRANCH   7   6
ENDBRANCH  11  10
ENDBRANCH  12  11
TORSDOF 7
ENDMDL
