MODEL 1
REMARK VINA RESULT:    -6.865      0.000      0.000
REMARK INTER + INTRA:         -10.944
REMARK INTER:                 -10.075
REMARK INTRA:                  -0.869
REMARK UNBOUND:                -0.869
REMARK  Name = 
REMARK  9 active torsions:
REMARK  status: ('A' for Active; 'I' for Inactive)
REMARK    1  A    between atoms: C_1  and  C_2
REMARK    2  A    between atoms: C_2  and  C_3
REMARK    3  A    between atoms: C_3  and  O_4
REMARK    4  A    between atoms: O_4  and  C_5
REMARK    5  A    between atoms: C_12  and  C_13
REMARK    6  A    between atoms: N_15  and  C_16
REMARK    7  A    between atoms: C_16  and  C_17
REMARK    8  A    between atoms: C_20  and  C_21
REMARK    9  A    between atoms: C_21  and  N_22
REMARK                            x       y       z     vdW  Elec       q    Type
REMARK                         _______ _______ _______ _____ _____    ______ ____
ROOT
ATOM     13  C   UNL     1      47.078   4.325  14.598  0.00  0.00    +0.000 C 
ATOM     14  O   UNL     1      47.181   3.173  14.195  0.00  0.00    +0.000 OA
ATOM     15  N   UNL     1      47.146   4.617  15.933  0.00  0.00    +0.000 N 
ATOM     31  H   UNL     1      46.990   5.569  16.238  0.00  0.00    +0.000 HD
ENDROOT
BRANCH  13  12
ATOM      5  C   UNL     1      44.480   5.397  12.608  0.00  0.00    +0.000 A 
ATOM      6  N   UNL     1      43.579   6.106  11.901  0.00  0.00    +0.000 NA
ATOM      7  C   UNL     1      43.957   7.289  11.410  0.00  0.00    +0.000 A 
ATOM      8  N   UNL     1      45.157   7.850  11.524  0.00  0.00    +0.000 NA
ATOM      9  C   UNL     1      46.013   7.126  12.267  0.00  0.00    +0.000 A 
ATOM     10  S   UNL     1      47.601   7.678  12.504  0.00  0.00    +0.000 S 
ATOM     11  C   UNL     1      47.971   6.344  13.491  0.00  0.00    +0.000 A 
ATOM     12  C   UNL     1      46.911   5.465  13.675  0.00  0.00    +0.000 A 
ATOM     30  C   UNL     1      45.759   5.905  12.886  0.00  0.00    +0.000 A 
BRANCH   5   4
ATOM      4  O   UNL     1      44.122   4.129  13.015  0.00  0.00    +0.000 OA
BRANCH   4   3
ATOM      3  C   UNL     1      43.707   3.271  11.944  0.00  0.00    +0.000 C 
BRANCH   3   2
ATOM      1  C   UNL     1      44.495   2.986   9.562  0.00  0.00    +0.000 C 
ATOM      2  C   UNL     1      44.877   2.906  11.028  0.00  0.00    +0.000 C 
ENDBRANCH   3   2
ENDBRANCH   4   3
ENDBRANCH   5   4
ENDBRANCH  13  12
BRANCH  15  16
ATOM     16  C   UNL     1      47.427   3.648  16.971  0.00  0.00    +0.000 C 
BRANCH  16  17
ATOM     17  C   UNL     1      48.922   3.437  17.046  0.00  0.00    +0.000 A 
ATOM     18  C   UNL     1      49.440   2.140  16.971  0.00  0.00    +0.000 A 
ATOM     19  C   UNL     1      50.773   1.879  17.305  0.00  0.00    +0.000 A 
ATOM     20  C   UNL     1      51.631   2.908  17.723  0.00  0.00    +0.000 A 
ATOM     28  C   UNL     1      51.137   4.224  17.709  0.00  0.00    +0.000 A 
ATOM     29  C   UNL     1      49.795   4.485  17.384  0.00  0.00    +0.000 A 
BRANCH  20  21
ATOM     21  C   UNL     1      52.947   2.573  18.400  0.00  0.00    +0.000 C 
BRANCH  21  22
ATOM     22  N   UNL     1      54.037   1.926  17.679  0.00  0.00    +0.000 NA
ATOM     23  C   UNL     1      53.804   0.567  17.194  0.00  0.00    +0.000 C 
ATOM     24  C   UNL     1      54.243  -0.535  18.169  0.00  0.00    +0.000 C 
ATOM     25  O   UNL     1      55.592  -0.349  18.621  0.00  0.00    +0.000 OA
ATOM     26  C   UNL     1      55.772   0.945  19.207  0.00  0.00    +0.000 C 
ATOM     27  C   UNL     1      55.385   2.062  18.229  0.00  0.00    +0.000 C 
ENDBRANCH  21  22
ENDBRANCH  20  21
ENDBRANCH  16  17
ENDBRANCH  15  16
TORSDOF 8
ENDMDL
MODEL 2
REMARK VINA RESULT:    -6.763      2.989      9.082
REMARK INTER + INTRA:         -10.795
REMARK INTER:                  -9.008
REMARK INTRA:                  -1.787
REMARK UNBOUND:                -0.869
REMARK  Name = 
REMARK  9 active torsions:
REMARK  status: ('A' for Active; 'I' for Inactive)
REMARK    1  A    between atoms: C_1  and  C_2
REMARK    2  A    between atoms: C_2  and  C_3
REMARK    3  A    between atoms: C_3  and  O_4
REMARK    4  A    between atoms: O_4  and  C_5
REMARK    5  A    between atoms: C_12  and  C_13
REMARK    6  A    between atoms: N_15  and  C_16
REMARK    7  A    between atoms: C_16  and  C_17
REMARK    8  A    between atoms: C_20  and  C_21
REMARK    9  A    between atoms: C_21  and  N_22
REMARK                            x       y       z     vdW  Elec       q    Type
REMARK                         _______ _______ _______ _____ _____    ______ ____
ROOT
ATOM     13  C   UNL     1      50.315   6.734  17.185  0.00  0.00    +0.000 C 
ATOM     14  O   UNL     1      50.082   7.661  17.950  0.00  0.00    +0.000 OA
ATOM     15  N   UNL     1      49.882   6.760  15.887  0.00  0.00    +0.000 N 
ATOM     31  H   UNL     1      50.033   5.950  15.301  0.00  0.00    +0.000 HD
ENDROOT
BRANCH  13  12
ATOM      5  C   UNL     1      49.792   3.338  16.939  0.00  0.00    +0.000 A 
ATOM      6  N   UNL     1      49.905   2.002  16.809  0.00  0.00    +0.000 NA
ATOM      7  C   UNL     1      51.037   1.426  17.221  0.00  0.00    +0.000 A 
ATOM      8  N   UNL     1      52.082   2.033  17.776  0.00  0.00    +0.000 NA
ATOM      9  C   UNL     1      51.941   3.369  17.853  0.00  0.00    +0.000 A 
ATOM     10  S   UNL     1      53.169   4.309  18.555  0.00  0.00    +0.000 S 
ATOM     11  C   UNL     1      52.314   5.745  18.247  0.00  0.00    +0.000 A 
ATOM     12  C   UNL     1      51.099   5.554  17.601  0.00  0.00    +0.000 A 
ATOM     30  C   UNL     1      50.850   4.121  17.426  0.00  0.00    +0.000 A 
BRANCH   5   4
ATOM      4  O   UNL     1      48.580   3.913  16.619  0.00  0.00    +0.000 OA
BRANCH   4   3
ATOM      3  C   UNL     1      47.600   3.819  17.661  0.00  0.00    +0.000 C 
BRANCH   3   2
ATOM      1  C   UNL     1      47.712   5.541  19.504  0.00  0.00    +0.000 C 
ATOM      2  C   UNL     1      47.149   5.202  18.137  0.00  0.00    +0.000 C 
ENDBRANCH   3   2
ENDBRANCH   4   3
ENDBRANCH   5   4
ENDBRANCH  13  12
BRANCH  15  16
ATOM     16  C   UNL     1      49.209   7.884  15.271  0.00  0.00    +0.000 C 
BRANCH  16  17
ATOM     17  C   UNL     1      48.090   7.361  14.399  0.00  0.00    +0.000 A 
ATOM     18  C   UNL     1      47.960   5.984  14.196  0.00  0.00    +0.000 A 
ATOM     19  C   UNL     1      47.122   5.482  13.196  0.00  0.00    +0.000 A 
ATOM     20  C   UNL     1      46.384   6.342  12.368  0.00  0.00    +0.000 A 
ATOM     28  C   UNL     1      46.442   7.721  12.632  0.00  0.00    +0.000 A 
ATOM     29  C   UNL     1      47.293   8.227  13.630  0.00  0.00    +0.000 A 
BRANCH  20  21
ATOM     21  C   UNL     1      45.758   5.817  11.088  0.00  0.00    +0.000 C 
BRANCH  21  22
ATOM     22  N   UNL     1      44.346   5.464  11.015  0.00  0.00    +0.000 NA
ATOM     23  C   UNL     1      43.616   5.357  12.278  0.00  0.00    +0.000 C 
ATOM     24  C   UNL     1      43.593   3.942  12.876  0.00  0.00    +0.000 C 
ATOM     25  O   UNL     1      43.164   2.961  11.922  0.00  0.00    +0.000 OA
ATOM     26  C   UNL     1      43.970   2.996  10.739  0.00  0.00    +0.000 C 
ATOM     27  C   UNL     1      43.964   4.390  10.098  0.00  0.00    +0.000 C 
ENDBRANCH  21  22
ENDBRANCH  20  21
ENDBRANCH  16  17
ENDBRANCH  15  16
TORSDOF 8
ENDMDL
MODEL 3
REMARK VINA RESULT:    -6.757      4.183      8.924
REMARK INTER + INTRA:         -10.786
REMARK INTER:                  -9.360
REMARK INTRA:                  -1.427
REMARK UNBOUND:                -0.869
REMARK  Name = 
REMARK  9 active torsions:
REMARK  status: ('A' for Active; 'I' for Inactive)
REMARK    1  A    between atoms: C_1  and  C_2
REMARK    2  A    between atoms: C_2  and  C_3
REMARK    3  A    between atoms: C_3  and  O_4
REMARK    4  A    between atoms: O_4  and  C_5
REMARK    5  A    between atoms: C_12  and  C_13
REMARK    6  A    between atoms: N_15  and  C_16
REMARK    7  A    between atoms: C_16  and  C_17
REMARK    8  A    between atoms: C_20  and  C_21
REMARK    9  A    between atoms: C_21  and  N_22
REMARK                            x       y       z     vdW  Elec       q    Type
REMARK                         _______ _______ _______ _____ _____    ______ ____
ROOT
ATOM     13  C   UNL     1      48.600   8.783  16.432  0.00  0.00    +0.000 C 
ATOM     14  O   UNL     1      49.716   8.388  16.116  0.00  0.00    +0.000 OA
ATOM     15  N   UNL     1      47.739   9.292  15.498  0.00  0.00    +0.000 N 
ATOM     31  H   UNL     1      46.851   9.671  15.802  0.00  0.00    +0.000 HD
ENDROOT
BRANCH  13  12
ATOM      5  C   UNL     1      48.072   6.170  18.612  0.00  0.00    +0.000 A 
ATOM      6  N   UNL     1      47.954   5.363  19.684  0.00  0.00    +0.000 NA
ATOM      7  C   UNL     1      47.645   5.921  20.857  0.00  0.00    +0.000 A 
ATOM      8  N   UNL     1      47.417   7.210  21.089  0.00  0.00    +0.000 NA
ATOM      9  C   UNL     1      47.582   7.983  20.000  0.00  0.00    +0.000 A 
ATOM     10  S   UNL     1      47.312   9.656  20.103  0.00  0.00    +0.000 S 
ATOM     11  C   UNL     1      47.739   9.876  18.473  0.00  0.00    +0.000 A 
ATOM     12  C   UNL     1      48.106   8.705  17.821  0.00  0.00    +0.000 A 
ATOM     30  C   UNL     1      47.948   7.563  18.724  0.00  0.00    +0.000 A 
BRANCH   5   4
ATOM      4  O   UNL     1      48.278   5.577  17.384  0.00  0.00    +0.000 OA
BRANCH   4   3
ATOM      3  C   UNL     1      48.718   4.215  17.462  0.00  0.00    +0.000 C 
BRANCH   3   2
ATOM      1  C   UNL     1      47.212   4.087  15.440  0.00  0.00    +0.000 C 
ATOM      2  C   UNL     1      47.904   3.305  16.540  0.00  0.00    +0.000 C 
ENDBRANCH   3   2
ENDBRANCH   4   3
ENDBRANCH   5   4
ENDBRANCH  13  12
BRANCH  15  16
ATOM     16  C   UNL     1      48.004   9.333  14.076  0.00  0.00    +0.000 C 
BRANCH  16  17
ATOM     17  C   UNL     1      47.108   8.329  13.385  0.00  0.00    +0.000 A 
ATOM     18  C   UNL     1      47.587   7.040  13.130  0.00  0.00    +0.000 A 
ATOM     19  C   UNL     1      46.903   6.180  12.265  0.00  0.00    +0.000 A 
ATOM     20  C   UNL     1      45.717   6.580  11.631  0.00  0.00    +0.000 A 
ATOM     28  C   UNL     1      45.187   7.840  11.959  0.00  0.00    +0.000 A 
ATOM     29  C   UNL     1      45.879   8.709  12.819  0.00  0.00    +0.000 A 
BRANCH  20  21
ATOM     21  C   UNL     1      45.179   5.788  10.453  0.00  0.00    +0.000 C 
BRANCH  21  22
ATOM     22  N   UNL     1      44.208   4.715  10.632  0.00  0.00    +0.000 NA
ATOM     23  C   UNL     1      43.029   5.008  11.446  0.00  0.00    +0.000 C 
ATOM     24  C   UNL     1      43.185   4.659  12.933  0.00  0.00    +0.000 C 
ATOM     25  O   UNL     1      43.651   3.316  13.125  0.00  0.00    +0.000 OA
ATOM     26  C   UNL     1      44.875   3.082  12.420  0.00  0.00    +0.000 C 
ATOM     27  C   UNL     1      44.724   3.378  10.922  0.00  0.00    +0.000 C 
ENDBRANCH  21  22
ENDBRANCH  20  21
ENDBRANCH  16  17
ENDBRANCH  15  16
TORSDOF 8
ENDMDL
MODEL 4
REMARK VINA RESULT:    -6.754      2.683      3.567
REMARK INTER + INTRA:         -10.782
REMARK INTER:                  -9.655
REMARK INTRA:                  -1.127
REMARK UNBOUND:                -0.869
REMARK  Name = 
REMARK  9 active torsions:
REMARK  status: ('A' for Active; 'I' for Inactive)
REMARK    1  A    between atoms: C_1  and  C_2
REMARK    2  A    between atoms: C_2  and  C_3
REMARK    3  A    between atoms: C_3  and  O_4
REMARK    4  A    between atoms: O_4  and  C_5
REMARK    5  A    between atoms: C_12  and  C_13
REMARK    6  A    between atoms: N_15  and  C_16
REMARK    7  A    between atoms: C_16  and  C_17
REMARK    8  A    between atoms: C_20  and  C_21
REMARK    9  A    between atoms: C_21  and  N_22
REMARK                            x       y       z     vdW  Elec       q    Type
REMARK                         _______ _______ _______ _____ _____    ______ ____
ROOT
ATOM     13  C   UNL     1      47.115   4.119  14.924  0.00  0.00    +0.000 C 
ATOM     14  O   UNL     1      47.452   3.029  14.477  0.00  0.00    +0.000 OA
ATOM     15  N   UNL     1      46.904   4.301  16.263  0.00  0.00    +0.000 N 
ATOM     31  H   UNL     1      46.561   5.195  16.591  0.00  0.00    +0.000 HD
ENDROOT
BRANCH  13  12
ATOM      5  C   UNL     1      44.633   5.144  12.766  0.00  0.00    +0.000 A 
ATOM      6  N   UNL     1      43.750   5.836  12.021  0.00  0.00    +0.000 NA
ATOM      7  C   UNL     1      44.085   7.070  11.637  0.00  0.00    +0.000 A 
ATOM      8  N   UNL     1      45.226   7.700  11.895  0.00  0.00    +0.000 NA
ATOM      9  C   UNL     1      46.063   6.988  12.671  0.00  0.00    +0.000 A 
ATOM     10  S   UNL     1      47.581   7.627  13.086  0.00  0.00    +0.000 S 
ATOM     11  C   UNL     1      47.956   6.260  14.024  0.00  0.00    +0.000 A 
ATOM     12  C   UNL     1      46.949   5.303  14.057  0.00  0.00    +0.000 A 
ATOM     30  C   UNL     1      45.843   5.715  13.192  0.00  0.00    +0.000 A 
BRANCH   5   4
ATOM      4  O   UNL     1      44.332   3.831  13.064  0.00  0.00    +0.000 OA
BRANCH   4   3
ATOM      3  C   UNL     1      43.902   3.063  11.932  0.00  0.00    +0.000 C 
BRANCH   3   2
ATOM      1  C   UNL     1      44.438   2.580   9.513  0.00  0.00    +0.000 C 
ATOM      2  C   UNL     1      44.998   2.963  10.869  0.00  0.00    +0.000 C 
ENDBRANCH   3   2
ENDBRANCH   4   3
ENDBRANCH   5   4
ENDBRANCH  13  12
BRANCH  15  16
ATOM     16  C   UNL     1      47.136   3.291  17.274  0.00  0.00    +0.000 C 
BRANCH  16  17
ATOM     17  C   UNL     1      48.517   3.493  17.855  0.00  0.00    +0.000 A 
ATOM     18  C   UNL     1      48.712   4.457  18.849  0.00  0.00    +0.000 A 
ATOM     19  C   UNL     1      50.001   4.860  19.214  0.00  0.00    +0.000 A 
ATOM     20  C   UNL     1      51.135   4.309  18.598  0.00  0.00    +0.000 A 
ATOM     28  C   UNL     1      50.942   3.275  17.667  0.00  0.00    +0.000 A 
ATOM     29  C   UNL     1      49.648   2.878  17.291  0.00  0.00    +0.000 A 
BRANCH  20  21
ATOM     21  C   UNL     1      52.486   4.984  18.749  0.00  0.00    +0.000 C 
BRANCH  21  22
ATOM     22  N   UNL     1      52.839   6.173  17.982  0.00  0.00    +0.000 NA
ATOM     23  C   UNL     1      52.580   7.471  18.602  0.00  0.00    +0.000 C 
ATOM     24  C   UNL     1      51.207   8.071  18.264  0.00  0.00    +0.000 C 
ATOM     25  O   UNL     1      50.962   8.091  16.851  0.00  0.00    +0.000 OA
ATOM     26  C   UNL     1      51.097   6.785  16.278  0.00  0.00    +0.000 C 
ATOM     27  C   UNL     1      52.483   6.190  16.563  0.00  0.00    +0.000 C 
ENDBRANCH  21  22
ENDBRANCH  20  21
ENDBRANCH  16  17
ENDBRANCH  15  16
TORSDOF 8
ENDMDL
MODEL 5
REMARK VINA RESULT:    -6.712      1.702      2.105
REMARK INTER + INTRA:         -10.721
REMARK INTER:                  -9.745
REMARK INTRA:                  -0.976
REMARK UNBOUND:                -0.869
REMARK  Name = 
REMARK  9 active torsions:
REMARK  status: ('A' for Active; 'I' for Inactive)
REMARK    1  A    between atoms: C_1  and  C_2
REMARK    2  A    between atoms: C_2  and  C_3
REMARK    3  A    between atoms: C_3  and  O_4
REMARK    4  A    between atoms: O_4  and  C_5
REMARK    5  A    between atoms: C_12  and  C_13
REMARK    6  A    between atoms: N_15  and  C_16
REMARK    7  A    between atoms: C_16  and  C_17
REMARK    8  A    between atoms: C_20  and  C_21
REMARK    9  A    between atoms: C_21  and  N_22
REMARK                            x       y       z     vdW  Elec       q    Type
REMARK                         _______ _______ _______ _____ _____    ______ ____
ROOT
ATOM     13  C   UNL     1      46.841   4.226  14.458  0.00  0.00    +0.000 C 
ATOM     14  O   UNL     1      47.156   3.124  14.026  0.00  0.00    +0.000 OA
ATOM     15  N   UNL     1      46.778   4.468  15.803  0.00  0.00    +0.000 N 
ATOM     31  H   UNL     1      46.450   5.368  16.127  0.00  0.00    +0.000 HD
ENDROOT
BRANCH  13  12
ATOM      5  C   UNL     1      44.134   5.045  12.491  0.00  0.00    +0.000 A 
ATOM      6  N   UNL     1      43.157   5.665  11.801  0.00  0.00    +0.000 NA
ATOM      7  C   UNL     1      43.398   6.894  11.340  0.00  0.00    +0.000 A 
ATOM      8  N   UNL     1      44.526   7.585  11.469  0.00  0.00    +0.000 NA
ATOM      9  C   UNL     1      45.461   6.944  12.196  0.00  0.00    +0.000 A 
ATOM     10  S   UNL     1      46.977   7.668  12.448  0.00  0.00    +0.000 S 
ATOM     11  C   UNL     1      47.497   6.361  13.402  0.00  0.00    +0.000 A 
ATOM     12  C   UNL     1      46.544   5.362  13.563  0.00  0.00    +0.000 A 
ATOM     30  C   UNL     1      45.348   5.688  12.784  0.00  0.00    +0.000 A 
BRANCH   5   4
ATOM      4  O   UNL     1      43.923   3.735  12.866  0.00  0.00    +0.000 OA
BRANCH   4   3
ATOM      3  C   UNL     1      43.731   2.839  11.763  0.00  0.00    +0.000 C 
BRANCH   3   2
ATOM      1  C   UNL     1      44.512   2.468   9.392  0.00  0.00    +0.000 C 
ATOM      2  C   UNL     1      44.916   2.872  10.797  0.00  0.00    +0.000 C 
ENDBRANCH   3   2
ENDBRANCH   4   3
ENDBRANCH   5   4
ENDBRANCH  13  12
BRANCH  15  16
ATOM     16  C   UNL     1      47.152   3.514  16.825  0.00  0.00    +0.000 C 
BRANCH  16  17
ATOM     17  C   UNL     1      48.649   3.585  17.033  0.00  0.00    +0.000 A 
ATOM     18  C   UNL     1      49.410   2.414  16.967  0.00  0.00    +0.000 A 
ATOM     19  C   UNL     1      50.735   2.394  17.415  0.00  0.00    +0.000 A 
ATOM     20  C   UNL     1      51.340   3.546  17.941  0.00  0.00    +0.000 A 
ATOM     28  C   UNL     1      50.606   4.744  17.922  0.00  0.00    +0.000 A 
ATOM     29  C   UNL     1      49.271   4.762  17.482  0.00  0.00    +0.000 A 
BRANCH  20  21
ATOM     21  C   UNL     1      52.634   3.434  18.727  0.00  0.00    +0.000 C 
BRANCH  21  22
ATOM     22  N   UNL     1      53.932   3.659  18.102  0.00  0.00    +0.000 NA
ATOM     23  C   UNL     1      55.119   3.459  18.933  0.00  0.00    +0.000 C 
ATOM     24  C   UNL     1      55.615   4.728  19.641  0.00  0.00    +0.000 C 
ATOM     25  O   UNL     1      55.775   5.825  18.731  0.00  0.00    +0.000 OA
ATOM     26  C   UNL     1      54.564   6.088  18.014  0.00  0.00    +0.000 C 
ATOM     27  C   UNL     1      54.079   4.844  17.258  0.00  0.00    +0.000 C 
ENDBRANCH  21  22
ENDBRANCH  20  21
ENDBRANCH  16  17
ENDBRANCH  15  16
TORSDOF 8
ENDMDL
MODEL 6
REMARK VINA RESULT:    -6.652      3.609      8.968
REMARK INTER + INTRA:         -10.632
REMARK INTER:                  -9.672
REMARK INTRA:                  -0.960
REMARK UNBOUND:                -0.869
REMARK  Name = 
REMARK  9 active torsions:
REMARK  status: ('A' for Active; 'I' for Inactive)
REMARK    1  A    between atoms: C_1  and  C_2
REMARK    2  A    between atoms: C_2  and  C_3
REMARK    3  A    between atoms: C_3  and  O_4
REMARK    4  A    between atoms: O_4  and  C_5
REMARK    5  A    between atoms: C_12  and  C_13
REMARK    6  A    between atoms: N_15  and  C_16
REMARK    7  A    between atoms: C_16  and  C_17
REMARK    8  A    between atoms: C_20  and  C_21
REMARK    9  A    between atoms: C_21  and  N_22
REMARK                            x       y       z     vdW  Elec       q    Type
REMARK                         _______ _______ _______ _____ _____    ______ ____
ROOT
ATOM     13  C   UNL     1      48.988   7.215  15.465  0.00  0.00    +0.000 C 
ATOM     14  O   UNL     1      49.926   6.725  14.848  0.00  0.00    +0.000 OA
ATOM     15  N   UNL     1      47.834   7.581  14.827  0.00  0.00    +0.000 N 
ATOM     31  H   UNL     1      47.106   8.045  15.354  0.00  0.00    +0.000 HD
ENDROOT
BRANCH  13  12
ATOM      5  C   UNL     1      50.023   5.237  18.088  0.00  0.00    +0.000 A 
ATOM      6  N   UNL     1      50.514   4.744  19.241  0.00  0.00    +0.000 NA
ATOM      7  C   UNL     1      50.460   5.518  20.327  0.00  0.00    +0.000 A 
ATOM      8  N   UNL     1      49.948   6.742  20.407  0.00  0.00    +0.000 NA
ATOM      9  C   UNL     1      49.502   7.209  19.226  0.00  0.00    +0.000 A 
ATOM     10  S   UNL     1      48.794   8.750  19.141  0.00  0.00    +0.000 S 
ATOM     11  C   UNL     1      48.569   8.608  17.462  0.00  0.00    +0.000 A 
ATOM     12  C   UNL     1      49.031   7.411  16.928  0.00  0.00    +0.000 A 
ATOM     30  C   UNL     1      49.531   6.549  18.001  0.00  0.00    +0.000 A 
BRANCH   5   4
ATOM      4  O   UNL     1      49.976   4.394  16.998  0.00  0.00    +0.000 OA
BRANCH   4   3
ATOM      3  C   UNL     1      49.537   3.065  17.311  0.00  0.00    +0.000 C 
BRANCH   3   2
ATOM      1  C   UNL     1      47.208   3.906  16.816  0.00  0.00    +0.000 C 
ATOM      2  C   UNL     1      48.183   2.753  16.671  0.00  0.00    +0.000 C 
ENDBRANCH   3   2
ENDBRANCH   4   3
ENDBRANCH   5   4
ENDBRANCH  13  12
BRANCH  15  16
ATOM     16  C   UNL     1      47.566   7.352  13.423  0.00  0.00    +0.000 C 
BRANCH  16  17
ATOM     17  C   UNL     1      46.555   6.235  13.297  0.00  0.00    +0.000 A 
ATOM     18  C   UNL     1      46.991   4.907  13.307  0.00  0.00    +0.000 A 
ATOM     19  C   UNL     1      46.136   3.868  12.926  0.00  0.00    +0.000 A 
ATOM     20  C   UNL     1      44.816   4.126  12.524  0.00  0.00    +0.000 A 
ATOM     28  C   UNL     1      44.350   5.449  12.602  0.00  0.00    +0.000 A 
ATOM     29  C   UNL     1      45.212   6.494  12.975  0.00  0.00    +0.000 A 
BRANCH  20  21
ATOM     21  C   UNL     1      44.020   3.057  11.797  0.00  0.00    +0.000 C 
BRANCH  21  22
ATOM     22  N   UNL     1      43.754   3.141  10.366  0.00  0.00    +0.000 NA
ATOM     23  C   UNL     1      44.223   2.036   9.531  0.00  0.00    +0.000 C 
ATOM     24  C   UNL     1      45.625   2.241   8.941  0.00  0.00    +0.000 C 
ATOM     25  O   UNL     1      45.751   3.507   8.278  0.00  0.00    +0.000 OA
ATOM     26  C   UNL     1      45.407   4.590   9.150  0.00  0.00    +0.000 C 
ATOM     27  C   UNL     1      43.987   4.428   9.710  0.00  0.00    +0.000 C 
ENDBRANCH  21  22
ENDBRANCH  20  21
ENDBRANCH  16  17
ENDBRANCH  15  16
TORSDOF 8
ENDMDL
MODEL 7
REMARK VINA RESULT:    -6.541      3.427      9.010
REMARK INTER + INTRA:         -10.469
REMARK INTER:                  -9.251
REMARK INTRA:                  -1.218
REMARK UNBOUND:                -0.869
REMARK  Name = 
REMARK  9 active torsions:
REMARK  status: ('A' for Active; 'I' for Inactive)
REMARK    1  A    between atoms: C_1  and  C_2
REMARK    2  A    between atoms: C_2  and  C_3
REMARK    3  A    between atoms: C_3  and  O_4
REMARK    4  A    between atoms: O_4  and  C_5
REMARK    5  A    between atoms: C_12  and  C_13
REMARK    6  A    between atoms: N_15  and  C_16
REMARK    7  A    between atoms: C_16  and  C_17
REMARK    8  A    between atoms: C_20  and  C_21
REMARK    9  A    between atoms: C_21  and  N_22
REMARK                            x       y       z     vdW  Elec       q    Type
REMARK                         _______ _______ _______ _____ _____    ______ ____
ROOT
ATOM     13  C   UNL     1      46.971   4.971  14.127  0.00  0.00    +0.000 C 
ATOM     14  O   UNL     1      47.179   3.765  14.173  0.00  0.00    +0.000 OA
ATOM     15  N   UNL     1      45.755   5.466  13.742  0.00  0.00    +0.000 N 
ATOM     31  H   UNL     1      45.636   6.467  13.649  0.00  0.00    +0.000 HD
ENDROOT
BRANCH  13  12
ATOM      5  C   UNL     1      48.527   5.728  17.105  0.00  0.00    +0.000 A 
ATOM      6  N   UNL     1      49.385   6.086  18.080  0.00  0.00    +0.000 NA
ATOM      7  C   UNL     1      50.343   6.967  17.779  0.00  0.00    +0.000 A 
ATOM      8  N   UNL     1      50.538   7.560  16.606  0.00  0.00    +0.000 NA
ATOM      9  C   UNL     1      49.682   7.146  15.653  0.00  0.00    +0.000 A 
ATOM     10  S   UNL     1      49.768   7.813  14.093  0.00  0.00    +0.000 S 
ATOM     11  C   UNL     1      48.504   6.819  13.545  0.00  0.00    +0.000 A 
ATOM     12  C   UNL     1      47.999   5.958  14.512  0.00  0.00    +0.000 A 
ATOM     30  C   UNL     1      48.666   6.205  15.792  0.00  0.00    +0.000 A 
BRANCH   5   4
ATOM      4  O   UNL     1      47.473   4.907  17.448  0.00  0.00    +0.000 OA
BRANCH   4   3
ATOM      3  C   UNL     1      47.860   3.752  18.204  0.00  0.00    +0.000 C 
BRANCH   3   2
ATOM      1  C   UNL     1      49.725   2.386  17.190  0.00  0.00    +0.000 C 
ATOM      2  C   UNL     1      48.224   2.578  17.293  0.00  0.00    +0.000 C 
ENDBRANCH   3   2
ENDBRANCH   4   3
ENDBRANCH   5   4
ENDBRANCH  13  12
BRANCH  15  16
ATOM     16  C   UNL     1      44.595   4.651  13.447  0.00  0.00    +0.000 C 
BRANCH  16  17
ATOM     17  C   UNL     1      44.470   4.507  11.947  0.00  0.00    +0.000 A 
ATOM     18  C   UNL     1      43.973   3.315  11.409  0.00  0.00    +0.000 A 
ATOM     19  C   UNL     1      44.095   3.040  10.043  0.00  0.00    +0.000 A 
ATOM     20  C   UNL     1      44.715   3.950   9.172  0.00  0.00    +0.000 A 
ATOM     28  C   UNL     1      45.130   5.186   9.696  0.00  0.00    +0.000 A 
ATOM     29  C   UNL     1      45.019   5.458  11.070  0.00  0.00    +0.000 A 
BRANCH  20  21
ATOM     21  C   UNL     1      45.143   3.504   7.786  0.00  0.00    +0.000 C 
BRANCH  21  22
ATOM     22  N   UNL     1      46.548   3.326   7.439  0.00  0.00    +0.000 NA
ATOM     23  C   UNL     1      46.950   3.670   6.075  0.00  0.00    +0.000 C 
ATOM     24  C   UNL     1      46.904   2.495   5.088  0.00  0.00    +0.000 C 
ATOM     25  O   UNL     1      47.609   1.348   5.582  0.00  0.00    +0.000 OA
ATOM     26  C   UNL     1      47.117   0.947   6.866  0.00  0.00    +0.000 C 
ATOM     27  C   UNL     1      47.202   2.095   7.881  0.00  0.00    +0.000 C 
ENDBRANCH  21  22
ENDBRANCH  20  21
ENDBRANCH  16  17
ENDBRANCH  15  16
TORSDOF 8
ENDMDL
MODEL 8
REMARK VINA RESULT:    -6.319      3.708      5.242
REMARK INTER + INTRA:         -10.144
REMARK INTER:                  -9.048
REMARK INTRA:                  -1.096
REMARK UNBOUND:                -0.869
REMARK  Name = 
REMARK  9 active torsions:
REMARK  status: ('A' for Active; 'I' for Inactive)
REMARK    1  A    between atoms: C_1  and  C_2
REMARK    2  A    between atoms: C_2  and  C_3
REMARK    3  A    between atoms: C_3  and  O_4
REMARK    4  A    between atoms: O_4  and  C_5
REMARK    5  A    between atoms: C_12  and  C_13
REMARK    6  A    between atoms: N_15  and  C_16
REMARK    7  A    between atoms: C_16  and  C_17
REMARK    8  A    between atoms: C_20  and  C_21
REMARK    9  A    between atoms: C_21  and  N_22
REMARK                            x       y       z     vdW  Elec       q    Type
REMARK                         _______ _______ _______ _____ _____    ______ ____
ROOT
ATOM     13  C   UNL     1      46.738   4.396  14.227  0.00  0.00    +0.000 C 
ATOM     14  O   UNL     1      46.783   3.257  13.779  0.00  0.00    +0.000 OA
ATOM     15  N   UNL     1      47.015   4.651  15.542  0.00  0.00    +0.000 N 
ATOM     31  H   UNL     1      46.904   5.592  15.896  0.00  0.00    +0.000 HD
ENDROOT
BRANCH  13  12
ATOM      5  C   UNL     1      44.013   5.237  12.295  0.00  0.00    +0.000 A 
ATOM      6  N   UNL     1      43.023   5.863  11.630  0.00  0.00    +0.000 NA
ATOM      7  C   UNL     1      43.239   7.114  11.216  0.00  0.00    +0.000 A 
ATOM      8  N   UNL     1      44.354   7.821  11.372  0.00  0.00    +0.000 NA
ATOM      9  C   UNL     1      45.302   7.172  12.072  0.00  0.00    +0.000 A 
ATOM     10  S   UNL     1      46.803   7.914  12.351  0.00  0.00    +0.000 S 
ATOM     11  C   UNL     1      47.351   6.582  13.253  0.00  0.00    +0.000 A 
ATOM     12  C   UNL     1      46.418   5.560  13.376  0.00  0.00    +0.000 A 
ATOM     30  C   UNL     1      45.214   5.891  12.611  0.00  0.00    +0.000 A 
BRANCH   5   4
ATOM      4  O   UNL     1      43.828   3.909  12.620  0.00  0.00    +0.000 OA
BRANCH   4   3
ATOM      3  C   UNL     1      43.590   3.063  11.487  0.00  0.00    +0.000 C 
BRANCH   3   2
ATOM      1  C   UNL     1      44.526   2.765   9.162  0.00  0.00    +0.000 C 
ATOM      2  C   UNL     1      44.850   2.887  10.639  0.00  0.00    +0.000 C 
ENDBRANCH   3   2
ENDBRANCH   4   3
ENDBRANCH   5   4
ENDBRANCH  13  12
BRANCH  15  16
ATOM     16  C   UNL     1      47.466   3.656  16.492  0.00  0.00    +0.000 C 
BRANCH  16  17
ATOM     17  C   UNL     1      47.917   4.357  17.754  0.00  0.00    +0.000 A 
ATOM     18  C   UNL     1      47.006   5.142  18.468  0.00  0.00    +0.000 A 
ATOM     19  C   UNL     1      47.443   6.013  19.472  0.00  0.00    +0.000 A 
ATOM     20  C   UNL     1      48.805   6.123  19.794  0.00  0.00    +0.000 A 
ATOM     28  C   UNL     1      49.708   5.268  19.141  0.00  0.00    +0.000 A 
ATOM     29  C   UNL     1      49.271   4.401  18.125  0.00  0.00    +0.000 A 
BRANCH  20  21
ATOM     21  C   UNL     1      49.298   7.295  20.624  0.00  0.00    +0.000 C 
BRANCH  21  22
ATOM     22  N   UNL     1      49.439   8.630  20.056  0.00  0.00    +0.000 NA
ATOM     23  C   UNL     1      48.369   9.589  20.325  0.00  0.00    +0.000 C 
ATOM     24  C   UNL     1      47.264   9.618  19.258  0.00  0.00    +0.000 C 
ATOM     25  O   UNL     1      47.797   9.764  17.935  0.00  0.00    +0.000 OA
ATOM     26  C   UNL     1      48.755   8.740  17.642  0.00  0.00    +0.000 C 
ATOM     27  C   UNL     1      49.894   8.729  18.669  0.00  0.00    +0.000 C 
ENDBRANCH  21  22
ENDBRANCH  20  21
ENDBRANCH  16  17
ENDBRANCH  15  16
TORSDOF 8
ENDMDL
MODEL 9
REMARK VINA RESULT:    -6.227      2.619      4.383
REMARK INTER + INTRA:         -10.009
REMARK INTER:                  -8.271
REMARK INTRA:                  -1.738
REMARK UNBOUND:                -0.869
REMARK  Name = 
REMARK  9 active torsions:
REMARK  status: ('A' for Active; 'I' for Inactive)
REMARK    1  A    between atoms: C_1  and  C_2
REMARK    2  A    between atoms: C_2  and  C_3
REMARK    3  A    between atoms: C_3  and  O_4
REMARK    4  A    between atoms: O_4  and  C_5
REMARK    5  A    between atoms: C_12  and  C_13
REMARK    6  A    between atoms: N_15  and  C_16
REMARK    7  A    between atoms: C_16  and  C_17
REMARK    8  A    between atoms: C_20  and  C_21
REMARK    9  A    between atoms: C_21  and  N_22
REMARK                            x       y       z     vdW  Elec       q    Type
REMARK                         _______ _______ _______ _____ _____    ______ ____
ROOT
ATOM     13  C   UNL     1      47.107   3.954  14.876  0.00  0.00    +0.000 C 
ATOM     14  O   UNL     1      47.470   2.878  14.417  0.00  0.00    +0.000 OA
ATOM     15  N   UNL     1      47.060   4.168  16.227  0.00  0.00    +0.000 N 
ATOM     31  H   UNL     1      46.692   5.043  16.575  0.00  0.00    +0.000 HD
ENDROOT
BRANCH  13  12
ATOM      5  C   UNL     1      48.659   6.914  14.047  0.00  0.00    +0.000 A 
ATOM      6  N   UNL     1      49.122   8.025  13.441  0.00  0.00    +0.000 NA
ATOM      7  C   UNL     1      48.369   8.580  12.489  0.00  0.00    +0.000 A 
ATOM      8  N   UNL     1      47.177   8.162  12.075  0.00  0.00    +0.000 NA
ATOM      9  C   UNL     1      46.770   7.031  12.679  0.00  0.00    +0.000 A 
ATOM     10  S   UNL     1      45.258   6.362  12.291  0.00  0.00    +0.000 S 
ATOM     11  C   UNL     1      45.507   5.058  13.352  0.00  0.00    +0.000 A 
ATOM     12  C   UNL     1      46.731   5.088  14.009  0.00  0.00    +0.000 A 
ATOM     30  C   UNL     1      47.457   6.308  13.651  0.00  0.00    +0.000 A 
BRANCH   5   4
ATOM      4  O   UNL     1      49.386   6.411  15.106  0.00  0.00    +0.000 OA
BRANCH   4   3
ATOM      3  C   UNL     1      49.826   7.411  16.035  0.00  0.00    +0.000 C 
BRANCH   3   2
ATOM      1  C   UNL     1      48.290   9.225  16.887  0.00  0.00    +0.000 C 
ATOM      2  C   UNL     1      48.725   7.779  17.031  0.00  0.00    +0.000 C 
ENDBRANCH   3   2
ENDBRANCH   4   3
ENDBRANCH   5   4
ENDBRANCH  13  12
BRANCH  15  16
ATOM     16  C   UNL     1      47.507   3.216  17.223  0.00  0.00    +0.000 C 
BRANCH  16  17
ATOM     17  C   UNL     1      48.994   3.392  17.431  0.00  0.00    +0.000 A 
ATOM     18  C   UNL     1      49.872   2.390  17.005  0.00  0.00    +0.000 A 
ATOM     19  C   UNL     1      51.209   2.386  17.415  0.00  0.00    +0.000 A 
ATOM     20  C   UNL     1      51.711   3.387  18.263  0.00  0.00    +0.000 A 
ATOM     28  C   UNL     1      50.853   4.443  18.615  0.00  0.00    +0.000 A 
ATOM     29  C   UNL     1      49.507   4.441  18.212  0.00  0.00    +0.000 A 
BRANCH  20  21
ATOM     21  C   UNL     1      53.041   3.191  18.967  0.00  0.00    +0.000 C 
BRANCH  21  22
ATOM     22  N   UNL     1      54.201   4.017  18.657  0.00  0.00    +0.000 NA
ATOM     23  C   UNL     1      54.494   5.126  19.565  0.00  0.00    +0.000 C 
ATOM     24  C   UNL     1      53.855   6.461  19.157  0.00  0.00    +0.000 C 
ATOM     25  O   UNL     1      54.132   6.797  17.791  0.00  0.00    +0.000 OA
ATOM     26  C   UNL     1      53.723   5.750  16.903  0.00  0.00    +0.000 C 
ATOM     27  C   UNL     1      54.392   4.417  17.264  0.00  0.00    +0.000 C 
ENDBRANCH  21  22
ENDBRANCH  20  21
ENDBRANCH  16  17
ENDBRANCH  15  16
TORSDOF 8
ENDMDL
