MODEL 1
REMARK VINA RESULT:    -6.669      0.000      0.000
REMARK INTER + INTRA:          -7.121
REMARK INTER:                  -7.059
REMARK INTRA:                  -0.061
REMARK UNBOUND:                -0.061
REMARK  Name = 
REMARK  1 active torsions:
REMARK  status: ('A' for Active; 'I' for Inactive)
REMARK    1  A    between atoms: C_2  and  C_4
REMARK                            x       y       z     vdW  Elec       q    Type
REMARK                         _______ _______ _______ _____ _____    ______ ____
ROOT
ATOM      4  C   UNL     1      46.476   2.505   7.795  0.00  0.00    +0.000 A 
ATOM      5  C   UNL     1      46.511   3.886   7.582  0.00  0.00    +0.000 A 
ATOM      6  C   UNL     1      45.710   4.744   8.343  0.00  0.00    +0.000 A 
ATOM      7  C   UNL     1      44.879   4.215   9.350  0.00  0.00    +0.000 A 
ATOM      8  N   UNL     1      44.060   4.946  10.193  0.00  0.00    +0.000 NA
ATOM      9  C   UNL     1      43.467   4.152  11.046  0.00  0.00    +0.000 A 
ATOM     10  N   UNL     1      42.657   4.599  12.017  0.00  0.00    +0.000 N 
ATOM     11  S   UNL     1      43.786   2.480  10.849  0.00  0.00    +0.000 S 
ATOM     12  C   UNL     1      44.864   2.835   9.554  0.00  0.00    +0.000 A 
ATOM     13  C   UNL     1      45.649   1.955   8.786  0.00  0.00    +0.000 A 
ATOM     16  H   UNL     1      42.337   5.557  11.943  0.00  0.00    +0.000 HD
ATOM     17  H   UNL     1      42.019   3.958  12.473  0.00  0.00    +0.000 HD
ENDROOT
BRANCH   4   2
ATOM      1  N   UNL     1      48.415   2.257   6.340  0.00  0.00    +0.000 N 
ATOM      2  C   UNL     1      47.366   1.647   6.968  0.00  0.00    +0.000 C 
ATOM      3  O   UNL     1      47.188   0.439   6.876  0.00  0.00    +0.000 OA
ATOM     14  H   UNL     1      49.069   1.641   5.872  0.00  0.00    +0.000 HD
ATOM     15  H   UNL     1      48.739   3.178   6.592  0.00  0.00    +0.000 HD
ENDBRANCH   4   2
TORSDOF 1
ENDMDL
MODEL 2
REMARK VINA RESULT:    -6.629      2.369      5.031
REMARK INTER + INTRA:          -7.077
REMARK INTER:                  -7.012
REMARK INTRA:                  -0.066
REMARK UNBOUND:                -0.061
REMARK  Name = 
REMARK  1 active torsions:
REMARK  status: ('A' for Active; 'I' for Inactive)
REMARK    1  A    between atoms: C_2  and  C_4
REMARK                            x       y       z     vdW  Elec       q    Type
REMARK                         _______ _______ _______ _____ _____    ______ ____
ROOT
ATOM      4  C   UNL     1      44.333   3.276  10.096  0.00  0.00    +0.000 A 
ATOM      5  C   UNL     1      44.677   4.553   9.642  0.00  0.00    +0.000 A 
ATOM      6  C   UNL     1      45.627   4.717   8.629  0.00  0.00    +0.000 A 
ATOM      7  C   UNL     1      46.226   3.584   8.042  0.00  0.00    +0.000 A 
ATOM      8  N   UNL     1      47.155   3.598   7.016  0.00  0.00    +0.000 NA
ATOM      9  C   UNL     1      47.463   2.374   6.672  0.00  0.00    +0.000 A 
ATOM     10  N   UNL     1      48.301   2.090   5.663  0.00  0.00    +0.000 N 
ATOM     11  S   UNL     1      46.728   1.134   7.598  0.00  0.00    +0.000 S 
ATOM     12  C   UNL     1      45.864   2.318   8.501  0.00  0.00    +0.000 A 
ATOM     13  C   UNL     1      44.923   2.135   9.533  0.00  0.00    +0.000 A 
ATOM     16  H   UNL     1      48.865   2.852   5.307  0.00  0.00    +0.000 HD
ATOM     17  H   UNL     1      48.718   1.170   5.602  0.00  0.00    +0.000 HD
ENDROOT
BRANCH   4   2
ATOM      1  N   UNL     1      42.713   4.326  11.584  0.00  0.00    +0.000 N 
ATOM      2  C   UNL     1      43.302   3.166  11.162  0.00  0.00    +0.000 C 
ATOM      3  O   UNL     1      42.969   2.082  11.623  0.00  0.00    +0.000 OA
ATOM     14  H   UNL     1      41.940   4.219  12.229  0.00  0.00    +0.000 HD
ATOM     15  H   UNL     1      42.771   5.186  11.061  0.00  0.00    +0.000 HD
ENDBRANCH   4   2
TORSDOF 1
ENDMDL
MODEL 3
REMARK VINA RESULT:    -6.392      1.460      1.983
REMARK INTER + INTRA:          -6.827
REMARK INTER:                  -6.778
REMARK INTRA:                  -0.049
REMARK UNBOUND:                -0.061
REMARK  Name = 
REMARK  1 active torsions:
REMARK  status: ('A' for Active; 'I' for Inactive)
REMARK    1  A    between atoms: C_2  and  C_4
REMARK                            x       y       z     vdW  Elec       q    Type
REMARK                         _______ _______ _______ _____ _____    ______ ____
ROOT
ATOM      4  C   UNL     1      46.414   2.805   7.429  0.00  0.00    +0.000 A 
ATOM      5  C   UNL     1      45.951   1.574   7.904  0.00  0.00    +0.000 A 
ATOM      6  C   UNL     1      45.074   1.516   8.992  0.00  0.00    +0.000 A 
ATOM      7  C   UNL     1      44.632   2.707   9.600  0.00  0.00    +0.000 A 
ATOM      8  N   UNL     1      43.746   2.798  10.659  0.00  0.00    +0.000 NA
ATOM      9  C   UNL     1      43.508   4.053  10.941  0.00  0.00    +0.000 A 
ATOM     10  N   UNL     1      42.642   4.434  11.892  0.00  0.00    +0.000 N 
ATOM     11  S   UNL     1      44.381   5.201  10.016  0.00  0.00    +0.000 S 
ATOM     12  C   UNL     1      45.097   3.926   9.105  0.00  0.00    +0.000 A 
ATOM     13  C   UNL     1      45.994   4.005   8.023  0.00  0.00    +0.000 A 
ATOM     16  H   UNL     1      42.332   3.723  12.542  0.00  0.00    +0.000 HD
ATOM     17  H   UNL     1      42.684   5.376  12.259  0.00  0.00    +0.000 HD
ENDROOT
BRANCH   4   2
ATOM      1  N   UNL     1      48.649   2.541   6.495  0.00  0.00    +0.000 N 
ATOM      2  C   UNL     1      47.329   2.803   6.256  0.00  0.00    +0.000 C 
ATOM      3  O   UNL     1      46.916   2.997   5.120  0.00  0.00    +0.000 OA
ATOM     14  H   UNL     1      49.234   2.437   5.674  0.00  0.00    +0.000 HD
ATOM     15  H   UNL     1      48.975   2.131   7.356  0.00  0.00    +0.000 HD
ENDBRANCH   4   2
TORSDOF 1
ENDMDL
MODEL 4
REMARK VINA RESULT:    -5.925      3.104      5.478
REMARK INTER + INTRA:          -6.333
REMARK INTER:                  -6.269
REMARK INTRA:                  -0.064
REMARK UNBOUND:                -0.061
REMARK  Name = 
REMARK  1 active torsions:
REMARK  status: ('A' for Active; 'I' for Inactive)
REMARK    1  A    between atoms: C_2  and  C_4
REMARK                            x       y       z     vdW  Elec       q    Type
REMARK                         _______ _______ _______ _____ _____    ______ ____
ROOT
ATOM      4  C   UNL     1      43.726   4.591  10.645  0.00  0.00    +0.000 A 
ATOM      5  C   UNL     1      43.553   3.285  11.113  0.00  0.00    +0.000 A 
ATOM      6  C   UNL     1      44.183   2.212  10.474  0.00  0.00    +0.000 A 
ATOM      7  C   UNL     1      45.020   2.449   9.366  0.00  0.00    +0.000 A 
ATOM      8  N   UNL     1      45.725   1.490   8.661  0.00  0.00    +0.000 NA
ATOM      9  C   UNL     1      46.445   2.056   7.728  0.00  0.00    +0.000 A 
ATOM     10  N   UNL     1      47.272   1.366   6.927  0.00  0.00    +0.000 N 
ATOM     11  S   UNL     1      46.270   3.754   7.580  0.00  0.00    +0.000 S 
ATOM     12  C   UNL     1      45.188   3.760   8.920  0.00  0.00    +0.000 A 
ATOM     13  C   UNL     1      44.547   4.852   9.538  0.00  0.00    +0.000 A 
ATOM     16  H   UNL     1      47.165   0.359   6.915  0.00  0.00    +0.000 HD
ATOM     17  H   UNL     1      47.596   1.783   6.063  0.00  0.00    +0.000 HD
ENDROOT
BRANCH   4   2
ATOM      1  N   UNL     1      43.329   6.971  10.987  0.00  0.00    +0.000 N 
ATOM      2  C   UNL     1      43.046   5.693  11.378  0.00  0.00    +0.000 C 
ATOM      3  O   UNL     1      42.241   5.467  12.273  0.00  0.00    +0.000 OA
ATOM     14  H   UNL     1      42.777   7.699  11.423  0.00  0.00    +0.000 HD
ATOM     15  H   UNL     1      43.774   7.185  10.108  0.00  0.00    +0.000 HD
ENDBRANCH   4   2
TORSDOF 1
ENDMDL
MODEL 5
REMARK VINA RESULT:    -5.443      5.057      6.417
REMARK INTER + INTRA:          -5.823
REMARK INTER:                  -5.774
REMARK INTRA:                  -0.049
REMARK UNBOUND:                -0.061
REMARK  Name = 
REMARK  1 active torsions:
REMARK  status: ('A' for Active; 'I' for Inactive)
REMARK    1  A    between atoms: C_2  and  C_4
REMARK                            x       y       z     vdW  Elec       q    Type
REMARK                         _______ _______ _______ _____ _____    ______ ____
ROOT
ATOM      4  C   UNL     1      44.628   5.651  11.874  0.00  0.00    +0.000 A 
ATOM      5  C   UNL     1      44.847   4.873  13.015  0.00  0.00    +0.000 A 
ATOM      6  C   UNL     1      46.061   4.946  13.705  0.00  0.00    +0.000 A 
ATOM      7  C   UNL     1      47.065   5.831  13.264  0.00  0.00    +0.000 A 
ATOM      8  N   UNL     1      48.296   6.027  13.865  0.00  0.00    +0.000 NA
ATOM      9  C   UNL     1      48.963   6.957  13.232  0.00  0.00    +0.000 A 
ATOM     10  N   UNL     1      50.168   7.390  13.632  0.00  0.00    +0.000 N 
ATOM     11  S   UNL     1      48.201   7.600  11.838  0.00  0.00    +0.000 S 
ATOM     12  C   UNL     1      46.825   6.607  12.129  0.00  0.00    +0.000 A 
ATOM     13  C   UNL     1      45.617   6.532  11.410  0.00  0.00    +0.000 A 
ATOM     16  H   UNL     1      50.654   6.824  14.318  0.00  0.00    +0.000 HD
ATOM     17  H   UNL     1      50.758   7.898  12.985  0.00  0.00    +0.000 HD
ENDROOT
BRANCH   4   2
ATOM      1  N   UNL     1      42.272   6.253  11.729  0.00  0.00    +0.000 N 
ATOM      2  C   UNL     1      43.310   5.542  11.195  0.00  0.00    +0.000 C 
ATOM      3  O   UNL     1      43.164   4.871  10.181  0.00  0.00    +0.000 OA
ATOM     14  H   UNL     1      41.413   6.253  11.192  0.00  0.00    +0.000 HD
ATOM     15  H   UNL     1      42.409   7.002  12.390  0.00  0.00    +0.000 HD
ENDBRANCH   4   2
TORSDOF 1
ENDMDL
MODEL 6
REMARK VINA RESULT:    -5.401      5.057      6.294
REMARK INTER + INTRA:          -5.778
REMARK INTER:                  -5.722
REMARK INTRA:                  -0.056
REMARK UNBOUND:                -0.061
REMARK  Name = 
REMARK  1 active torsions:
REMARK  status: ('A' for Active; 'I' for Inactive)
REMARK    1  A    between atoms: C_2  and  C_4
REMARK                            x       y       z     vdW  Elec       q    Type
REMARK                         _______ _______ _______ _____ _____    ______ ____
ROOT
ATOM      4  C   UNL     1      45.578   7.641  12.530  0.00  0.00    +0.000 A 
ATOM      5  C   UNL     1      46.601   6.864  13.082  0.00  0.00    +0.000 A 
ATOM      6  C   UNL     1      46.472   5.474  13.168  0.00  0.00    +0.000 A 
ATOM      7  C   UNL     1      45.313   4.846  12.669  0.00  0.00    +0.000 A 
ATOM      8  N   UNL     1      45.066   3.485  12.662  0.00  0.00    +0.000 NA
ATOM      9  C   UNL     1      43.923   3.237  12.078  0.00  0.00    +0.000 A 
ATOM     10  N   UNL     1      43.458   1.994  11.882  0.00  0.00    +0.000 N 
ATOM     11  S   UNL     1      43.034   4.612  11.572  0.00  0.00    +0.000 S 
ATOM     12  C   UNL     1      44.307   5.637  12.113  0.00  0.00    +0.000 A 
ATOM     13  C   UNL     1      44.411   7.039  12.036  0.00  0.00    +0.000 A 
ATOM     16  H   UNL     1      43.914   1.248  12.394  0.00  0.00    +0.000 HD
ATOM     17  H   UNL     1      42.477   1.851  11.681  0.00  0.00    +0.000 HD
ENDROOT
BRANCH   4   2
ATOM      1  N   UNL     1      44.685   9.905  12.632  0.00  0.00    +0.000 N 
ATOM      2  C   UNL     1      45.782   9.112  12.449  0.00  0.00    +0.000 C 
ATOM      3  O   UNL     1      46.891   9.596  12.259  0.00  0.00    +0.000 OA
ATOM     14  H   UNL     1      44.863  10.901  12.682  0.00  0.00    +0.000 HD
ATOM     15  H   UNL     1      43.828   9.563  13.038  0.00  0.00    +0.000 HD
ENDBRANCH   4   2
TORSDOF 1
ENDMDL
MODEL 7
REMARK VINA RESULT:    -5.382      4.514      5.856
REMARK INTER + INTRA:          -5.758
REMARK INTER:                  -5.692
REMARK INTRA:                  -0.066
REMARK UNBOUND:                -0.061
REMARK  Name = 
REMARK  1 active torsions:
REMARK  status: ('A' for Active; 'I' for Inactive)
REMARK    1  A    between atoms: C_2  and  C_4
REMARK                            x       y       z     vdW  Elec       q    Type
REMARK                         _______ _______ _______ _____ _____    ______ ____
ROOT
ATOM      4  C   UNL     1      46.766   4.828  14.114  0.00  0.00    +0.000 A 
ATOM      5  C   UNL     1      47.126   6.020  13.478  0.00  0.00    +0.000 A 
ATOM      6  C   UNL     1      46.691   6.292  12.177  0.00  0.00    +0.000 A 
ATOM      7  C   UNL     1      45.859   5.371  11.510  0.00  0.00    +0.000 A 
ATOM      8  N   UNL     1      45.333   5.524  10.239  0.00  0.00    +0.000 NA
ATOM      9  C   UNL     1      44.561   4.510   9.946  0.00  0.00    +0.000 A 
ATOM     10  N   UNL     1      43.876   4.425   8.795  0.00  0.00    +0.000 N 
ATOM     11  S   UNL     1      44.475   3.275  11.130  0.00  0.00    +0.000 S 
ATOM     12  C   UNL     1      45.502   4.191  12.164  0.00  0.00    +0.000 A 
ATOM     13  C   UNL     1      45.947   3.891  13.466  0.00  0.00    +0.000 A 
ATOM     16  H   UNL     1      44.139   5.066   8.056  0.00  0.00    +0.000 HD
ATOM     17  H   UNL     1      43.516   3.529   8.492  0.00  0.00    +0.000 HD
ENDROOT
BRANCH   4   2
ATOM      1  N   UNL     1      47.962   5.611  16.087  0.00  0.00    +0.000 N 
ATOM      2  C   UNL     1      47.244   4.605  15.504  0.00  0.00    +0.000 C 
ATOM      3  O   UNL     1      46.981   3.577  16.116  0.00  0.00    +0.000 OA
ATOM     14  H   UNL     1      48.185   5.484  17.067  0.00  0.00    +0.000 HD
ATOM     15  H   UNL     1      47.977   6.550  15.722  0.00  0.00    +0.000 HD
ENDBRANCH   4   2
TORSDOF 1
ENDMDL
MODEL 8
REMARK VINA RESULT:    -5.271      4.352      5.149
REMARK INTER + INTRA:          -5.641
REMARK INTER:                  -5.579
REMARK INTRA:                  -0.062
REMARK UNBOUND:                -0.061
REMARK  Name = 
REMARK  1 active torsions:
REMARK  status: ('A' for Active; 'I' for Inactive)
REMARK    1  A    between atoms: C_2  and  C_4
REMARK                            x       y       z     vdW  Elec       q    Type
REMARK                         _______ _______ _______ _____ _____    ______ ____
ROOT
ATOM      4  C   UNL     1      45.067   4.717  11.143  0.00  0.00    +0.000 A 
ATOM      5  C   UNL     1      45.633   5.904  10.669  0.00  0.00    +0.000 A 
ATOM      6  C   UNL     1      46.537   6.626  11.455  0.00  0.00    +0.000 A 
ATOM      7  C   UNL     1      46.903   6.140  12.726  0.00  0.00    +0.000 A 
ATOM      8  N   UNL     1      47.804   6.732  13.593  0.00  0.00    +0.000 NA
ATOM      9  C   UNL     1      47.954   5.993  14.662  0.00  0.00    +0.000 A 
ATOM     10  N   UNL     1      48.811   6.300  15.647  0.00  0.00    +0.000 N 
ATOM     11  S   UNL     1      46.975   4.588  14.737  0.00  0.00    +0.000 S 
ATOM     12  C   UNL     1      46.336   4.948  13.179  0.00  0.00    +0.000 A 
ATOM     13  C   UNL     1      45.409   4.218  12.410  0.00  0.00    +0.000 A 
ATOM     16  H   UNL     1      49.189   7.240  15.649  0.00  0.00    +0.000 HD
ATOM     17  H   UNL     1      48.707   5.867  16.555  0.00  0.00    +0.000 HD
ENDROOT
BRANCH   4   2
ATOM      1  N   UNL     1      44.102   4.350   8.936  0.00  0.00    +0.000 N 
ATOM      2  C   UNL     1      44.127   3.986  10.253  0.00  0.00    +0.000 C 
ATOM      3  O   UNL     1      43.426   3.073  10.672  0.00  0.00    +0.000 OA
ATOM     14  H   UNL     1      43.538   3.769   8.328  0.00  0.00    +0.000 HD
ATOM     15  H   UNL     1      44.830   4.903   8.511  0.00  0.00    +0.000 HD
ENDBRANCH   4   2
TORSDOF 1
ENDMDL
MODEL 9
REMARK VINA RESULT:    -5.181      4.132      5.059
REMARK INTER + INTRA:          -5.545
REMARK INTER:                  -5.496
REMARK INTRA:                  -0.049
REMARK UNBOUND:                -0.061
REMARK  Name = 
REMARK  1 active torsions:
REMARK  status: ('A' for Active; 'I' for Inactive)
REMARK    1  A    between atoms: C_2  and  C_4
REMARK                            x       y       z     vdW  Elec       q    Type
REMARK                         _______ _______ _______ _____ _____    ______ ____
ROOT
ATOM      4  C   UNL     1      44.198   4.201  11.426  0.00  0.00    +0.000 A 
ATOM      5  C   UNL     1      43.351   5.243  11.041  0.00  0.00    +0.000 A 
ATOM      6  C   UNL     1      43.650   6.567  11.381  0.00  0.00    +0.000 A 
ATOM      7  C   UNL     1      44.830   6.855  12.096  0.00  0.00    +0.000 A 
ATOM      8  N   UNL     1      45.263   8.115  12.472  0.00  0.00    +0.000 NA
ATOM      9  C   UNL     1      46.421   8.031  13.073  0.00  0.00    +0.000 A 
ATOM     10  N   UNL     1      47.102   9.108  13.495  0.00  0.00    +0.000 N 
ATOM     11  S   UNL     1      47.030   6.446  13.298  0.00  0.00    +0.000 S 
ATOM     12  C   UNL     1      45.668   5.803  12.463  0.00  0.00    +0.000 A 
ATOM     13  C   UNL     1      45.373   4.463  12.146  0.00  0.00    +0.000 A 
ATOM     16  H   UNL     1      46.597   9.984  13.534  0.00  0.00    +0.000 HD
ATOM     17  H   UNL     1      47.841   8.997  14.179  0.00  0.00    +0.000 HD
ENDROOT
BRANCH   4   2
ATOM      1  N   UNL     1      44.554   2.258   9.998  0.00  0.00    +0.000 N 
ATOM      2  C   UNL     1      43.835   2.817  11.017  0.00  0.00    +0.000 C 
ATOM      3  O   UNL     1      42.952   2.190  11.589  0.00  0.00    +0.000 OA
ATOM     14  H   UNL     1      44.366   1.281   9.808  0.00  0.00    +0.000 HD
ATOM     15  H   UNL     1      45.436   2.634   9.684  0.00  0.00    +0.000 HD
ENDBRANCH   4   2
TORSDOF 1
ENDMDL
