MODEL 1
REMARK VINA RESULT:    -6.229      0.000      0.000
REMARK INTER + INTRA:         -12.360
REMARK INTER:                 -10.598
REMARK INTRA:                  -1.762
REMARK UNBOUND:                -1.762
REMARK  Name = 
REMARK  13 active torsions:
REMARK  status: ('A' for Active; 'I' for Inactive)
REMARK    1  A    between atoms: C_1  and  C_2
REMARK    2  A    between atoms: C_2  and  O_3
REMARK    3  A    between atoms: O_3  and  C_4
REMARK    4  A    between atoms: C_4  and  C_5
REMARK    5  A    between atoms: C_5  and  O_6
REMARK    6  A    between atoms: O_6  and  C_7
REMARK    7  A    between atoms: C_7  and  C_8
REMARK    8  A    between atoms: C_8  and  N_9
REMARK    9  A    between atoms: N_9  and  C_10
REMARK   10  A    between atoms: C_10  and  C_11
REMARK   11  A    between atoms: C_14  and  C_15
REMARK   12  A    between atoms: C_15  and  N_16
REMARK   13  A    between atoms: C_17  and  C_19
REMARK                            x       y       z     vdW  Elec       q    Type
REMARK                         _______ _______ _______ _____ _____    ______ ____
ROOT
ATOM     11  C   UNL     1      44.869   7.465  11.450  0.00  0.00    +0.000 A 
ATOM     12  C   UNL     1      45.259   8.548  12.248  0.00  0.00    +0.000 A 
ATOM     13  C   UNL     1      46.551   8.627  12.765  0.00  0.00    +0.000 A 
ATOM     14  C   UNL     1      47.490   7.620  12.498  0.00  0.00    +0.000 A 
ATOM     29  C   UNL     1      47.094   6.535  11.699  0.00  0.00    +0.000 A 
ATOM     30  C   UNL     1      45.807   6.472  11.155  0.00  0.00    +0.000 A 
ENDROOT
BRANCH  11  10
ATOM     10  C   UNL     1      43.438   7.337  10.994  0.00  0.00    +0.000 C 
BRANCH  10   9
ATOM      9  N   UNL     1      43.097   5.931  10.833  0.00  0.00    +0.000 NA
ATOM     31  H   UNL     1      42.420   5.835  10.080  0.00  0.00    +0.000 HD
BRANCH   9   8
ATOM      8  C   UNL     1      42.543   5.364  12.055  0.00  0.00    +0.000 C 
BRANCH   8   7
ATOM      7  C   UNL     1      43.209   4.018  12.334  0.00  0.00    +0.000 C 
BRANCH   7   6
ATOM      6  O   UNL     1      43.110   3.208  11.167  0.00  0.00    +0.000 OA
BRANCH   6   5
ATOM      5  C   UNL     1      44.403   2.796  10.728  0.00  0.00    +0.000 C 
BRANCH   5   4
ATOM      4  C   UNL     1      44.428   2.801   9.209  0.00  0.00    +0.000 C 
BRANCH   4   3
ATOM      3  O   UNL     1      44.524   4.145   8.742  0.00  0.00    +0.000 OA
BRANCH   3   2
ATOM      1  C   UNL     1      46.199   3.191   7.334  0.00  0.00    +0.000 C 
ATOM      2  C   UNL     1      45.803   4.393   8.164  0.00  0.00    +0.000 C 
ENDBRANCH   3   2
ENDBRANCH   4   3
ENDBRANCH   5   4
ENDBRANCH   6   5
ENDBRANCH   7   6
ENDBRANCH   8   7
ENDBRANCH   9   8
ENDBRANCH  10   9
ENDBRANCH  11  10
BRANCH  14  15
ATOM     15  C   UNL     1      48.903   7.676  13.034  0.00  0.00    +0.000 C 
BRANCH  15  16
ATOM     16  N   UNL     1      49.085   6.889  14.228  0.00  0.00    +0.000 N 
ATOM     17  C   UNL     1      48.870   7.410  15.485  0.00  0.00    +0.000 C 
ATOM     18  O   UNL     1      48.496   8.555  15.675  0.00  0.00    +0.000 OA
ATOM     32  H   UNL     1      49.707   6.092  14.152  0.00  0.00    +0.000 HD
BRANCH  17  19
ATOM     19  C   UNL     1      49.069   6.464  16.592  0.00  0.00    +0.000 A 
ATOM     20  C   UNL     1      49.962   6.762  17.617  0.00  0.00    +0.000 A 
ATOM     21  S   UNL     1      50.072   5.535  18.800  0.00  0.00    +0.000 S 
ATOM     22  C   UNL     1      48.946   4.560  17.977  0.00  0.00    +0.000 A 
ATOM     23  N   UNL     1      48.609   3.327  18.443  0.00  0.00    +0.000 NA
ATOM     24  C   UNL     1      47.746   2.699  17.713  0.00  0.00    +0.000 A 
ATOM     25  N   UNL     1      47.182   3.198  16.565  0.00  0.00    +0.000 N 
ATOM     26  C   UNL     1      47.461   4.449  16.079  0.00  0.00    +0.000 A 
ATOM     27  O   UNL     1      46.890   4.884  15.096  0.00  0.00    +0.000 OA
ATOM     28  C   UNL     1      48.461   5.180  16.843  0.00  0.00    +0.000 A 
ATOM     33  H   UNL     1      46.480   2.673  16.066  0.00  0.00    +0.000 HD
ENDBRANCH  17  19
ENDBRANCH  15  16
ENDBRANCH  14  15
TORSDOF 12
ENDMDL
MODEL 2
REMARK VINA RESULT:    -6.168      3.012      3.920
REMARK INTER + INTRA:         -12.257
REMARK INTER:                 -11.012
REMARK INTRA:                  -1.245
REMARK UNBOUND:                -1.762
REMARK  Name = 
REMARK  13 active torsions:
REMARK  status: ('A' for Active; 'I' for Inactive)
REMARK    1  A    between atoms: C_1  and  C_2
REMARK    2  A    between atoms: C_2  and  O_3
REMARK    3  A    between atoms: O_3  and  C_4
REMARK    4  A    between atoms: C_4  and  C_5
REMARK    5  A    between atoms: C_5  and  O_6
REMARK    6  A    between atoms: O_6  and  C_7
REMARK    7  A    between atoms: C_7  and  C_8
REMARK    8  A    between atoms: C_8  and  N_9
REMARK    9  A    between atoms: N_9  and  C_10
REMARK   10  A    between atoms: C_10  and  C_11
REMARK   11  A    between atoms: C_14  and  C_15
REMARK   12  A    between atoms: C_15  and  N_16
REMARK   13  A    between atoms: C_17  and  C_19
REMARK                            x       y       z     vdW  Elec       q    Type
REMARK                         _______ _______ _______ _____ _____    ______ ____
ROOT
ATOM     11  C   UNL     1      46.821   4.887  13.752  0.00  0.00    +0.000 A 
ATOM     12  C   UNL     1      46.811   4.157  14.948  0.00  0.00    +0.000 A 
ATOM     13  C   UNL     1      47.531   4.596  16.059  0.00  0.00    +0.000 A 
ATOM     14  C   UNL     1      48.282   5.778  16.002  0.00  0.00    +0.000 A 
ATOM     29  C   UNL     1      48.290   6.506  14.801  0.00  0.00    +0.000 A 
ATOM     30  C   UNL     1      47.544   6.081  13.697  0.00  0.00    +0.000 A 
ENDROOT
BRANCH  11  10
ATOM     10  C   UNL     1      46.132   4.342  12.528  0.00  0.00    +0.000 C 
BRANCH  10   9
ATOM      9  N   UNL     1      45.435   3.108  12.864  0.00  0.00    +0.000 NA
ATOM     31  H   UNL     1      45.958   2.317  12.498  0.00  0.00    +0.000 HD
BRANCH   9   8
ATOM      8  C   UNL     1      44.083   3.085  12.324  0.00  0.00    +0.000 C 
BRANCH   8   7
ATOM      7  C   UNL     1      44.053   3.852  11.004  0.00  0.00    +0.000 C 
BRANCH   7   6
ATOM      6  O   UNL     1      43.881   2.922   9.939  0.00  0.00    +0.000 OA
BRANCH   6   5
ATOM      5  C   UNL     1      45.074   2.816   9.165  0.00  0.00    +0.000 C 
BRANCH   5   4
ATOM      4  C   UNL     1      44.925   3.669   7.918  0.00  0.00    +0.000 C 
BRANCH   4   3
ATOM      3  O   UNL     1      46.205   4.160   7.525  0.00  0.00    +0.000 OA
BRANCH   3   2
ATOM      1  C   UNL     1      46.887   2.805   5.682  0.00  0.00    +0.000 C 
ATOM      2  C   UNL     1      47.070   3.089   7.157  0.00  0.00    +0.000 C 
ENDBRANCH   3   2
ENDBRANCH   4   3
ENDBRANCH   5   4
ENDBRANCH   6   5
ENDBRANCH   7   6
ENDBRANCH   8   7
ENDBRANCH   9   8
ENDBRANCH  10   9
ENDBRANCH  11  10
BRANCH  14  15
ATOM     15  C   UNL     1      49.067   6.289  17.189  0.00  0.00    +0.000 C 
BRANCH  15  16
ATOM     16  N   UNL     1      50.068   5.358  17.647  0.00  0.00    +0.000 N 
ATOM     17  C   UNL     1      51.367   5.402  17.193  0.00  0.00    +0.000 C 
ATOM     18  O   UNL     1      51.765   6.232  16.394  0.00  0.00    +0.000 OA
ATOM     32  H   UNL     1      49.729   4.474  18.011  0.00  0.00    +0.000 HD
BRANCH  17  19
ATOM     19  C   UNL     1      52.267   4.402  17.786  0.00  0.00    +0.000 A 
ATOM     20  C   UNL     1      53.412   4.805  18.465  0.00  0.00    +0.000 A 
ATOM     21  S   UNL     1      54.340   3.503  19.066  0.00  0.00    +0.000 S 
ATOM     22  C   UNL     1      53.253   2.359  18.427  0.00  0.00    +0.000 A 
ATOM     23  N   UNL     1      53.481   1.023  18.555  0.00  0.00    +0.000 NA
ATOM     24  C   UNL     1      52.574   0.274  18.017  0.00  0.00    +0.000 A 
ATOM     25  N   UNL     1      51.455   0.741  17.372  0.00  0.00    +0.000 N 
ATOM     26  C   UNL     1      51.165   2.076  17.253  0.00  0.00    +0.000 A 
ATOM     27  O   UNL     1      50.129   2.450  16.734  0.00  0.00    +0.000 OA
ATOM     28  C   UNL     1      52.178   2.962  17.806  0.00  0.00    +0.000 A 
ATOM     33  H   UNL     1      50.763   0.101  17.014  0.00  0.00    +0.000 HD
ENDBRANCH  17  19
ENDBRANCH  15  16
ENDBRANCH  14  15
TORSDOF 12
ENDMDL
MODEL 3
REMARK VINA RESULT:    -6.091      2.573      3.158
REMARK INTER + INTRA:         -12.126
REMARK INTER:                 -11.281
REMARK INTRA:                  -0.845
REMARK UNBOUND:                -1.762
REMARK  Name = 
REMARK  13 active torsions:
REMARK  status: ('A' for Active; 'I' for Inactive)
REMARK    1  A    between atoms: C_1  and  C_2
REMARK    2  A    between atoms: C_2  and  O_3
REMARK    3  A    between atoms: O_3  and  C_4
REMARK    4  A    between atoms: C_4  and  C_5
REMARK    5  A    between atoms: C_5  and  O_6
REMARK    6  A    between atoms: O_6  and  C_7
REMARK    7  A    between atoms: C_7  and  C_8
REMARK    8  A    between atoms: C_8  and  N_9
REMARK    9  A    between atoms: N_9  and  C_10
REMARK   10  A    between atoms: C_10  and  C_11
REMARK   11  A    between atoms: C_14  and  C_15
REMARK   12  A    between atoms: C_15  and  N_16
REMARK   13  A    between atoms: C_17  and  C_19
REMARK                            x       y       z     vdW  Elec       q    Type
REMARK                         _______ _______ _______ _____ _____    ______ ____
ROOT
ATOM     11  C   UNL     1      45.567   5.263  11.678  0.00  0.00    +0.000 A 
ATOM     12  C   UNL     1      46.306   6.380  11.264  0.00  0.00    +0.000 A 
ATOM     13  C   UNL     1      47.331   6.893  12.058  0.00  0.00    +0.000 A 
ATOM     14  C   UNL     1      47.644   6.302  13.290  0.00  0.00    +0.000 A 
ATOM     29  C   UNL     1      46.900   5.184  13.702  0.00  0.00    +0.000 A 
ATOM     30  C   UNL     1      45.892   4.652  12.891  0.00  0.00    +0.000 A 
ENDROOT
BRANCH  11  10
ATOM     10  C   UNL     1      44.389   4.792  10.864  0.00  0.00    +0.000 C 
BRANCH  10   9
ATOM      9  N   UNL     1      44.649   5.015   9.448  0.00  0.00    +0.000 NA
ATOM     31  H   UNL     1      43.996   5.708   9.093  0.00  0.00    +0.000 HD
BRANCH   9   8
ATOM      8  C   UNL     1      44.520   3.788   8.674  0.00  0.00    +0.000 C 
BRANCH   8   7
ATOM      7  C   UNL     1      44.353   2.605   9.625  0.00  0.00    +0.000 C 
BRANCH   7   6
ATOM      6  O   UNL     1      45.053   1.486   9.089  0.00  0.00    +0.000 OA
BRANCH   6   5
ATOM      5  C   UNL     1      46.092   1.914   8.211  0.00  0.00    +0.000 C 
BRANCH   5   4
ATOM      4  C   UNL     1      46.785   0.689   7.641  0.00  0.00    +0.000 C 
BRANCH   4   3
ATOM      3  O   UNL     1      47.970   1.092   6.957  0.00  0.00    +0.000 OA
BRANCH   3   2
ATOM      1  C   UNL     1      47.384   2.682   5.277  0.00  0.00    +0.000 C 
ATOM      2  C   UNL     1      47.943   2.487   6.670  0.00  0.00    +0.000 C 
ENDBRANCH   3   2
ENDBRANCH   4   3
ENDBRANCH   5   4
ENDBRANCH   6   5
ENDBRANCH   7   6
ENDBRANCH   8   7
ENDBRANCH   9   8
ENDBRANCH  10   9
ENDBRANCH  11  10
BRANCH  14  15
ATOM     15  C   UNL     1      48.755   6.825  14.173  0.00  0.00    +0.000 C 
BRANCH  15  16
ATOM     16  N   UNL     1      48.315   7.134  15.510  0.00  0.00    +0.000 N 
ATOM     17  C   UNL     1      49.121   7.799  16.408  0.00  0.00    +0.000 C 
ATOM     18  O   UNL     1      50.243   8.187  16.133  0.00  0.00    +0.000 OA
ATOM     32  H   UNL     1      47.576   6.551  15.887  0.00  0.00    +0.000 HD
BRANCH  17  19
ATOM     19  C   UNL     1      48.507   8.063  17.716  0.00  0.00    +0.000 A 
ATOM     20  C   UNL     1      48.183   9.364  18.089  0.00  0.00    +0.000 A 
ATOM     21  S   UNL     1      47.498   9.473  19.650  0.00  0.00    +0.000 S 
ATOM     22  C   UNL     1      47.624   7.792  19.886  0.00  0.00    +0.000 A 
ATOM     23  N   UNL     1      47.240   7.214  21.057  0.00  0.00    +0.000 NA
ATOM     24  C   UNL     1      47.398   5.931  21.094  0.00  0.00    +0.000 A 
ATOM     25  N   UNL     1      47.894   5.173  20.063  0.00  0.00    +0.000 N 
ATOM     26  C   UNL     1      48.257   5.706  18.853  0.00  0.00    +0.000 A 
ATOM     27  O   UNL     1      48.629   4.994  17.938  0.00  0.00    +0.000 OA
ATOM     28  C   UNL     1      48.138   7.154  18.775  0.00  0.00    +0.000 A 
ATOM     33  H   UNL     1      47.949   4.169  20.142  0.00  0.00    +0.000 HD
ENDBRANCH  17  19
ENDBRANCH  15  16
ENDBRANCH  14  15
TORSDOF 12
ENDMDL
MODEL 4
REMARK VINA RESULT:    -6.005      1.882      2.470
REMARK INTER + INTRA:         -11.980
REMARK INTER:                 -10.604
REMARK INTRA:                  -1.376
REMARK UNBOUND:                -1.762
REMARK  Name = 
REMARK  13 active torsions:
REMARK  status: ('A' for Active; 'I' for Inactive)
REMARK    1  A    between atoms: C_1  and  C_2
REMARK    2  A    between atoms: C_2  and  O_3
REMARK    3  A    between atoms: O_3  and  C_4
REMARK    4  A    between atoms: C_4  and  C_5
REMARK    5  A    between atoms: C_5  and  O_6
REMARK    6  A    between atoms: O_6  and  C_7
REMARK    7  A    between atoms: C_7  and  C_8
REMARK    8  A    between atoms: C_8  and  N_9
REMARK    9  A    between atoms: N_9  and  C_10
REMARK   10  A    between atoms: C_10  and  C_11
REMARK   11  A    between atoms: C_14  and  C_15
REMARK   12  A    between atoms: C_15  and  N_16
REMARK   13  A    between atoms: C_17  and  C_19
REMARK                            x       y       z     vdW  Elec       q    Type
REMARK                         _______ _______ _______ _____ _____    ______ ____
ROOT
ATOM     11  C   UNL     1      44.678   5.415  12.750  0.00  0.00    +0.000 A 
ATOM     12  C   UNL     1      44.788   6.608  12.022  0.00  0.00    +0.000 A 
ATOM     13  C   UNL     1      46.011   7.271  11.916  0.00  0.00    +0.000 A 
ATOM     14  C   UNL     1      47.158   6.757  12.537  0.00  0.00    +0.000 A 
ATOM     29  C   UNL     1      47.043   5.562  13.267  0.00  0.00    +0.000 A 
ATOM     30  C   UNL     1      45.823   4.883  13.348  0.00  0.00    +0.000 A 
ENDROOT
BRANCH  11  10
ATOM     10  C   UNL     1      43.329   4.774  12.951  0.00  0.00    +0.000 C 
BRANCH  10   9
ATOM      9  N   UNL     1      42.865   4.202  11.694  0.00  0.00    +0.000 NA
ATOM     31  H   UNL     1      41.848   4.174  11.695  0.00  0.00    +0.000 HD
BRANCH   9   8
ATOM      8  C   UNL     1      43.386   2.859  11.485  0.00  0.00    +0.000 C 
BRANCH   8   7
ATOM      7  C   UNL     1      44.280   2.850  10.247  0.00  0.00    +0.000 C 
BRANCH   7   6
ATOM      6  O   UNL     1      44.016   4.025   9.485  0.00  0.00    +0.000 OA
BRANCH   6   5
ATOM      5  C   UNL     1      45.218   4.533   8.910  0.00  0.00    +0.000 C 
BRANCH   5   4
ATOM      4  C   UNL     1      45.878   3.430   8.101  0.00  0.00    +0.000 C 
BRANCH   4   3
ATOM      3  O   UNL     1      46.479   3.993   6.937  0.00  0.00    +0.000 OA
BRANCH   3   2
ATOM      1  C   UNL     1      47.464   1.834   6.676  0.00  0.00    +0.000 C 
ATOM      2  C   UNL     1      46.771   2.983   5.975  0.00  0.00    +0.000 C 
ENDBRANCH   3   2
ENDBRANCH   4   3
ENDBRANCH   5   4
ENDBRANCH   6   5
ENDBRANCH   7   6
ENDBRANCH   8   7
ENDBRANCH   9   8
ENDBRANCH  10   9
ENDBRANCH  11  10
BRANCH  14  15
ATOM     15  C   UNL     1      48.502   7.443  12.436  0.00  0.00    +0.000 C 
BRANCH  15  16
ATOM     16  N   UNL     1      49.434   7.011  13.447  0.00  0.00    +0.000 N 
ATOM     17  C   UNL     1      49.885   7.858  14.434  0.00  0.00    +0.000 C 
ATOM     18  O   UNL     1      49.519   9.017  14.534  0.00  0.00    +0.000 OA
ATOM     32  H   UNL     1      50.016   6.214  13.212  0.00  0.00    +0.000 HD
BRANCH  17  19
ATOM     19  C   UNL     1      50.806   7.249  15.403  0.00  0.00    +0.000 A 
ATOM     20  C   UNL     1      52.150   7.607  15.415  0.00  0.00    +0.000 A 
ATOM     21  S   UNL     1      53.065   6.779  16.597  0.00  0.00    +0.000 S 
ATOM     22  C   UNL     1      51.701   5.904  17.121  0.00  0.00    +0.000 A 
ATOM     23  N   UNL     1      51.800   4.972  18.107  0.00  0.00    +0.000 NA
ATOM     24  C   UNL     1      50.685   4.384  18.398  0.00  0.00    +0.000 A 
ATOM     25  N   UNL     1      49.479   4.653  17.799  0.00  0.00    +0.000 N 
ATOM     26  C   UNL     1      49.325   5.611  16.829  0.00  0.00    +0.000 A 
ATOM     27  O   UNL     1      48.228   5.869  16.370  0.00  0.00    +0.000 OA
ATOM     28  C   UNL     1      50.560   6.272  16.436  0.00  0.00    +0.000 A 
ATOM     33  H   UNL     1      48.638   4.189  18.105  0.00  0.00    +0.000 HD
ENDBRANCH  17  19
ENDBRANCH  15  16
ENDBRANCH  14  15
TORSDOF 12
ENDMDL
MODEL 5
REMARK VINA RESULT:    -5.938      4.754      9.733
REMARK INTER + INTRA:         -11.866
REMARK INTER:                 -10.491
REMARK INTRA:                  -1.374
REMARK UNBOUND:                -1.762
REMARK  Name = 
REMARK  13 active torsions:
REMARK  status: ('A' for Active; 'I' for Inactive)
REMARK    1  A    between atoms: C_1  and  C_2
REMARK    2  A    between atoms: C_2  and  O_3
REMARK    3  A    between atoms: O_3  and  C_4
REMARK    4  A    between atoms: C_4  and  C_5
REMARK    5  A    between atoms: C_5  and  O_6
REMARK    6  A    between atoms: O_6  and  C_7
REMARK    7  A    between atoms: C_7  and  C_8
REMARK    8  A    between atoms: C_8  and  N_9
REMARK    9  A    between atoms: N_9  and  C_10
REMARK   10  A    between atoms: C_10  and  C_11
REMARK   11  A    between atoms: C_14  and  C_15
REMARK   12  A    between atoms: C_15  and  N_16
REMARK   13  A    between atoms: C_17  and  C_19
REMARK                            x       y       z     vdW  Elec       q    Type
REMARK                         _______ _______ _______ _____ _____    ______ ____
ROOT
ATOM     11  C   UNL     1      51.512   3.411  17.707  0.00  0.00    +0.000 A 
ATOM     12  C   UNL     1      50.866   2.241  17.284  0.00  0.00    +0.000 A 
ATOM     13  C   UNL     1      49.495   2.234  17.029  0.00  0.00    +0.000 A 
ATOM     14  C   UNL     1      48.733   3.399  17.192  0.00  0.00    +0.000 A 
ATOM     29  C   UNL     1      49.384   4.569  17.617  0.00  0.00    +0.000 A 
ATOM     30  C   UNL     1      50.764   4.582  17.843  0.00  0.00    +0.000 A 
ENDROOT
BRANCH  11  10
ATOM     10  C   UNL     1      52.970   3.374  18.088  0.00  0.00    +0.000 C 
BRANCH  10   9
ATOM      9  N   UNL     1      53.154   2.502  19.241  0.00  0.00    +0.000 NA
ATOM     31  H   UNL     1      52.333   2.558  19.837  0.00  0.00    +0.000 HD
BRANCH   9   8
ATOM      8  C   UNL     1      54.335   2.866  20.011  0.00  0.00    +0.000 C 
BRANCH   8   7
ATOM      7  C   UNL     1      55.356   1.732  19.936  0.00  0.00    +0.000 C 
BRANCH   7   6
ATOM      6  O   UNL     1      54.701   0.506  20.243  0.00  0.00    +0.000 OA
BRANCH   6   5
ATOM      5  C   UNL     1      55.370  -0.592  19.627  0.00  0.00    +0.000 C 
BRANCH   5   4
ATOM      4  C   UNL     1      54.445  -1.211  18.593  0.00  0.00    +0.000 C 
BRANCH   4   3
ATOM      3  O   UNL     1      53.849  -0.178  17.813  0.00  0.00    +0.000 OA
BRANCH   3   2
ATOM      1  C   UNL     1      55.246   1.020  16.292  0.00  0.00    +0.000 C 
ATOM      2  C   UNL     1      54.355  -0.189  16.481  0.00  0.00    +0.000 C 
ENDBRANCH   3   2
ENDBRANCH   4   3
ENDBRANCH   5   4
ENDBRANCH   6   5
ENDBRANCH   7   6
ENDBRANCH   8   7
ENDBRANCH   9   8
ENDBRANCH  10   9
ENDBRANCH  11  10
BRANCH  14  15
ATOM     15  C   UNL     1      47.246   3.431  16.916  0.00  0.00    +0.000 C 
BRANCH  15  16
ATOM     16  N   UNL     1      46.878   4.403  15.917  0.00  0.00    +0.000 N 
ATOM     17  C   UNL     1      46.943   4.126  14.570  0.00  0.00    +0.000 C 
ATOM     18  O   UNL     1      47.295   3.045  14.130  0.00  0.00    +0.000 OA
ATOM     32  H   UNL     1      46.923   5.377  16.197  0.00  0.00    +0.000 HD
BRANCH  17  19
ATOM     19  C   UNL     1      46.501   5.216  13.689  0.00  0.00    +0.000 A 
ATOM     20  C   UNL     1      47.306   6.335  13.499  0.00  0.00    +0.000 A 
ATOM     21  S   UNL     1      46.615   7.501  12.460  0.00  0.00    +0.000 S 
ATOM     22  C   UNL     1      45.213   6.560  12.242  0.00  0.00    +0.000 A 
ATOM     23  N   UNL     1      44.178   7.005  11.477  0.00  0.00    +0.000 NA
ATOM     24  C   UNL     1      43.179   6.187  11.406  0.00  0.00    +0.000 A 
ATOM     25  N   UNL     1      43.126   4.960  12.022  0.00  0.00    +0.000 N 
ATOM     26  C   UNL     1      44.159   4.455  12.769  0.00  0.00    +0.000 A 
ATOM     27  O   UNL     1      44.103   3.335  13.242  0.00  0.00    +0.000 OA
ATOM     28  C   UNL     1      45.291   5.357  12.915  0.00  0.00    +0.000 A 
ATOM     33  H   UNL     1      42.333   4.351  11.888  0.00  0.00    +0.000 HD
ENDBRANCH  17  19
ENDBRANCH  15  16
ENDBRANCH  14  15
TORSDOF 12
ENDMDL
MODEL 6
REMARK VINA RESULT:    -5.881      2.956      7.507
REMARK INTER + INTRA:         -11.768
REMARK INTER:                  -9.914
REMARK INTRA:                  -1.854
REMARK UNBOUND:                -1.762
REMARK  Name = 
REMARK  13 active torsions:
REMARK  status: ('A' for Active; 'I' for Inactive)
REMARK    1  A    between atoms: C_1  and  C_2
REMARK    2  A    between atoms: C_2  and  O_3
REMARK    3  A    between atoms: O_3  and  C_4
REMARK    4  A    between atoms: C_4  and  C_5
REMARK    5  A    between atoms: C_5  and  O_6
REMARK    6  A    between atoms: O_6  and  C_7
REMARK    7  A    between atoms: C_7  and  C_8
REMARK    8  A    between atoms: C_8  and  N_9
REMARK    9  A    between atoms: N_9  and  C_10
REMARK   10  A    between atoms: C_10  and  C_11
REMARK   11  A    between atoms: C_14  and  C_15
REMARK   12  A    between atoms: C_15  and  N_16
REMARK   13  A    between atoms: C_17  and  C_19
REMARK                            x       y       z     vdW  Elec       q    Type
REMARK                         _______ _______ _______ _____ _____    ______ ____
ROOT
ATOM     11  C   UNL     1      49.168   8.168  15.806  0.00  0.00    +0.000 A 
ATOM     12  C   UNL     1      49.614   7.149  14.954  0.00  0.00    +0.000 A 
ATOM     13  C   UNL     1      49.089   7.009  13.670  0.00  0.00    +0.000 A 
ATOM     14  C   UNL     1      48.100   7.886  13.204  0.00  0.00    +0.000 A 
ATOM     29  C   UNL     1      47.654   8.905  14.061  0.00  0.00    +0.000 A 
ATOM     30  C   UNL     1      48.203   9.063  15.337  0.00  0.00    +0.000 A 
ENDROOT
BRANCH  11  10
ATOM     10  C   UNL     1      49.661   8.236  17.228  0.00  0.00    +0.000 C 
BRANCH  10   9
ATOM      9  N   UNL     1      48.727   7.544  18.106  0.00  0.00    +0.000 NA
ATOM     31  H   UNL     1      48.392   8.191  18.815  0.00  0.00    +0.000 HD
BRANCH   9   8
ATOM      8  C   UNL     1      49.344   6.395  18.755  0.00  0.00    +0.000 C 
BRANCH   8   7
ATOM      7  C   UNL     1      48.279   5.618  19.526  0.00  0.00    +0.000 C 
BRANCH   7   6
ATOM      6  O   UNL     1      48.533   4.224  19.378  0.00  0.00    +0.000 OA
BRANCH   6   5
ATOM      5  C   UNL     1      48.781   3.899  18.012  0.00  0.00    +0.000 C 
BRANCH   5   4
ATOM      4  C   UNL     1      47.730   2.904  17.548  0.00  0.00    +0.000 C 
BRANCH   4   3
ATOM      3  O   UNL     1      46.721   3.592  16.813  0.00  0.00    +0.000 OA
BRANCH   3   2
ATOM      1  C   UNL     1      46.756   4.360  14.553  0.00  0.00    +0.000 C 
ATOM      2  C   UNL     1      47.295   4.571  15.952  0.00  0.00    +0.000 C 
ENDBRANCH   3   2
ENDBRANCH   4   3
ENDBRANCH   5   4
ENDBRANCH   6   5
ENDBRANCH   7   6
ENDBRANCH   8   7
ENDBRANCH   9   8
ENDBRANCH  10   9
ENDBRANCH  11  10
BRANCH  14  15
ATOM     15  C   UNL     1      47.514   7.770  11.814  0.00  0.00    +0.000 C 
BRANCH  15  16
ATOM     16  N   UNL     1      46.768   6.553  11.616  0.00  0.00    +0.000 N 
ATOM     17  C   UNL     1      45.391   6.536  11.604  0.00  0.00    +0.000 C 
ATOM     18  O   UNL     1      44.712   7.539  11.739  0.00  0.00    +0.000 OA
ATOM     32  H   UNL     1      47.244   5.689  11.848  0.00  0.00    +0.000 HD
BRANCH  17  19
ATOM     19  C   UNL     1      44.788   5.218  11.356  0.00  0.00    +0.000 A 
ATOM     20  C   UNL     1      43.965   4.633  12.313  0.00  0.00    +0.000 A 
ATOM     21  S   UNL     1      43.376   3.096  11.855  0.00  0.00    +0.000 S 
ATOM     22  C   UNL     1      44.212   3.154  10.373  0.00  0.00    +0.000 A 
ATOM     23  N   UNL     1      44.166   2.113   9.498  0.00  0.00    +0.000 NA
ATOM     24  C   UNL     1      44.853   2.295   8.417  0.00  0.00    +0.000 A 
ATOM     25  N   UNL     1      45.571   3.429   8.128  0.00  0.00    +0.000 N 
ATOM     26  C   UNL     1      45.615   4.518   8.961  0.00  0.00    +0.000 A 
ATOM     27  O   UNL     1      46.206   5.532   8.640  0.00  0.00    +0.000 OA
ATOM     28  C   UNL     1      44.892   4.345  10.212  0.00  0.00    +0.000 A 
ATOM     33  H   UNL     1      46.049   3.525   7.245  0.00  0.00    +0.000 HD
ENDBRANCH  17  19
ENDBRANCH  15  16
ENDBRANCH  14  15
TORSDOF 12
ENDMDL
MODEL 7
REMARK VINA RESULT:    -5.855      1.612      2.291
REMARK INTER + INTRA:         -11.725
REMARK INTER:                 -10.792
REMARK INTRA:                  -0.933
REMARK UNBOUND:                -1.762
REMARK  Name = 
REMARK  13 active torsions:
REMARK  status: ('A' for Active; 'I' for Inactive)
REMARK    1  A    between atoms: C_1  and  C_2
REMARK    2  A    between atoms: C_2  and  O_3
REMARK    3  A    between atoms: O_3  and  C_4
REMARK    4  A    between atoms: C_4  and  C_5
REMARK    5  A    between atoms: C_5  and  O_6
REMARK    6  A    between atoms: O_6  and  C_7
REMARK    7  A    between atoms: C_7  and  C_8
REMARK    8  A    between atoms: C_8  and  N_9
REMARK    9  A    between atoms: N_9  and  C_10
REMARK   10  A    between atoms: C_10  and  C_11
REMARK   11  A    between atoms: C_14  and  C_15
REMARK   12  A    between atoms: C_15  and  N_16
REMARK   13  A    between atoms: C_17  and  C_19
REMARK                            x       y       z     vdW  Elec       q    Type
REMARK                         _______ _______ _______ _____ _____    ______ ____
ROOT
ATOM     11  C   UNL     1      44.506   5.738  11.407  0.00  0.00    +0.000 A 
ATOM     12  C   UNL     1      45.593   5.113  12.033  0.00  0.00    +0.000 A 
ATOM     13  C   UNL     1      46.543   5.860  12.730  0.00  0.00    +0.000 A 
ATOM     14  C   UNL     1      46.430   7.254  12.817  0.00  0.00    +0.000 A 
ATOM     29  C   UNL     1      45.340   7.877  12.187  0.00  0.00    +0.000 A 
ATOM     30  C   UNL     1      44.372   7.124  11.514  0.00  0.00    +0.000 A 
ENDROOT
BRANCH  11  10
ATOM     10  C   UNL     1      43.554   4.931  10.563  0.00  0.00    +0.000 C 
BRANCH  10   9
ATOM      9  N   UNL     1      43.297   3.647  11.202  0.00  0.00    +0.000 NA
ATOM     31  H   UNL     1      43.638   3.676  12.160  0.00  0.00    +0.000 HD
BRANCH   9   8
ATOM      8  C   UNL     1      43.943   2.551  10.493  0.00  0.00    +0.000 C 
BRANCH   8   7
ATOM      7  C   UNL     1      44.535   3.072   9.186  0.00  0.00    +0.000 C 
BRANCH   7   6
ATOM      6  O   UNL     1      45.803   2.457   8.981  0.00  0.00    +0.000 OA
BRANCH   6   5
ATOM      5  C   UNL     1      45.660   1.230   8.269  0.00  0.00    +0.000 C 
BRANCH   5   4
ATOM      4  C   UNL     1      46.991   0.881   7.625  0.00  0.00    +0.000 C 
BRANCH   4   3
ATOM      3  O   UNL     1      47.702   2.080   7.328  0.00  0.00    +0.000 OA
BRANCH   3   2
ATOM      1  C   UNL     1      46.802   2.949   5.294  0.00  0.00    +0.000 C 
ATOM      2  C   UNL     1      47.950   2.192   5.929  0.00  0.00    +0.000 C 
ENDBRANCH   3   2
ENDBRANCH   4   3
ENDBRANCH   5   4
ENDBRANCH   6   5
ENDBRANCH   7   6
ENDBRANCH   8   7
ENDBRANCH   9   8
ENDBRANCH  10   9
ENDBRANCH  11  10
BRANCH  14  15
ATOM     15  C   UNL     1      47.435   8.095  13.572  0.00  0.00    +0.000 C 
BRANCH  15  16
ATOM     16  N   UNL     1      47.875   7.483  14.801  0.00  0.00    +0.000 N 
ATOM     17  C   UNL     1      49.168   7.045  14.976  0.00  0.00    +0.000 C 
ATOM     18  O   UNL     1      50.030   7.158  14.121  0.00  0.00    +0.000 OA
ATOM     32  H   UNL     1      47.155   7.059  15.375  0.00  0.00    +0.000 HD
BRANCH  17  19
ATOM     19  C   UNL     1      49.458   6.476  16.299  0.00  0.00    +0.000 A 
ATOM     20  C   UNL     1      50.409   7.067  17.124  0.00  0.00    +0.000 A 
ATOM     21  S   UNL     1      50.621   6.253  18.611  0.00  0.00    +0.000 S 
ATOM     22  C   UNL     1      49.461   5.077  18.197  0.00  0.00    +0.000 A 
ATOM     23  N   UNL     1      49.179   4.042  19.034  0.00  0.00    +0.000 NA
ATOM     24  C   UNL     1      48.282   3.224  18.587  0.00  0.00    +0.000 A 
ATOM     25  N   UNL     1      47.635   3.355  17.383  0.00  0.00    +0.000 N 
ATOM     26  C   UNL     1      47.858   4.402  16.526  0.00  0.00    +0.000 A 
ATOM     27  O   UNL     1      47.216   4.522  15.499  0.00  0.00    +0.000 OA
ATOM     28  C   UNL     1      48.891   5.328  16.965  0.00  0.00    +0.000 A 
ATOM     33  H   UNL     1      46.912   2.706  17.114  0.00  0.00    +0.000 HD
ENDBRANCH  17  19
ENDBRANCH  15  16
ENDBRANCH  14  15
TORSDOF 12
ENDMDL
MODEL 8
REMARK VINA RESULT:    -5.825      3.212      7.158
REMARK INTER + INTRA:         -11.674
REMARK INTER:                 -10.337
REMARK INTRA:                  -1.337
REMARK UNBOUND:                -1.762
REMARK  Name = 
REMARK  13 active torsions:
REMARK  status: ('A' for Active; 'I' for Inactive)
REMARK    1  A    between atoms: C_1  and  C_2
REMARK    2  A    between atoms: C_2  and  O_3
REMARK    3  A    between atoms: O_3  and  C_4
REMARK    4  A    between atoms: C_4  and  C_5
REMARK    5  A    between atoms: C_5  and  O_6
REMARK    6  A    between atoms: O_6  and  C_7
REMARK    7  A    between atoms: C_7  and  C_8
REMARK    8  A    between atoms: C_8  and  N_9
REMARK    9  A    between atoms: N_9  and  C_10
REMARK   10  A    between atoms: C_10  and  C_11
REMARK   11  A    between atoms: C_14  and  C_15
REMARK   12  A    between atoms: C_15  and  N_16
REMARK   13  A    between atoms: C_17  and  C_19
REMARK                            x       y       z     vdW  Elec       q    Type
REMARK                         _______ _______ _______ _____ _____    ______ ____
ROOT
ATOM     11  C   UNL     1      48.759   8.030  16.241  0.00  0.00    +0.000 A 
ATOM     12  C   UNL     1      49.133   6.923  15.467  0.00  0.00    +0.000 A 
ATOM     13  C   UNL     1      48.997   6.942  14.079  0.00  0.00    +0.000 A 
ATOM     14  C   UNL     1      48.479   8.071  13.428  0.00  0.00    +0.000 A 
ATOM     29  C   UNL     1      48.104   9.177  14.208  0.00  0.00    +0.000 A 
ATOM     30  C   UNL     1      48.270   9.168  15.596  0.00  0.00    +0.000 A 
ENDROOT
BRANCH  11  10
ATOM     10  C   UNL     1      48.805   7.950  17.745  0.00  0.00    +0.000 C 
BRANCH  10   9
ATOM      9  N   UNL     1      47.524   7.477  18.252  0.00  0.00    +0.000 NA
ATOM     31  H   UNL     1      46.961   8.275  18.534  0.00  0.00    +0.000 HD
BRANCH   9   8
ATOM      8  C   UNL     1      47.689   6.578  19.385  0.00  0.00    +0.000 C 
BRANCH   8   7
ATOM      7  C   UNL     1      48.020   5.177  18.876  0.00  0.00    +0.000 C 
BRANCH   7   6
ATOM      6  O   UNL     1      46.947   4.724  18.055  0.00  0.00    +0.000 OA
BRANCH   6   5
ATOM      5  C   UNL     1      47.185   3.393  17.602  0.00  0.00    +0.000 C 
BRANCH   5   4
ATOM      4  C   UNL     1      47.827   3.452  16.227  0.00  0.00    +0.000 C 
BRANCH   4   3
ATOM      3  O   UNL     1      48.912   2.529  16.173  0.00  0.00    +0.000 OA
BRANCH   3   2
ATOM      1  C   UNL     1      50.852   1.643  17.246  0.00  0.00    +0.000 C 
ATOM      2  C   UNL     1      49.835   2.765  17.232  0.00  0.00    +0.000 C 
ENDBRANCH   3   2
ENDBRANCH   4   3
ENDBRANCH   5   4
ENDBRANCH   6   5
ENDBRANCH   7   6
ENDBRANCH   8   7
ENDBRANCH   9   8
ENDBRANCH  10   9
ENDBRANCH  11  10
BRANCH  14  15
ATOM     15  C   UNL     1      48.326   8.131  11.925  0.00  0.00    +0.000 C 
BRANCH  15  16
ATOM     16  N   UNL     1      47.610   7.002  11.385  0.00  0.00    +0.000 N 
ATOM     17  C   UNL     1      46.235   6.937  11.394  0.00  0.00    +0.000 C 
ATOM     18  O   UNL     1      45.530   7.828  11.838  0.00  0.00    +0.000 OA
ATOM     32  H   UNL     1      48.119   6.126  11.337  0.00  0.00    +0.000 HD
BRANCH  17  19
ATOM     19  C   UNL     1      45.665   5.733  10.775  0.00  0.00    +0.000 A 
ATOM     20  C   UNL     1      45.842   5.493   9.416  0.00  0.00    +0.000 A 
ATOM     21  S   UNL     1      45.092   4.056   8.875  0.00  0.00    +0.000 S 
ATOM     22  C   UNL     1      44.494   3.715  10.432  0.00  0.00    +0.000 A 
ATOM     23  N   UNL     1      43.718   2.622  10.664  0.00  0.00    +0.000 NA
ATOM     24  C   UNL     1      43.332   2.493  11.892  0.00  0.00    +0.000 A 
ATOM     25  N   UNL     1      43.662   3.354  12.910  0.00  0.00    +0.000 N 
ATOM     26  C   UNL     1      44.472   4.446  12.731  0.00  0.00    +0.000 A 
ATOM     27  O   UNL     1      44.798   5.147  13.671  0.00  0.00    +0.000 OA
ATOM     28  C   UNL     1      44.898   4.658  11.357  0.00  0.00    +0.000 A 
ATOM     33  H   UNL     1      43.364   3.170  13.856  0.00  0.00    +0.000 HD
ENDBRANCH  17  19
ENDBRANCH  15  16
ENDBRANCH  14  15
TORSDOF 12
ENDMDL
MODEL 9
REMARK VINA RESULT:    -5.741      5.301      9.905
REMARK INTER + INTRA:         -11.530
REMARK INTER:                 -10.416
REMARK INTRA:                  -1.114
REMARK UNBOUND:                -1.762
REMARK  Name = 
REMARK  13 active torsions:
REMARK  status: ('A' for Active; 'I' for Inactive)
REMARK    1  A    between atoms: C_1  and  C_2
REMARK    2  A    between atoms: C_2  and  O_3
REMARK    3  A    between atoms: O_3  and  C_4
REMARK    4  A    between atoms: C_4  and  C_5
REMARK    5  A    between atoms: C_5  and  O_6
REMARK    6  A    between atoms: O_6  and  C_7
REMARK    7  A    between atoms: C_7  and  C_8
REMARK    8  A    between atoms: C_8  and  N_9
REMARK    9  A    between atoms: N_9  and  C_10
REMARK   10  A    between atoms: C_10  and  C_11
REMARK   11  A    between atoms: C_14  and  C_15
REMARK   12  A    between atoms: C_15  and  N_16
REMARK   13  A    between atoms: C_17  and  C_19
REMARK                            x       y       z     vdW  Elec       q    Type
REMARK                         _______ _______ _______ _____ _____    ______ ____
ROOT
ATOM     11  C   UNL     1      51.164   2.272  17.507  0.00  0.00    +0.000 A 
ATOM     12  C   UNL     1      51.712   3.545  17.714  0.00  0.00    +0.000 A 
ATOM     13  C   UNL     1      50.914   4.687  17.646  0.00  0.00    +0.000 A 
ATOM     14  C   UNL     1      49.544   4.584  17.366  0.00  0.00    +0.000 A 
ATOM     29  C   UNL     1      48.999   3.306  17.157  0.00  0.00    +0.000 A 
ATOM     30  C   UNL     1      49.794   2.160  17.256  0.00  0.00    +0.000 A 
ENDROOT
BRANCH  11  10
ATOM     10  C   UNL     1      52.060   1.060  17.471  0.00  0.00    +0.000 C 
BRANCH  10   9
ATOM      9  N   UNL     1      53.056   1.154  18.529  0.00  0.00    +0.000 NA
ATOM     31  H   UNL     1      52.909   2.013  19.052  0.00  0.00    +0.000 HD
BRANCH   9   8
ATOM      8  C   UNL     1      54.412   1.139  17.998  0.00  0.00    +0.000 C 
BRANCH   8   7
ATOM      7  C   UNL     1      55.389   0.776  19.115  0.00  0.00    +0.000 C 
BRANCH   7   6
ATOM      6  O   UNL     1      54.718  -0.058  20.055  0.00  0.00    +0.000 OA
BRANCH   6   5
ATOM      5  C   UNL     1      55.338  -1.340  20.124  0.00  0.00    +0.000 C 
BRANCH   5   4
ATOM      4  C   UNL     1      54.393  -2.373  19.534  0.00  0.00    +0.000 C 
BRANCH   4   3
ATOM      3  O   UNL     1      53.116  -2.253  20.155  0.00  0.00    +0.000 OA
BRANCH   3   2
ATOM      1  C   UNL     1      53.327  -4.610  19.834  0.00  0.00    +0.000 C 
ATOM      2  C   UNL     1      52.667  -3.514  20.644  0.00  0.00    +0.000 C 
ENDBRANCH   3   2
ENDBRANCH   4   3
ENDBRANCH   5   4
ENDBRANCH   6   5
ENDBRANCH   7   6
ENDBRANCH   8   7
ENDBRANCH   9   8
ENDBRANCH  10   9
ENDBRANCH  11  10
BRANCH  14  15
ATOM     15  C   UNL     1      48.646   5.799  17.292  0.00  0.00    +0.000 C 
BRANCH  15  16
ATOM     16  N   UNL     1      47.820   5.820  16.112  0.00  0.00    +0.000 N 
ATOM     17  C   UNL     1      48.293   6.266  14.898  0.00  0.00    +0.000 C 
ATOM     18  O   UNL     1      49.438   6.653  14.732  0.00  0.00    +0.000 OA
ATOM     32  H   UNL     1      46.818   5.851  16.263  0.00  0.00    +0.000 HD
BRANCH  17  19
ATOM     19  C   UNL     1      47.331   6.190  13.790  0.00  0.00    +0.000 A 
ATOM     20  C   UNL     1      46.959   7.342  13.104  0.00  0.00    +0.000 A 
ATOM     21  S   UNL     1      45.818   7.056  11.864  0.00  0.00    +0.000 S 
ATOM     22  C   UNL     1      45.773   5.390  12.211  0.00  0.00    +0.000 A 
ATOM     23  N   UNL     1      44.950   4.551  11.526  0.00  0.00    +0.000 NA
ATOM     24  C   UNL     1      45.018   3.315  11.900  0.00  0.00    +0.000 A 
ATOM     25  N   UNL     1      45.843   2.841  12.891  0.00  0.00    +0.000 N 
ATOM     26  C   UNL     1      46.716   3.643  13.581  0.00  0.00    +0.000 A 
ATOM     27  O   UNL     1      47.480   3.176  14.405  0.00  0.00    +0.000 OA
ATOM     28  C   UNL     1      46.646   5.052  13.226  0.00  0.00    +0.000 A 
ATOM     33  H   UNL     1      45.880   1.856  13.103  0.00  0.00    +0.000 HD
ENDBRANCH  17  19
ENDBRANCH  15  16
ENDBRANCH  14  15
TORSDOF 12
ENDMDL
