MODEL 1
REMARK VINA RESULT:    -6.901      0.000      0.000
REMARK INTER + INTRA:         -14.795
REMARK INTER:                 -12.549
REMARK INTRA:                  -2.246
REMARK UNBOUND:                -2.246
REMARK  Name = 
REMARK  15 active torsions:
REMARK  status: ('A' for Active; 'I' for Inactive)
REMARK    1  A    between atoms: C_1  and  C_2
REMARK    2  A    between atoms: C_2  and  C_3
REMARK    3  A    between atoms: C_3  and  C_4
REMARK    4  A    between atoms: C_4  and  C_5
REMARK    5  A    between atoms: C_5  and  C_6
REMARK    6  A    between atoms: C_6  and  C_7
REMARK    7  A    between atoms: C_7  and  C_8
REMARK    8  A    between atoms: C_8  and  C_9
REMARK    9  A    between atoms: C_9  and  C_10
REMARK   10  A    between atoms: C_10  and  N_11
REMARK   11  A    between atoms: N_11  and  C_12
REMARK   12  A    between atoms: C_12  and  C_13
REMARK   13  A    between atoms: C_16  and  C_17
REMARK   14  A    between atoms: C_17  and  N_18
REMARK   15  A    between atoms: C_19  and  C_21
REMARK                            x       y       z     vdW  Elec       q    Type
REMARK                         _______ _______ _______ _____ _____    ______ ____
ROOT
ATOM     13  C   UNL     1      44.870   7.562  11.492  0.00  0.00    +0.000 A 
ATOM     14  C   UNL     1      45.829   6.615  11.108  0.00  0.00    +0.000 A 
ATOM     15  C   UNL     1      47.136   6.690  11.590  0.00  0.00    +0.000 A 
ATOM     16  C   UNL     1      47.509   7.713  12.471  0.00  0.00    +0.000 A 
ATOM     31  C   UNL     1      46.561   8.681  12.827  0.00  0.00    +0.000 A 
ATOM     32  C   UNL     1      45.249   8.601  12.352  0.00  0.00    +0.000 A 
ENDROOT
BRANCH  13  12
ATOM     12  C   UNL     1      43.435   7.420  11.040  0.00  0.00    +0.000 C 
BRANCH  12  11
ATOM     11  N   UNL     1      43.052   6.027  10.793  0.00  0.00    +0.000 NA
ATOM     33  H   UNL     1      42.454   5.987   9.970  0.00  0.00    +0.000 HD
BRANCH  11  10
ATOM     10  C   UNL     1      42.334   5.466  11.936  0.00  0.00    +0.000 C 
BRANCH  10   9
ATOM      9  C   UNL     1      43.244   4.520  12.707  0.00  0.00    +0.000 C 
BRANCH   9   8
ATOM      8  C   UNL     1      43.389   3.215  11.933  0.00  0.00    +0.000 C 
BRANCH   8   7
ATOM      7  C   UNL     1      44.742   3.142  11.247  0.00  0.00    +0.000 C 
BRANCH   7   6
ATOM      6  C   UNL     1      44.574   2.737   9.790  0.00  0.00    +0.000 C 
BRANCH   6   5
ATOM      5  C   UNL     1      45.176   3.793   8.876  0.00  0.00    +0.000 C 
BRANCH   5   4
ATOM      4  C   UNL     1      45.472   3.208   7.501  0.00  0.00    +0.000 C 
BRANCH   4   3
ATOM      3  C   UNL     1      46.870   3.603   7.044  0.00  0.00    +0.000 C 
BRANCH   3   2
ATOM      1  C   UNL     1      47.117   1.124   7.316  0.00  0.00    +0.000 C 
ATOM      2  C   UNL     1      47.688   2.372   6.669  0.00  0.00    +0.000 C 
ENDBRANCH   3   2
ENDBRANCH   4   3
ENDBRANCH   5   4
ENDBRANCH   6   5
ENDBRANCH   7   6
ENDBRANCH   8   7
ENDBRANCH   9   8
ENDBRANCH  10   9
ENDBRANCH  11  10
ENDBRANCH  12  11
ENDBRANCH  13  12
BRANCH  16  17
ATOM     17  C   UNL     1      48.910   7.782  13.018  0.00  0.00    +0.000 C 
BRANCH  17  18
ATOM     18  N   UNL     1      49.069   6.926  14.163  0.00  0.00    +0.000 N 
ATOM     19  C   UNL     1      48.956   7.422  15.436  0.00  0.00    +0.000 C 
ATOM     20  O   UNL     1      48.650   8.591  15.657  0.00  0.00    +0.000 OA
ATOM     34  H   UNL     1      49.515   6.027  14.011  0.00  0.00    +0.000 HD
BRANCH  19  21
ATOM     21  C   UNL     1      49.159   6.466  16.528  0.00  0.00    +0.000 A 
ATOM     22  C   UNL     1      50.106   6.728  17.510  0.00  0.00    +0.000 A 
ATOM     23  S   UNL     1      50.183   5.529  18.721  0.00  0.00    +0.000 S 
ATOM     24  C   UNL     1      48.986   4.596  17.950  0.00  0.00    +0.000 A 
ATOM     25  N   UNL     1      48.589   3.402  18.468  0.00  0.00    +0.000 NA
ATOM     26  C   UNL     1      47.699   2.786  17.764  0.00  0.00    +0.000 A 
ATOM     27  N   UNL     1      47.165   3.258  16.592  0.00  0.00    +0.000 N 
ATOM     28  C   UNL     1      47.509   4.474  16.052  0.00  0.00    +0.000 A 
ATOM     29  O   UNL     1      46.966   4.893  15.033  0.00  0.00    +0.000 OA
ATOM     30  C   UNL     1      48.521   5.199  16.796  0.00  0.00    +0.000 A 
ATOM     35  H   UNL     1      46.459   2.733  16.097  0.00  0.00    +0.000 HD
ENDBRANCH  19  21
ENDBRANCH  17  18
ENDBRANCH  16  17
TORSDOF 14
ENDMDL
MODEL 2
REMARK VINA RESULT:    -6.437      2.933      3.903
REMARK INTER + INTRA:         -13.951
REMARK INTER:                 -12.337
REMARK INTRA:                  -1.615
REMARK UNBOUND:                -2.246
REMARK  Name = 
REMARK  15 active torsions:
REMARK  status: ('A' for Active; 'I' for Inactive)
REMARK    1  A    between atoms: C_1  and  C_2
REMARK    2  A    between atoms: C_2  and  C_3
REMARK    3  A    between atoms: C_3  and  C_4
REMARK    4  A    between atoms: C_4  and  C_5
REMARK    5  A    between atoms: C_5  and  C_6
REMARK    6  A    between atoms: C_6  and  C_7
REMARK    7  A    between atoms: C_7  and  C_8
REMARK    8  A    between atoms: C_8  and  C_9
REMARK    9  A    between atoms: C_9  and  C_10
REMARK   10  A    between atoms: C_10  and  N_11
REMARK   11  A    between atoms: N_11  and  C_12
REMARK   12  A    between atoms: C_12  and  C_13
REMARK   13  A    between atoms: C_16  and  C_17
REMARK   14  A    between atoms: C_17  and  N_18
REMARK   15  A    between atoms: C_19  and  C_21
REMARK                            x       y       z     vdW  Elec       q    Type
REMARK                         _______ _______ _______ _____ _____    ______ ____
ROOT
ATOM     13  C   UNL     1      47.111   5.075  14.290  0.00  0.00    +0.000 A 
ATOM     14  C   UNL     1      47.153   4.348  15.489  0.00  0.00    +0.000 A 
ATOM     15  C   UNL     1      47.926   4.791  16.563  0.00  0.00    +0.000 A 
ATOM     16  C   UNL     1      48.669   5.973  16.461  0.00  0.00    +0.000 A 
ATOM     31  C   UNL     1      48.657   6.681  15.252  0.00  0.00    +0.000 A 
ATOM     32  C   UNL     1      47.876   6.243  14.179  0.00  0.00    +0.000 A 
ENDROOT
BRANCH  13  12
ATOM     12  C   UNL     1      46.200   4.638  13.166  0.00  0.00    +0.000 C 
BRANCH  12  11
ATOM     11  N   UNL     1      44.929   5.368  13.148  0.00  0.00    +0.000 NA
ATOM     33  H   UNL     1      44.849   5.917  14.002  0.00  0.00    +0.000 HD
BRANCH  11  10
ATOM     10  C   UNL     1      43.794   4.451  13.057  0.00  0.00    +0.000 C 
BRANCH  10   9
ATOM      9  C   UNL     1      43.367   4.296  11.605  0.00  0.00    +0.000 C 
BRANCH   9   8
ATOM      8  C   UNL     1      43.675   2.879  11.136  0.00  0.00    +0.000 C 
BRANCH   8   7
ATOM      7  C   UNL     1      44.395   2.899   9.799  0.00  0.00    +0.000 C 
BRANCH   7   6
ATOM      6  C   UNL     1      44.720   4.330   9.396  0.00  0.00    +0.000 C 
BRANCH   6   5
ATOM      5  C   UNL     1      45.781   4.343   8.305  0.00  0.00    +0.000 C 
BRANCH   5   4
ATOM      4  C   UNL     1      45.558   3.198   7.326  0.00  0.00    +0.000 C 
BRANCH   4   3
ATOM      3  C   UNL     1      46.774   3.025   6.424  0.00  0.00    +0.000 C 
BRANCH   3   2
ATOM      1  C   UNL     1      46.993   0.739   7.426  0.00  0.00    +0.000 C 
ATOM      2  C   UNL     1      47.736   1.992   6.998  0.00  0.00    +0.000 C 
ENDBRANCH   3   2
ENDBRANCH   4   3
ENDBRANCH   5   4
ENDBRANCH   6   5
ENDBRANCH   7   6
ENDBRANCH   8   7
ENDBRANCH   9   8
ENDBRANCH  10   9
ENDBRANCH  11  10
ENDBRANCH  12  11
ENDBRANCH  13  12
BRANCH  16  17
ATOM     17  C   UNL     1      49.481   6.472  17.627  0.00  0.00    +0.000 C 
BRANCH  17  18
ATOM     18  N   UNL     1      50.454   5.498  18.045  0.00  0.00    +0.000 N 
ATOM     19  C   UNL     1      51.649   5.367  17.386  0.00  0.00    +0.000 C 
ATOM     20  O   UNL     1      51.971   6.111  16.463  0.00  0.00    +0.000 OA
ATOM     34  H   UNL     1      50.131   4.755  18.655  0.00  0.00    +0.000 HD
BRANCH  19  21
ATOM     21  C   UNL     1      52.556   4.328  17.882  0.00  0.00    +0.000 A 
ATOM     22  C   UNL     1      53.760   4.687  18.475  0.00  0.00    +0.000 A 
ATOM     23  S   UNL     1      54.672   3.355  19.026  0.00  0.00    +0.000 S 
ATOM     24  C   UNL     1      53.511   2.252  18.450  0.00  0.00    +0.000 A 
ATOM     25  N   UNL     1      53.694   0.910  18.584  0.00  0.00    +0.000 NA
ATOM     26  C   UNL     1      52.751   0.190  18.073  0.00  0.00    +0.000 A 
ATOM     27  N   UNL     1      51.638   0.690  17.446  0.00  0.00    +0.000 N 
ATOM     28  C   UNL     1      51.394   2.037  17.321  0.00  0.00    +0.000 A 
ATOM     29  O   UNL     1      50.357   2.449  16.807  0.00  0.00    +0.000 OA
ATOM     30  C   UNL     1      52.434   2.890  17.862  0.00  0.00    +0.000 A 
ATOM     35  H   UNL     1      50.928   0.072  17.082  0.00  0.00    +0.000 HD
ENDBRANCH  19  21
ENDBRANCH  17  18
ENDBRANCH  16  17
TORSDOF 14
ENDMDL
MODEL 3
REMARK VINA RESULT:    -6.173      1.801      2.277
REMARK INTER + INTRA:         -13.471
REMARK INTER:                 -11.972
REMARK INTRA:                  -1.499
REMARK UNBOUND:                -2.246
REMARK  Name = 
REMARK  15 active torsions:
REMARK  status: ('A' for Active; 'I' for Inactive)
REMARK    1  A    between atoms: C_1  and  C_2
REMARK    2  A    between atoms: C_2  and  C_3
REMARK    3  A    between atoms: C_3  and  C_4
REMARK    4  A    between atoms: C_4  and  C_5
REMARK    5  A    between atoms: C_5  and  C_6
REMARK    6  A    between atoms: C_6  and  C_7
REMARK    7  A    between atoms: C_7  and  C_8
REMARK    8  A    between atoms: C_8  and  C_9
REMARK    9  A    between atoms: C_9  and  C_10
REMARK   10  A    between atoms: C_10  and  N_11
REMARK   11  A    between atoms: N_11  and  C_12
REMARK   12  A    between atoms: C_12  and  C_13
REMARK   13  A    between atoms: C_16  and  C_17
REMARK   14  A    between atoms: C_17  and  N_18
REMARK   15  A    between atoms: C_19  and  C_21
REMARK                            x       y       z     vdW  Elec       q    Type
REMARK                         _______ _______ _______ _____ _____    ______ ____
ROOT
ATOM     13  C   UNL     1      45.467   7.502  12.232  0.00  0.00    +0.000 A 
ATOM     14  C   UNL     1      45.952   8.545  13.035  0.00  0.00    +0.000 A 
ATOM     15  C   UNL     1      47.238   8.490  13.573  0.00  0.00    +0.000 A 
ATOM     16  C   UNL     1      48.068   7.392  13.314  0.00  0.00    +0.000 A 
ATOM     31  C   UNL     1      47.572   6.333  12.543  0.00  0.00    +0.000 A 
ATOM     32  C   UNL     1      46.287   6.392  11.996  0.00  0.00    +0.000 A 
ENDROOT
BRANCH  13  12
ATOM     12  C   UNL     1      44.109   7.613  11.578  0.00  0.00    +0.000 C 
BRANCH  12  11
ATOM     11  N   UNL     1      43.735   6.405  10.837  0.00  0.00    +0.000 NA
ATOM     33  H   UNL     1      43.444   6.668   9.898  0.00  0.00    +0.000 HD
BRANCH  11  10
ATOM     10  C   UNL     1      42.641   5.696  11.499  0.00  0.00    +0.000 C 
BRANCH  10   9
ATOM      9  C   UNL     1      43.202   4.664  12.467  0.00  0.00    +0.000 C 
BRANCH   9   8
ATOM      8  C   UNL     1      43.321   3.320  11.760  0.00  0.00    +0.000 C 
BRANCH   8   7
ATOM      7  C   UNL     1      44.661   3.199  11.056  0.00  0.00    +0.000 C 
BRANCH   7   6
ATOM      6  C   UNL     1      44.455   2.906   9.576  0.00  0.00    +0.000 C 
BRANCH   6   5
ATOM      5  C   UNL     1      45.209   3.920   8.729  0.00  0.00    +0.000 C 
BRANCH   5   4
ATOM      4  C   UNL     1      45.807   3.253   7.498  0.00  0.00    +0.000 C 
BRANCH   4   3
ATOM      3  C   UNL     1      46.399   1.898   7.861  0.00  0.00    +0.000 C 
BRANCH   3   2
ATOM      1  C   UNL     1      47.612   2.438   5.736  0.00  0.00    +0.000 C 
ATOM      2  C   UNL     1      47.606   1.577   6.987  0.00  0.00    +0.000 C 
ENDBRANCH   3   2
ENDBRANCH   4   3
ENDBRANCH   5   4
ENDBRANCH   6   5
ENDBRANCH   7   6
ENDBRANCH   8   7
ENDBRANCH   9   8
ENDBRANCH  10   9
ENDBRANCH  11  10
ENDBRANCH  12  11
ENDBRANCH  13  12
BRANCH  16  17
ATOM     17  C   UNL     1      49.467   7.341  13.867  0.00  0.00    +0.000 C 
BRANCH  17  18
ATOM     18  N   UNL     1      49.489   7.652  15.272  0.00  0.00    +0.000 N 
ATOM     19  C   UNL     1      49.360   6.666  16.215  0.00  0.00    +0.000 C 
ATOM     20  O   UNL     1      49.290   5.477  15.912  0.00  0.00    +0.000 OA
ATOM     34  H   UNL     1      49.341   8.621  15.533  0.00  0.00    +0.000 HD
BRANCH  19  21
ATOM     21  C   UNL     1      49.373   7.097  17.615  0.00  0.00    +0.000 A 
ATOM     22  C   UNL     1      50.311   8.028  18.043  0.00  0.00    +0.000 A 
ATOM     23  S   UNL     1      50.159   8.442  19.691  0.00  0.00    +0.000 S 
ATOM     24  C   UNL     1      48.864   7.358  19.900  0.00  0.00    +0.000 A 
ATOM     25  N   UNL     1      48.270   7.203  21.115  0.00  0.00    +0.000 NA
ATOM     26  C   UNL     1      47.324   6.325  21.137  0.00  0.00    +0.000 A 
ATOM     27  N   UNL     1      46.913   5.591  20.054  0.00  0.00    +0.000 N 
ATOM     28  C   UNL     1      47.458   5.740  18.801  0.00  0.00    +0.000 A 
ATOM     29  O   UNL     1      47.025   5.109  17.840  0.00  0.00    +0.000 OA
ATOM     30  C   UNL     1      48.540   6.703  18.726  0.00  0.00    +0.000 A 
ATOM     35  H   UNL     1      46.154   4.930  20.135  0.00  0.00    +0.000 HD
ENDBRANCH  19  21
ENDBRANCH  17  18
ENDBRANCH  16  17
TORSDOF 14
ENDMDL
MODEL 4
REMARK VINA RESULT:    -6.156      2.883      4.329
REMARK INTER + INTRA:         -13.439
REMARK INTER:                 -11.695
REMARK INTRA:                  -1.744
REMARK UNBOUND:                -2.246
REMARK  Name = 
REMARK  15 active torsions:
REMARK  status: ('A' for Active; 'I' for Inactive)
REMARK    1  A    between atoms: C_1  and  C_2
REMARK    2  A    between atoms: C_2  and  C_3
REMARK    3  A    between atoms: C_3  and  C_4
REMARK    4  A    between atoms: C_4  and  C_5
REMARK    5  A    between atoms: C_5  and  C_6
REMARK    6  A    between atoms: C_6  and  C_7
REMARK    7  A    between atoms: C_7  and  C_8
REMARK    8  A    between atoms: C_8  and  C_9
REMARK    9  A    between atoms: C_9  and  C_10
REMARK   10  A    between atoms: C_10  and  N_11
REMARK   11  A    between atoms: N_11  and  C_12
REMARK   12  A    between atoms: C_12  and  C_13
REMARK   13  A    between atoms: C_16  and  C_17
REMARK   14  A    between atoms: C_17  and  N_18
REMARK   15  A    between atoms: C_19  and  C_21
REMARK                            x       y       z     vdW  Elec       q    Type
REMARK                         _______ _______ _______ _____ _____    ______ ____
ROOT
ATOM     13  C   UNL     1      47.343   5.932  13.556  0.00  0.00    +0.000 A 
ATOM     14  C   UNL     1      46.749   4.663  13.614  0.00  0.00    +0.000 A 
ATOM     15  C   UNL     1      46.856   3.879  14.763  0.00  0.00    +0.000 A 
ATOM     16  C   UNL     1      47.556   4.351  15.880  0.00  0.00    +0.000 A 
ATOM     31  C   UNL     1      48.181   5.603  15.810  0.00  0.00    +0.000 A 
ATOM     32  C   UNL     1      48.066   6.392  14.663  0.00  0.00    +0.000 A 
ENDROOT
BRANCH  13  12
ATOM     12  C   UNL     1      47.143   6.811  12.343  0.00  0.00    +0.000 C 
BRANCH  12  11
ATOM     11  N   UNL     1      46.098   6.313  11.445  0.00  0.00    +0.000 NA
ATOM     33  H   UNL     1      46.460   6.288  10.494  0.00  0.00    +0.000 HD
BRANCH  11  10
ATOM     10  C   UNL     1      44.913   7.169  11.486  0.00  0.00    +0.000 C 
BRANCH  10   9
ATOM      9  C   UNL     1      43.660   6.331  11.279  0.00  0.00    +0.000 C 
BRANCH   9   8
ATOM      8  C   UNL     1      43.797   5.019  12.043  0.00  0.00    +0.000 C 
BRANCH   8   7
ATOM      7  C   UNL     1      43.356   3.847  11.184  0.00  0.00    +0.000 C 
BRANCH   7   6
ATOM      6  C   UNL     1      44.563   3.034  10.741  0.00  0.00    +0.000 C 
BRANCH   6   5
ATOM      5  C   UNL     1      44.563   2.871   9.228  0.00  0.00    +0.000 C 
BRANCH   5   4
ATOM      4  C   UNL     1      45.221   4.070   8.559  0.00  0.00    +0.000 C 
BRANCH   4   3
ATOM      3  C   UNL     1      45.964   3.637   7.302  0.00  0.00    +0.000 C 
BRANCH   3   2
ATOM      1  C   UNL     1      47.340   1.819   6.263  0.00  0.00    +0.000 C 
ATOM      2  C   UNL     1      46.785   2.379   7.560  0.00  0.00    +0.000 C 
ENDBRANCH   3   2
ENDBRANCH   4   3
ENDBRANCH   5   4
ENDBRANCH   6   5
ENDBRANCH   7   6
ENDBRANCH   8   7
ENDBRANCH   9   8
ENDBRANCH  10   9
ENDBRANCH  11  10
ENDBRANCH  12  11
ENDBRANCH  13  12
BRANCH  16  17
ATOM     17  C   UNL     1      47.650   3.522  17.133  0.00  0.00    +0.000 C 
BRANCH  17  18
ATOM     18  N   UNL     1      49.020   3.305  17.518  0.00  0.00    +0.000 N 
ATOM     19  C   UNL     1      49.786   2.355  16.891  0.00  0.00    +0.000 C 
ATOM     20  O   UNL     1      49.366   1.701  15.940  0.00  0.00    +0.000 OA
ATOM     34  H   UNL     1      49.314   3.679  18.413  0.00  0.00    +0.000 HD
BRANCH  19  21
ATOM     21  C   UNL     1      51.160   2.203  17.377  0.00  0.00    +0.000 A 
ATOM     22  C   UNL     1      51.681   0.933  17.591  0.00  0.00    +0.000 A 
ATOM     23  S   UNL     1      53.303   0.941  18.121  0.00  0.00    +0.000 S 
ATOM     24  C   UNL     1      53.349   2.643  18.126  0.00  0.00    +0.000 A 
ATOM     25  N   UNL     1      54.470   3.311  18.512  0.00  0.00    +0.000 NA
ATOM     26  C   UNL     1      54.355   4.596  18.500  0.00  0.00    +0.000 A 
ATOM     27  N   UNL     1      53.223   5.276  18.131  0.00  0.00    +0.000 N 
ATOM     28  C   UNL     1      52.080   4.645  17.700  0.00  0.00    +0.000 A 
ATOM     29  O   UNL     1      51.105   5.287  17.319  0.00  0.00    +0.000 OA
ATOM     30  C   UNL     1      52.151   3.197  17.713  0.00  0.00    +0.000 A 
ATOM     35  H   UNL     1      53.203   6.286  18.128  0.00  0.00    +0.000 HD
ENDBRANCH  19  21
ENDBRANCH  17  18
ENDBRANCH  16  17
TORSDOF 14
ENDMDL
MODEL 5
REMARK VINA RESULT:    -5.941      2.929      7.795
REMARK INTER + INTRA:         -13.049
REMARK INTER:                 -10.136
REMARK INTRA:                  -2.913
REMARK UNBOUND:                -2.246
REMARK  Name = 
REMARK  15 active torsions:
REMARK  status: ('A' for Active; 'I' for Inactive)
REMARK    1  A    between atoms: C_1  and  C_2
REMARK    2  A    between atoms: C_2  and  C_3
REMARK    3  A    between atoms: C_3  and  C_4
REMARK    4  A    between atoms: C_4  and  C_5
REMARK    5  A    between atoms: C_5  and  C_6
REMARK    6  A    between atoms: C_6  and  C_7
REMARK    7  A    between atoms: C_7  and  C_8
REMARK    8  A    between atoms: C_8  and  C_9
REMARK    9  A    between atoms: C_9  and  C_10
REMARK   10  A    between atoms: C_10  and  N_11
REMARK   11  A    between atoms: N_11  and  C_12
REMARK   12  A    between atoms: C_12  and  C_13
REMARK   13  A    between atoms: C_16  and  C_17
REMARK   14  A    between atoms: C_17  and  N_18
REMARK   15  A    between atoms: C_19  and  C_21
REMARK                            x       y       z     vdW  Elec       q    Type
REMARK                         _______ _______ _______ _____ _____    ______ ____
ROOT
ATOM     13  C   UNL     1      49.048   7.983  16.013  0.00  0.00    +0.000 A 
ATOM     14  C   UNL     1      48.072   8.897  15.592  0.00  0.00    +0.000 A 
ATOM     15  C   UNL     1      47.590   8.870  14.282  0.00  0.00    +0.000 A 
ATOM     16  C   UNL     1      48.072   7.924  13.369  0.00  0.00    +0.000 A 
ATOM     31  C   UNL     1      49.073   7.033  13.780  0.00  0.00    +0.000 A 
ATOM     32  C   UNL     1      49.549   7.054  15.093  0.00  0.00    +0.000 A 
ENDROOT
BRANCH  13  12
ATOM     12  C   UNL     1      49.496   7.959  17.457  0.00  0.00    +0.000 C 
BRANCH  12  11
ATOM     11  N   UNL     1      49.520   6.607  18.022  0.00  0.00    +0.000 NA
ATOM     33  H   UNL     1      48.613   6.403  18.436  0.00  0.00    +0.000 HD
BRANCH  11  10
ATOM     10  C   UNL     1      50.555   6.481  19.047  0.00  0.00    +0.000 C 
BRANCH  10   9
ATOM      9  C   UNL     1      51.616   5.488  18.594  0.00  0.00    +0.000 C 
BRANCH   9   8
ATOM      8  C   UNL     1      51.071   4.658  17.438  0.00  0.00    +0.000 C 
BRANCH   8   7
ATOM      7  C   UNL     1      50.602   3.298  17.926  0.00  0.00    +0.000 C 
BRANCH   7   6
ATOM      6  C   UNL     1      49.352   2.870  17.171  0.00  0.00    +0.000 C 
BRANCH   6   5
ATOM      5  C   UNL     1      48.119   3.060  18.042  0.00  0.00    +0.000 C 
BRANCH   5   4
ATOM      4  C   UNL     1      47.071   3.893  17.315  0.00  0.00    +0.000 C 
BRANCH   4   3
ATOM      3  C   UNL     1      47.650   4.476  16.032  0.00  0.00    +0.000 C 
BRANCH   3   2
ATOM      1  C   UNL     1      47.147   3.613  13.734  0.00  0.00    +0.000 C 
ATOM      2  C   UNL     1      46.628   4.431  14.903  0.00  0.00    +0.000 C 
ENDBRANCH   3   2
ENDBRANCH   4   3
ENDBRANCH   5   4
ENDBRANCH   6   5
ENDBRANCH   7   6
ENDBRANCH   8   7
ENDBRANCH   9   8
ENDBRANCH  10   9
ENDBRANCH  11  10
ENDBRANCH  12  11
ENDBRANCH  13  12
BRANCH  16  17
ATOM     17  C   UNL     1      47.534   7.870  11.964  0.00  0.00    +0.000 C 
BRANCH  17  18
ATOM     18  N   UNL     1      46.829   6.640  11.718  0.00  0.00    +0.000 N 
ATOM     19  C   UNL     1      45.459   6.611  11.668  0.00  0.00    +0.000 C 
ATOM     20  O   UNL     1      44.780   7.631  11.761  0.00  0.00    +0.000 OA
ATOM     34  H   UNL     1      47.347   5.777  11.841  0.00  0.00    +0.000 HD
BRANCH  19  21
ATOM     21  C   UNL     1      44.844   5.302  11.433  0.00  0.00    +0.000 A 
ATOM     22  C   UNL     1      44.065   4.717  12.423  0.00  0.00    +0.000 A 
ATOM     23  S   UNL     1      43.399   3.213  11.968  0.00  0.00    +0.000 S 
ATOM     24  C   UNL     1      44.167   3.272  10.450  0.00  0.00    +0.000 A 
ATOM     25  N   UNL     1      44.027   2.255   9.556  0.00  0.00    +0.000 NA
ATOM     26  C   UNL     1      44.690   2.415   8.460  0.00  0.00    +0.000 A 
ATOM     27  N   UNL     1      45.475   3.503   8.172  0.00  0.00    +0.000 N 
ATOM     28  C   UNL     1      45.616   4.568   9.029  0.00  0.00    +0.000 A 
ATOM     29  O   UNL     1      46.279   5.554   8.713  0.00  0.00    +0.000 OA
ATOM     30  C   UNL     1      44.906   4.429  10.285  0.00  0.00    +0.000 A 
ATOM     35  H   UNL     1      45.956   3.574   7.288  0.00  0.00    +0.000 HD
ENDBRANCH  19  21
ENDBRANCH  17  18
ENDBRANCH  16  17
TORSDOF 14
ENDMDL
MODEL 6
REMARK VINA RESULT:    -5.854      3.217      8.348
REMARK INTER + INTRA:         -12.890
REMARK INTER:                 -10.179
REMARK INTRA:                  -2.712
REMARK UNBOUND:                -2.246
REMARK  Name = 
REMARK  15 active torsions:
REMARK  status: ('A' for Active; 'I' for Inactive)
REMARK    1  A    between atoms: C_1  and  C_2
REMARK    2  A    between atoms: C_2  and  C_3
REMARK    3  A    between atoms: C_3  and  C_4
REMARK    4  A    between atoms: C_4  and  C_5
REMARK    5  A    between atoms: C_5  and  C_6
REMARK    6  A    between atoms: C_6  and  C_7
REMARK    7  A    between atoms: C_7  and  C_8
REMARK    8  A    between atoms: C_8  and  C_9
REMARK    9  A    between atoms: C_9  and  C_10
REMARK   10  A    between atoms: C_10  and  N_11
REMARK   11  A    between atoms: N_11  and  C_12
REMARK   12  A    between atoms: C_12  and  C_13
REMARK   13  A    between atoms: C_16  and  C_17
REMARK   14  A    between atoms: C_17  and  N_18
REMARK   15  A    between atoms: C_19  and  C_21
REMARK                            x       y       z     vdW  Elec       q    Type
REMARK                         _______ _______ _______ _____ _____    ______ ____
ROOT
ATOM     13  C   UNL     1      49.830   6.360  18.889  0.00  0.00    +0.000 A 
ATOM     14  C   UNL     1      50.628   6.017  17.788  0.00  0.00    +0.000 A 
ATOM     15  C   UNL     1      50.403   6.595  16.538  0.00  0.00    +0.000 A 
ATOM     16  C   UNL     1      49.378   7.533  16.366  0.00  0.00    +0.000 A 
ATOM     31  C   UNL     1      48.557   7.850  17.456  0.00  0.00    +0.000 A 
ATOM     32  C   UNL     1      48.788   7.277  18.710  0.00  0.00    +0.000 A 
ENDROOT
BRANCH  13  12
ATOM     12  C   UNL     1      50.140   5.799  20.258  0.00  0.00    +0.000 C 
BRANCH  12  11
ATOM     11  N   UNL     1      50.851   4.519  20.200  0.00  0.00    +0.000 NA
ATOM     33  H   UNL     1      50.349   3.833  20.761  0.00  0.00    +0.000 HD
BRANCH  11  10
ATOM     10  C   UNL     1      52.216   4.649  20.709  0.00  0.00    +0.000 C 
BRANCH  10   9
ATOM      9  C   UNL     1      53.121   3.628  20.035  0.00  0.00    +0.000 C 
BRANCH   9   8
ATOM      8  C   UNL     1      53.580   4.170  18.687  0.00  0.00    +0.000 C 
BRANCH   8   7
ATOM      7  C   UNL     1      53.034   3.322  17.551  0.00  0.00    +0.000 C 
BRANCH   7   6
ATOM      6  C   UNL     1      52.597   1.961  18.073  0.00  0.00    +0.000 C 
BRANCH   6   5
ATOM      5  C   UNL     1      51.295   1.536  17.411  0.00  0.00    +0.000 C 
BRANCH   5   4
ATOM      4  C   UNL     1      50.332   2.712  17.314  0.00  0.00    +0.000 C 
BRANCH   4   3
ATOM      3  C   UNL     1      49.012   2.271  16.696  0.00  0.00    +0.000 C 
BRANCH   3   2
ATOM      1  C   UNL     1      47.451   4.214  16.955  0.00  0.00    +0.000 C 
ATOM      2  C   UNL     1      47.829   2.838  17.473  0.00  0.00    +0.000 C 
ENDBRANCH   3   2
ENDBRANCH   4   3
ENDBRANCH   5   4
ENDBRANCH   6   5
ENDBRANCH   7   6
ENDBRANCH   8   7
ENDBRANCH   9   8
ENDBRANCH  10   9
ENDBRANCH  11  10
ENDBRANCH  12  11
ENDBRANCH  13  12
BRANCH  16  17
ATOM     17  C   UNL     1      49.149   8.183  15.027  0.00  0.00    +0.000 C 
BRANCH  17  18
ATOM     18  N   UNL     1      47.920   7.735  14.429  0.00  0.00    +0.000 N 
ATOM     19  C   UNL     1      47.924   6.810  13.417  0.00  0.00    +0.000 C 
ATOM     20  O   UNL     1      48.959   6.277  13.023  0.00  0.00    +0.000 OA
ATOM     34  H   UNL     1      47.093   8.299  14.591  0.00  0.00    +0.000 HD
BRANCH  19  21
ATOM     21  C   UNL     1      46.618   6.441  12.865  0.00  0.00    +0.000 A 
ATOM     22  C   UNL     1      45.770   7.427  12.378  0.00  0.00    +0.000 A 
ATOM     23  S   UNL     1      44.308   6.818  11.742  0.00  0.00    +0.000 S 
ATOM     24  C   UNL     1      44.740   5.219  12.138  0.00  0.00    +0.000 A 
ATOM     25  N   UNL     1      43.898   4.182  11.876  0.00  0.00    +0.000 NA
ATOM     26  C   UNL     1      44.338   3.030  12.258  0.00  0.00    +0.000 A 
ATOM     27  N   UNL     1      45.546   2.819  12.873  0.00  0.00    +0.000 N 
ATOM     28  C   UNL     1      46.443   3.830  13.124  0.00  0.00    +0.000 A 
ATOM     29  O   UNL     1      47.541   3.596  13.621  0.00  0.00    +0.000 OA
ATOM     30  C   UNL     1      45.988   5.149  12.730  0.00  0.00    +0.000 A 
ATOM     35  H   UNL     1      45.838   1.888  13.133  0.00  0.00    +0.000 HD
ENDBRANCH  19  21
ENDBRANCH  17  18
ENDBRANCH  16  17
TORSDOF 14
ENDMDL
MODEL 7
REMARK VINA RESULT:    -5.841      3.343      4.431
REMARK INTER + INTRA:         -12.868
REMARK INTER:                 -11.486
REMARK INTRA:                  -1.382
REMARK UNBOUND:                -2.246
REMARK  Name = 
REMARK  15 active torsions:
REMARK  status: ('A' for Active; 'I' for Inactive)
REMARK    1  A    between atoms: C_1  and  C_2
REMARK    2  A    between atoms: C_2  and  C_3
REMARK    3  A    between atoms: C_3  and  C_4
REMARK    4  A    between atoms: C_4  and  C_5
REMARK    5  A    between atoms: C_5  and  C_6
REMARK    6  A    between atoms: C_6  and  C_7
REMARK    7  A    between atoms: C_7  and  C_8
REMARK    8  A    between atoms: C_8  and  C_9
REMARK    9  A    between atoms: C_9  and  C_10
REMARK   10  A    between atoms: C_10  and  N_11
REMARK   11  A    between atoms: N_11  and  C_12
REMARK   12  A    between atoms: C_12  and  C_13
REMARK   13  A    between atoms: C_16  and  C_17
REMARK   14  A    between atoms: C_17  and  N_18
REMARK   15  A    between atoms: C_19  and  C_21
REMARK                            x       y       z     vdW  Elec       q    Type
REMARK                         _______ _______ _______ _____ _____    ______ ____
ROOT
ATOM     13  C   UNL     1      47.141   5.546  13.397  0.00  0.00    +0.000 A 
ATOM     14  C   UNL     1      46.764   4.224  13.671  0.00  0.00    +0.000 A 
ATOM     15  C   UNL     1      47.058   3.641  14.905  0.00  0.00    +0.000 A 
ATOM     16  C   UNL     1      47.731   4.372  15.891  0.00  0.00    +0.000 A 
ATOM     31  C   UNL     1      48.140   5.681  15.605  0.00  0.00    +0.000 A 
ATOM     32  C   UNL     1      47.838   6.268  14.373  0.00  0.00    +0.000 A 
ENDROOT
BRANCH  13  12
ATOM     12  C   UNL     1      46.738   6.199  12.094  0.00  0.00    +0.000 C 
BRANCH  12  11
ATOM     11  N   UNL     1      45.558   7.058  12.230  0.00  0.00    +0.000 NA
ATOM     33  H   UNL     1      45.233   7.025  13.195  0.00  0.00    +0.000 HD
BRANCH  11  10
ATOM     10  C   UNL     1      44.481   6.621  11.344  0.00  0.00    +0.000 C 
BRANCH  10   9
ATOM      9  C   UNL     1      43.720   5.467  11.981  0.00  0.00    +0.000 C 
BRANCH   9   8
ATOM      8  C   UNL     1      43.395   4.427  10.916  0.00  0.00    +0.000 C 
BRANCH   8   7
ATOM      7  C   UNL     1      44.349   3.248  11.006  0.00  0.00    +0.000 C 
BRANCH   7   6
ATOM      6  C   UNL     1      44.713   2.757   9.612  0.00  0.00    +0.000 C 
BRANCH   6   5
ATOM      5  C   UNL     1      45.032   3.936   8.705  0.00  0.00    +0.000 C 
BRANCH   5   4
ATOM      4  C   UNL     1      45.873   3.488   7.517  0.00  0.00    +0.000 C 
BRANCH   4   3
ATOM      3  C   UNL     1      46.378   2.067   7.728  0.00  0.00    +0.000 C 
BRANCH   3   2
ATOM      1  C   UNL     1      47.631   2.392   5.582  0.00  0.00    +0.000 C 
ATOM      2  C   UNL     1      47.696   1.842   6.996  0.00  0.00    +0.000 C 
ENDBRANCH   3   2
ENDBRANCH   4   3
ENDBRANCH   5   4
ENDBRANCH   6   5
ENDBRANCH   7   6
ENDBRANCH   8   7
ENDBRANCH   9   8
ENDBRANCH  10   9
ENDBRANCH  11  10
ENDBRANCH  12  11
ENDBRANCH  13  12
BRANCH  16  17
ATOM     17  C   UNL     1      48.024   3.759  17.235  0.00  0.00    +0.000 C 
BRANCH  17  18
ATOM     18  N   UNL     1      49.408   3.921  17.595  0.00  0.00    +0.000 N 
ATOM     19  C   UNL     1      50.347   2.995  17.221  0.00  0.00    +0.000 C 
ATOM     20  O   UNL     1      50.067   2.030  16.513  0.00  0.00    +0.000 OA
ATOM     34  H   UNL     1      49.619   4.582  18.335  0.00  0.00    +0.000 HD
BRANCH  19  21
ATOM     21  C   UNL     1      51.722   3.248  17.660  0.00  0.00    +0.000 A 
ATOM     22  C   UNL     1      52.216   4.546  17.673  0.00  0.00    +0.000 A 
ATOM     23  S   UNL     1      53.819   4.660  18.246  0.00  0.00    +0.000 S 
ATOM     24  C   UNL     1      53.922   2.973  18.452  0.00  0.00    +0.000 A 
ATOM     25  N   UNL     1      55.068   2.393  18.904  0.00  0.00    +0.000 NA
ATOM     26  C   UNL     1      55.017   1.106  18.982  0.00  0.00    +0.000 A 
ATOM     27  N   UNL     1      53.924   0.345  18.655  0.00  0.00    +0.000 N 
ATOM     28  C   UNL     1      52.736   0.889  18.230  0.00  0.00    +0.000 A 
ATOM     29  O   UNL     1      51.758   0.182  18.004  0.00  0.00    +0.000 OA
ATOM     30  C   UNL     1      52.746   2.334  18.107  0.00  0.00    +0.000 A 
ATOM     35  H   UNL     1      53.945  -0.660  18.754  0.00  0.00    +0.000 HD
ENDBRANCH  19  21
ENDBRANCH  17  18
ENDBRANCH  16  17
TORSDOF 14
ENDMDL
MODEL 8
REMARK VINA RESULT:    -5.778      3.430      9.158
REMARK INTER + INTRA:         -12.752
REMARK INTER:                  -9.686
REMARK INTRA:                  -3.067
REMARK UNBOUND:                -2.246
REMARK  Name = 
REMARK  15 active torsions:
REMARK  status: ('A' for Active; 'I' for Inactive)
REMARK    1  A    between atoms: C_1  and  C_2
REMARK    2  A    between atoms: C_2  and  C_3
REMARK    3  A    between atoms: C_3  and  C_4
REMARK    4  A    between atoms: C_4  and  C_5
REMARK    5  A    between atoms: C_5  and  C_6
REMARK    6  A    between atoms: C_6  and  C_7
REMARK    7  A    between atoms: C_7  and  C_8
REMARK    8  A    between atoms: C_8  and  C_9
REMARK    9  A    between atoms: C_9  and  C_10
REMARK   10  A    between atoms: C_10  and  N_11
REMARK   11  A    between atoms: N_11  and  C_12
REMARK   12  A    between atoms: C_12  and  C_13
REMARK   13  A    between atoms: C_16  and  C_17
REMARK   14  A    between atoms: C_17  and  N_18
REMARK   15  A    between atoms: C_19  and  C_21
REMARK                            x       y       z     vdW  Elec       q    Type
REMARK                         _______ _______ _______ _____ _____    ______ ____
ROOT
ATOM     13  C   UNL     1      51.384   3.095  17.836  0.00  0.00    +0.000 A 
ATOM     14  C   UNL     1      50.608   4.162  18.312  0.00  0.00    +0.000 A 
ATOM     15  C   UNL     1      49.245   4.235  18.025  0.00  0.00    +0.000 A 
ATOM     16  C   UNL     1      48.628   3.238  17.258  0.00  0.00    +0.000 A 
ATOM     31  C   UNL     1      49.410   2.190  16.752  0.00  0.00    +0.000 A 
ATOM     32  C   UNL     1      50.773   2.113  17.048  0.00  0.00    +0.000 A 
ENDROOT
BRANCH  13  12
ATOM     12  C   UNL     1      52.838   2.976  18.230  0.00  0.00    +0.000 C 
BRANCH  12  11
ATOM     11  N   UNL     1      53.398   4.237  18.726  0.00  0.00    +0.000 NA
ATOM     33  H   UNL     1      52.676   4.744  19.234  0.00  0.00    +0.000 HD
BRANCH  11  10
ATOM     10  C   UNL     1      53.888   5.067  17.627  0.00  0.00    +0.000 C 
BRANCH  10   9
ATOM      9  C   UNL     1      53.862   6.533  18.033  0.00  0.00    +0.000 C 
BRANCH   9   8
ATOM      8  C   UNL     1      52.580   7.178  17.520  0.00  0.00    +0.000 C 
BRANCH   8   7
ATOM      7  C   UNL     1      52.194   6.606  16.167  0.00  0.00    +0.000 C 
BRANCH   7   6
ATOM      6  C   UNL     1      50.768   7.003  15.814  0.00  0.00    +0.000 C 
BRANCH   6   5
ATOM      5  C   UNL     1      50.285   8.110  16.738  0.00  0.00    +0.000 C 
BRANCH   5   4
ATOM      4  C   UNL     1      48.783   8.005  16.964  0.00  0.00    +0.000 C 
BRANCH   4   3
ATOM      3  C   UNL     1      48.486   7.648  18.414  0.00  0.00    +0.000 C 
BRANCH   3   2
ATOM      1  C   UNL     1      49.995   7.243  20.373  0.00  0.00    +0.000 C 
ATOM      2  C   UNL     1      49.523   8.260  19.350  0.00  0.00    +0.000 C 
ENDBRANCH   3   2
ENDBRANCH   4   3
ENDBRANCH   5   4
ENDBRANCH   6   5
ENDBRANCH   7   6
ENDBRANCH   8   7
ENDBRANCH   9   8
ENDBRANCH  10   9
ENDBRANCH  11  10
ENDBRANCH  12  11
ENDBRANCH  13  12
BRANCH  16  17
ATOM     17  C   UNL     1      47.152   3.294  16.970  0.00  0.00    +0.000 C 
BRANCH  17  18
ATOM     18  N   UNL     1      46.842   4.329  16.019  0.00  0.00    +0.000 N 
ATOM     19  C   UNL     1      46.969   4.110  14.672  0.00  0.00    +0.000 C 
ATOM     20  O   UNL     1      47.284   3.014  14.215  0.00  0.00    +0.000 OA
ATOM     34  H   UNL     1      46.782   5.279  16.372  0.00  0.00    +0.000 HD
BRANCH  19  21
ATOM     21  C   UNL     1      46.648   5.240  13.795  0.00  0.00    +0.000 A 
ATOM     22  C   UNL     1      47.556   6.280  13.648  0.00  0.00    +0.000 A 
ATOM     23  S   UNL     1      47.037   7.492  12.564  0.00  0.00    +0.000 S 
ATOM     24  C   UNL     1      45.561   6.689  12.291  0.00  0.00    +0.000 A 
ATOM     25  N   UNL     1      44.622   7.217  11.459  0.00  0.00    +0.000 NA
ATOM     26  C   UNL     1      43.538   6.521  11.369  0.00  0.00    +0.000 A 
ATOM     27  N   UNL     1      43.310   5.342  12.031  0.00  0.00    +0.000 N 
ATOM     28  C   UNL     1      44.242   4.753  12.851  0.00  0.00    +0.000 A 
ATOM     29  O   UNL     1      44.028   3.665  13.380  0.00  0.00    +0.000 OA
ATOM     30  C   UNL     1      45.473   5.506  13.001  0.00  0.00    +0.000 A 
ATOM     35  H   UNL     1      42.445   4.837  11.905  0.00  0.00    +0.000 HD
ENDBRANCH  19  21
ENDBRANCH  17  18
ENDBRANCH  16  17
TORSDOF 14
ENDMDL
MODEL 9
REMARK VINA RESULT:    -5.658      3.273      8.054
REMARK INTER + INTRA:         -12.534
REMARK INTER:                  -9.546
REMARK INTRA:                  -2.988
REMARK UNBOUND:                -2.246
REMARK  Name = 
REMARK  15 active torsions:
REMARK  status: ('A' for Active; 'I' for Inactive)
REMARK    1  A    between atoms: C_1  and  C_2
REMARK    2  A    between atoms: C_2  and  C_3
REMARK    3  A    between atoms: C_3  and  C_4
REMARK    4  A    between atoms: C_4  and  C_5
REMARK    5  A    between atoms: C_5  and  C_6
REMARK    6  A    between atoms: C_6  and  C_7
REMARK    7  A    between atoms: C_7  and  C_8
REMARK    8  A    between atoms: C_8  and  C_9
REMARK    9  A    between atoms: C_9  and  C_10
REMARK   10  A    between atoms: C_10  and  N_11
REMARK   11  A    between atoms: N_11  and  C_12
REMARK   12  A    between atoms: C_12  and  C_13
REMARK   13  A    between atoms: C_16  and  C_17
REMARK   14  A    between atoms: C_17  and  N_18
REMARK   15  A    between atoms: C_19  and  C_21
REMARK                            x       y       z     vdW  Elec       q    Type
REMARK                         _______ _______ _______ _____ _____    ______ ____
ROOT
ATOM     13  C   UNL     1      50.499   8.743  11.427  0.00  0.00    +0.000 A 
ATOM     14  C   UNL     1      49.687   9.844  11.733  0.00  0.00    +0.000 A 
ATOM     15  C   UNL     1      48.397   9.659  12.232  0.00  0.00    +0.000 A 
ATOM     16  C   UNL     1      47.895   8.368  12.438  0.00  0.00    +0.000 A 
ATOM     31  C   UNL     1      48.692   7.268  12.098  0.00  0.00    +0.000 A 
ATOM     32  C   UNL     1      49.988   7.452  11.607  0.00  0.00    +0.000 A 
ENDROOT
BRANCH  13  12
ATOM     12  C   UNL     1      51.927   8.951  10.975  0.00  0.00    +0.000 C 
BRANCH  12  11
ATOM     11  N   UNL     1      52.878   8.090  11.683  0.00  0.00    +0.000 NA
ATOM     33  H   UNL     1      52.382   7.283  12.057  0.00  0.00    +0.000 HD
BRANCH  11  10
ATOM     10  C   UNL     1      53.526   8.807  12.780  0.00  0.00    +0.000 C 
BRANCH  10   9
ATOM      9  C   UNL     1      53.225   8.115  14.102  0.00  0.00    +0.000 C 
BRANCH   9   8
ATOM      8  C   UNL     1      52.089   8.846  14.808  0.00  0.00    +0.000 C 
BRANCH   8   7
ATOM      7  C   UNL     1      50.952   7.891  15.130  0.00  0.00    +0.000 C 
BRANCH   7   6
ATOM      6  C   UNL     1      49.711   8.668  15.542  0.00  0.00    +0.000 C 
BRANCH   6   5
ATOM      5  C   UNL     1      48.792   7.789  16.378  0.00  0.00    +0.000 C 
BRANCH   5   4
ATOM      4  C   UNL     1      48.723   6.382  15.800  0.00  0.00    +0.000 C 
BRANCH   4   3
ATOM      3  C   UNL     1      48.844   5.345  16.909  0.00  0.00    +0.000 C 
BRANCH   3   2
ATOM      1  C   UNL     1      47.074   3.647  17.422  0.00  0.00    +0.000 C 
ATOM      2  C   UNL     1      48.212   4.023  16.490  0.00  0.00    +0.000 C 
ENDBRANCH   3   2
ENDBRANCH   4   3
ENDBRANCH   5   4
ENDBRANCH   6   5
ENDBRANCH   7   6
ENDBRANCH   8   7
ENDBRANCH   9   8
ENDBRANCH  10   9
ENDBRANCH  11  10
ENDBRANCH  12  11
ENDBRANCH  13  12
BRANCH  16  17
ATOM     17  C   UNL     1      46.515   8.163  13.004  0.00  0.00    +0.000 C 
BRANCH  17  18
ATOM     18  N   UNL     1      46.021   6.843  12.717  0.00  0.00    +0.000 N 
ATOM     19  C   UNL     1      45.006   6.650  11.816  0.00  0.00    +0.000 C 
ATOM     20  O   UNL     1      44.522   7.576  11.169  0.00  0.00    +0.000 OA
ATOM     34  H   UNL     1      46.257   6.107  13.374  0.00  0.00    +0.000 HD
BRANCH  19  21
ATOM     21  C   UNL     1      44.566   5.267  11.616  0.00  0.00    +0.000 A 
ATOM     22  C   UNL     1      43.862   4.613  12.620  0.00  0.00    +0.000 A 
ATOM     23  S   UNL     1      43.398   3.025  12.204  0.00  0.00    +0.000 S 
ATOM     24  C   UNL     1      44.161   3.141  10.687  0.00  0.00    +0.000 A 
ATOM     25  N   UNL     1      44.159   2.091   9.821  0.00  0.00    +0.000 NA
ATOM     26  C   UNL     1      44.802   2.305   8.723  0.00  0.00    +0.000 A 
ATOM     27  N   UNL     1      45.443   3.476   8.408  0.00  0.00    +0.000 N 
ATOM     28  C   UNL     1      45.440   4.574   9.234  0.00  0.00    +0.000 A 
ATOM     29  O   UNL     1      45.972   5.628   8.894  0.00  0.00    +0.000 OA
ATOM     30  C   UNL     1      44.746   4.379  10.492  0.00  0.00    +0.000 A 
ATOM     35  H   UNL     1      45.915   3.586   7.522  0.00  0.00    +0.000 HD
ENDBRANCH  19  21
ENDBRANCH  17  18
ENDBRANCH  16  17
TORSDOF 14
ENDMDL
