MODEL 1
REMARK VINA RESULT:    -8.239      0.000      0.000
REMARK INTER + INTRA:         -10.281
REMARK INTER:                  -9.684
REMARK INTRA:                  -0.597
REMARK UNBOUND:                -0.597
REMARK  Name = 
REMARK  3 active torsions:
REMARK  status: ('A' for Active; 'I' for Inactive)
REMARK    1  A    between atoms: C_2  and  C_4
REMARK    2  A    between atoms: N_8  and  C_9
REMARK    3  A    between atoms: C_9  and  C_10
REMARK                            x       y       z     vdW  Elec       q    Type
REMARK                         _______ _______ _______ _____ _____    ______ ____
ROOT
ATOM      4  C   UNL     1      46.575   2.752   7.430  0.00  0.00    +0.000 A 
ATOM      5  C   UNL     1      46.287   4.095   7.669  0.00  0.00    +0.000 A 
ATOM      6  C   UNL     1      45.448   4.435   8.731  0.00  0.00    +0.000 A 
ATOM      7  C   UNL     1      44.909   3.441   9.533  0.00  0.00    +0.000 A 
ATOM      8  N   UNL     1      43.994   3.686  10.559  0.00  0.00    +0.000 N 
ATOM     18  N   UNL     1      45.171   2.133   9.305  0.00  0.00    +0.000 NA
ATOM     19  C   UNL     1      45.988   1.816   8.263  0.00  0.00    +0.000 A 
ATOM     22  H   UNL     1      43.833   2.794  11.022  0.00  0.00    +0.000 HD
ENDROOT
BRANCH   4   2
ATOM      1  N   UNL     1      47.347   2.991   5.139  0.00  0.00    +0.000 N 
ATOM      2  C   UNL     1      47.435   2.299   6.318  0.00  0.00    +0.000 C 
ATOM      3  O   UNL     1      48.214   1.367   6.449  0.00  0.00    +0.000 OA
ATOM     20  H   UNL     1      48.002   2.733   4.415  0.00  0.00    +0.000 HD
ATOM     21  H   UNL     1      46.904   3.898   5.071  0.00  0.00    +0.000 HD
ENDBRANCH   4   2
BRANCH   8   9
ATOM      9  C   UNL     1      43.955   4.888  11.407  0.00  0.00    +0.000 C 
ATOM     16  C   UNL     1      42.666   5.051  12.209  0.00  0.00    +0.000 C 
ATOM     17  C   UNL     1      43.014   6.057  11.167  0.00  0.00    +0.000 C 
BRANCH   9  10
ATOM     10  C   UNL     1      45.272   5.207  12.115  0.00  0.00    +0.000 A 
ATOM     11  C   UNL     1      46.024   6.344  11.775  0.00  0.00    +0.000 A 
ATOM     12  C   UNL     1      47.180   6.694  12.479  0.00  0.00    +0.000 A 
ATOM     13  C   UNL     1      47.618   5.902  13.536  0.00  0.00    +0.000 A 
ATOM     14  C   UNL     1      46.914   4.750  13.871  0.00  0.00    +0.000 A 
ATOM     15  C   UNL     1      45.763   4.403  13.160  0.00  0.00    +0.000 A 
ENDBRANCH   9  10
ENDBRANCH   8   9
TORSDOF 3
ENDMDL
MODEL 2
REMARK VINA RESULT:    -6.579      3.495      6.128
REMARK INTER + INTRA:          -8.330
REMARK INTER:                  -7.878
REMARK INTRA:                  -0.452
REMARK UNBOUND:                -0.597
REMARK  Name = 
REMARK  3 active torsions:
REMARK  status: ('A' for Active; 'I' for Inactive)
REMARK    1  A    between atoms: C_2  and  C_4
REMARK    2  A    between atoms: N_8  and  C_9
REMARK    3  A    between atoms: C_9  and  C_10
REMARK                            x       y       z     vdW  Elec       q    Type
REMARK                         _______ _______ _______ _____ _____    ______ ____
ROOT
ATOM      4  C   UNL     1      48.414   6.654  13.703  0.00  0.00    +0.000 A 
ATOM      5  C   UNL     1      47.514   5.645  14.042  0.00  0.00    +0.000 A 
ATOM      6  C   UNL     1      46.412   5.407  13.220  0.00  0.00    +0.000 A 
ATOM      7  C   UNL     1      46.221   6.175  12.081  0.00  0.00    +0.000 A 
ATOM      8  N   UNL     1      45.101   6.063  11.252  0.00  0.00    +0.000 N 
ATOM     18  N   UNL     1      47.079   7.165  11.746  0.00  0.00    +0.000 NA
ATOM     19  C   UNL     1      48.148   7.388  12.560  0.00  0.00    +0.000 A 
ATOM     22  H   UNL     1      45.264   6.685  10.462  0.00  0.00    +0.000 HD
ENDROOT
BRANCH   4   2
ATOM      1  N   UNL     1      50.564   7.760  13.936  0.00  0.00    +0.000 N 
ATOM      2  C   UNL     1      49.596   6.989  14.524  0.00  0.00    +0.000 C 
ATOM      3  O   UNL     1      49.695   6.621  15.684  0.00  0.00    +0.000 OA
ATOM     20  H   UNL     1      51.323   8.060  14.531  0.00  0.00    +0.000 HD
ATOM     21  H   UNL     1      50.406   8.275  13.080  0.00  0.00    +0.000 HD
ENDBRANCH   4   2
BRANCH   8   9
ATOM      9  C   UNL     1      44.356   4.825  10.977  0.00  0.00    +0.000 C 
ATOM     16  C   UNL     1      42.839   4.968  11.080  0.00  0.00    +0.000 C 
ATOM     17  C   UNL     1      43.558   4.072  12.030  0.00  0.00    +0.000 C 
BRANCH   9  10
ATOM     10  C   UNL     1      44.909   3.995   9.819  0.00  0.00    +0.000 A 
ATOM     11  C   UNL     1      45.580   4.604   8.744  0.00  0.00    +0.000 A 
ATOM     12  C   UNL     1      46.170   3.847   7.728  0.00  0.00    +0.000 A 
ATOM     13  C   UNL     1      46.091   2.458   7.758  0.00  0.00    +0.000 A 
ATOM     14  C   UNL     1      45.401   1.830   8.790  0.00  0.00    +0.000 A 
ATOM     15  C   UNL     1      44.809   2.592   9.800  0.00  0.00    +0.000 A 
ENDBRANCH   9  10
ENDBRANCH   8   9
TORSDOF 3
ENDMDL
MODEL 3
REMARK VINA RESULT:    -6.217      3.513      6.334
REMARK INTER + INTRA:          -7.904
REMARK INTER:                  -8.138
REMARK INTRA:                   0.233
REMARK UNBOUND:                -0.597
REMARK  Name = 
REMARK  3 active torsions:
REMARK  status: ('A' for Active; 'I' for Inactive)
REMARK    1  A    between atoms: C_2  and  C_4
REMARK    2  A    between atoms: N_8  and  C_9
REMARK    3  A    between atoms: C_9  and  C_10
REMARK                            x       y       z     vdW  Elec       q    Type
REMARK                         _______ _______ _______ _____ _____    ______ ____
ROOT
ATOM      4  C   UNL     1      47.890   5.767  14.750  0.00  0.00    +0.000 A 
ATOM      5  C   UNL     1      47.443   6.144  13.484  0.00  0.00    +0.000 A 
ATOM      6  C   UNL     1      46.653   5.260  12.748  0.00  0.00    +0.000 A 
ATOM      7  C   UNL     1      46.322   4.022  13.277  0.00  0.00    +0.000 A 
ATOM      8  N   UNL     1      45.611   3.045  12.575  0.00  0.00    +0.000 N 
ATOM     18  N   UNL     1      46.758   3.640  14.500  0.00  0.00    +0.000 NA
ATOM     19  C   UNL     1      47.531   4.510  15.204  0.00  0.00    +0.000 A 
ATOM     22  H   UNL     1      45.448   2.282  13.229  0.00  0.00    +0.000 HD
ENDROOT
BRANCH   4   2
ATOM      1  N   UNL     1      48.285   6.930  16.845  0.00  0.00    +0.000 N 
ATOM      2  C   UNL     1      48.746   6.629  15.591  0.00  0.00    +0.000 C 
ATOM      3  O   UNL     1      49.831   7.031  15.200  0.00  0.00    +0.000 OA
ATOM     20  H   UNL     1      48.915   7.443  17.446  0.00  0.00    +0.000 HD
ATOM     21  H   UNL     1      47.524   6.427  17.283  0.00  0.00    +0.000 HD
ENDBRANCH   4   2
BRANCH   8   9
ATOM      9  C   UNL     1      44.560   3.299  11.577  0.00  0.00    +0.000 C 
ATOM     16  C   UNL     1      43.492   4.293  12.028  0.00  0.00    +0.000 C 
ATOM     17  C   UNL     1      43.110   2.878  11.757  0.00  0.00    +0.000 C 
BRANCH   9  10
ATOM     10  C   UNL     1      45.065   3.410  10.139  0.00  0.00    +0.000 A 
ATOM     11  C   UNL     1      45.380   4.658   9.573  0.00  0.00    +0.000 A 
ATOM     12  C   UNL     1      45.930   4.761   8.292  0.00  0.00    +0.000 A 
ATOM     13  C   UNL     1      46.166   3.615   7.541  0.00  0.00    +0.000 A 
ATOM     14  C   UNL     1      45.829   2.369   8.060  0.00  0.00    +0.000 A 
ATOM     15  C   UNL     1      45.275   2.272   9.339  0.00  0.00    +0.000 A 
ENDBRANCH   9  10
ENDBRANCH   8   9
TORSDOF 3
ENDMDL
MODEL 4
REMARK VINA RESULT:    -5.600      3.796      6.114
REMARK INTER + INTRA:          -7.178
REMARK INTER:                  -7.439
REMARK INTRA:                   0.261
REMARK UNBOUND:                -0.597
REMARK  Name = 
REMARK  3 active torsions:
REMARK  status: ('A' for Active; 'I' for Inactive)
REMARK    1  A    between atoms: C_2  and  C_4
REMARK    2  A    between atoms: N_8  and  C_9
REMARK    3  A    between atoms: C_9  and  C_10
REMARK                            x       y       z     vdW  Elec       q    Type
REMARK                         _______ _______ _______ _____ _____    ______ ____
ROOT
ATOM      4  C   UNL     1      48.795   7.536  13.220  0.00  0.00    +0.000 A 
ATOM      5  C   UNL     1      47.995   7.480  12.079  0.00  0.00    +0.000 A 
ATOM      6  C   UNL     1      47.024   6.483  11.974  0.00  0.00    +0.000 A 
ATOM      7  C   UNL     1      46.867   5.560  12.997  0.00  0.00    +0.000 A 
ATOM      8  N   UNL     1      45.982   4.480  12.935  0.00  0.00    +0.000 N 
ATOM     18  N   UNL     1      47.644   5.596  14.103  0.00  0.00    +0.000 NA
ATOM     19  C   UNL     1      48.589   6.571  14.191  0.00  0.00    +0.000 A 
ATOM     22  H   UNL     1      46.020   4.024  13.844  0.00  0.00    +0.000 HD
ENDROOT
BRANCH   4   2
ATOM      1  N   UNL     1      51.154   8.101  13.340  0.00  0.00    +0.000 N 
ATOM      2  C   UNL     1      49.860   8.543  13.408  0.00  0.00    +0.000 C 
ATOM      3  O   UNL     1      49.601   9.723  13.587  0.00  0.00    +0.000 OA
ATOM     20  H   UNL     1      51.874   8.808  13.379  0.00  0.00    +0.000 HD
ATOM     21  H   UNL     1      51.403   7.197  12.959  0.00  0.00    +0.000 HD
ENDBRANCH   4   2
BRANCH   8   9
ATOM      9  C   UNL     1      44.683   4.473  12.244  0.00  0.00    +0.000 C 
ATOM     16  C   UNL     1      43.794   5.673  12.563  0.00  0.00    +0.000 C 
ATOM     17  C   UNL     1      43.351   4.306  12.958  0.00  0.00    +0.000 C 
BRANCH   9  10
ATOM     10  C   UNL     1      44.741   4.004  10.790  0.00  0.00    +0.000 A 
ATOM     11  C   UNL     1      45.247   4.837   9.777  0.00  0.00    +0.000 A 
ATOM     12  C   UNL     1      45.389   4.384   8.462  0.00  0.00    +0.000 A 
ATOM     13  C   UNL     1      45.017   3.086   8.128  0.00  0.00    +0.000 A 
ATOM     14  C   UNL     1      44.479   2.251   9.102  0.00  0.00    +0.000 A 
ATOM     15  C   UNL     1      44.333   2.711  10.413  0.00  0.00    +0.000 A 
ENDBRANCH   9  10
ENDBRANCH   8   9
TORSDOF 3
ENDMDL
MODEL 5
REMARK VINA RESULT:    -5.364      3.365      5.407
REMARK INTER + INTRA:          -6.902
REMARK INTER:                  -7.176
REMARK INTRA:                   0.274
REMARK UNBOUND:                -0.597
REMARK  Name = 
REMARK  3 active torsions:
REMARK  status: ('A' for Active; 'I' for Inactive)
REMARK    1  A    between atoms: C_2  and  C_4
REMARK    2  A    between atoms: N_8  and  C_9
REMARK    3  A    between atoms: C_9  and  C_10
REMARK                            x       y       z     vdW  Elec       q    Type
REMARK                         _______ _______ _______ _____ _____    ______ ____
ROOT
ATOM      4  C   UNL     1      44.786   4.030  11.517  0.00  0.00    +0.000 A 
ATOM      5  C   UNL     1      45.280   5.102  10.774  0.00  0.00    +0.000 A 
ATOM      6  C   UNL     1      45.977   6.121  11.426  0.00  0.00    +0.000 A 
ATOM      7  C   UNL     1      46.169   6.060  12.798  0.00  0.00    +0.000 A 
ATOM      8  N   UNL     1      46.777   7.077  13.539  0.00  0.00    +0.000 N 
ATOM     18  N   UNL     1      45.685   5.032  13.532  0.00  0.00    +0.000 NA
ATOM     19  C   UNL     1      45.005   4.047  12.884  0.00  0.00    +0.000 A 
ATOM     22  H   UNL     1      46.852   6.731  14.494  0.00  0.00    +0.000 HD
ENDROOT
BRANCH   4   2
ATOM      1  N   UNL     1      44.591   2.275   9.850  0.00  0.00    +0.000 N 
ATOM      2  C   UNL     1      44.021   2.918  10.916  0.00  0.00    +0.000 C 
ATOM      3  O   UNL     1      42.942   2.567  11.366  0.00  0.00    +0.000 OA
ATOM     20  H   UNL     1      44.105   1.460   9.503  0.00  0.00    +0.000 HD
ATOM     21  H   UNL     1      45.569   2.376   9.610  0.00  0.00    +0.000 HD
ENDBRANCH   4   2
BRANCH   8   9
ATOM      9  C   UNL     1      47.856   7.957  13.066  0.00  0.00    +0.000 C 
ATOM     16  C   UNL     1      49.037   7.221  12.436  0.00  0.00    +0.000 C 
ATOM     17  C   UNL     1      49.242   7.999  13.690  0.00  0.00    +0.000 C 
BRANCH   9  10
ATOM     10  C   UNL     1      47.377   9.237  12.382  0.00  0.00    +0.000 A 
ATOM     11  C   UNL     1      48.280  10.098  11.735  0.00  0.00    +0.000 A 
ATOM     12  C   UNL     1      47.840  11.221  11.029  0.00  0.00    +0.000 A 
ATOM     13  C   UNL     1      46.482  11.516  10.964  0.00  0.00    +0.000 A 
ATOM     14  C   UNL     1      45.568  10.702  11.626  0.00  0.00    +0.000 A 
ATOM     15  C   UNL     1      46.014   9.584  12.335  0.00  0.00    +0.000 A 
ENDBRANCH   9  10
ENDBRANCH   8   9
TORSDOF 3
ENDMDL
MODEL 6
REMARK VINA RESULT:    -5.359      2.363      3.530
REMARK INTER + INTRA:          -6.896
REMARK INTER:                  -6.277
REMARK INTRA:                  -0.619
REMARK UNBOUND:                -0.597
REMARK  Name = 
REMARK  3 active torsions:
REMARK  status: ('A' for Active; 'I' for Inactive)
REMARK    1  A    between atoms: C_2  and  C_4
REMARK    2  A    between atoms: N_8  and  C_9
REMARK    3  A    between atoms: C_9  and  C_10
REMARK                            x       y       z     vdW  Elec       q    Type
REMARK                         _______ _______ _______ _____ _____    ______ ____
ROOT
ATOM      4  C   UNL     1      45.083   3.321   9.955  0.00  0.00    +0.000 A 
ATOM      5  C   UNL     1      45.301   4.584   9.406  0.00  0.00    +0.000 A 
ATOM      6  C   UNL     1      45.383   5.691  10.252  0.00  0.00    +0.000 A 
ATOM      7  C   UNL     1      45.246   5.527  11.622  0.00  0.00    +0.000 A 
ATOM      8  N   UNL     1      45.227   6.588  12.530  0.00  0.00    +0.000 N 
ATOM     18  N   UNL     1      45.023   4.309  12.166  0.00  0.00    +0.000 NA
ATOM     19  C   UNL     1      44.941   3.238  11.329  0.00  0.00    +0.000 A 
ATOM     22  H   UNL     1      45.193   6.173  13.458  0.00  0.00    +0.000 HD
ENDROOT
BRANCH   4   2
ATOM      1  N   UNL     1      46.047   1.746   8.377  0.00  0.00    +0.000 N 
ATOM      2  C   UNL     1      44.963   2.096   9.136  0.00  0.00    +0.000 C 
ATOM      3  O   UNL     1      43.954   1.409   9.157  0.00  0.00    +0.000 OA
ATOM     20  H   UNL     1      45.991   0.862   7.892  0.00  0.00    +0.000 HD
ATOM     21  H   UNL     1      46.965   2.146   8.519  0.00  0.00    +0.000 HD
ENDBRANCH   4   2
BRANCH   8   9
ATOM      9  C   UNL     1      45.975   7.848  12.394  0.00  0.00    +0.000 C 
ATOM     16  C   UNL     1      45.274   9.064  12.996  0.00  0.00    +0.000 C 
ATOM     17  C   UNL     1      45.517   9.009  11.527  0.00  0.00    +0.000 C 
BRANCH   9  10
ATOM     10  C   UNL     1      47.481   7.718  12.621  0.00  0.00    +0.000 A 
ATOM     11  C   UNL     1      48.400   8.037  11.606  0.00  0.00    +0.000 A 
ATOM     12  C   UNL     1      49.779   8.010  11.833  0.00  0.00    +0.000 A 
ATOM     13  C   UNL     1      50.272   7.650  13.083  0.00  0.00    +0.000 A 
ATOM     14  C   UNL     1      49.387   7.293  14.096  0.00  0.00    +0.000 A 
ATOM     15  C   UNL     1      48.011   7.316  13.861  0.00  0.00    +0.000 A 
ENDBRANCH   9  10
ENDBRANCH   8   9
TORSDOF 3
ENDMDL
MODEL 7
REMARK VINA RESULT:    -5.343      3.245      5.258
REMARK INTER + INTRA:          -6.877
REMARK INTER:                  -6.844
REMARK INTRA:                  -0.032
REMARK UNBOUND:                -0.597
REMARK  Name = 
REMARK  3 active torsions:
REMARK  status: ('A' for Active; 'I' for Inactive)
REMARK    1  A    between atoms: C_2  and  C_4
REMARK    2  A    between atoms: N_8  and  C_9
REMARK    3  A    between atoms: C_9  and  C_10
REMARK                            x       y       z     vdW  Elec       q    Type
REMARK                         _______ _______ _______ _____ _____    ______ ____
ROOT
ATOM      4  C   UNL     1      44.857   4.962  11.039  0.00  0.00    +0.000 A 
ATOM      5  C   UNL     1      45.796   5.861  10.537  0.00  0.00    +0.000 A 
ATOM      6  C   UNL     1      46.483   6.695  11.420  0.00  0.00    +0.000 A 
ATOM      7  C   UNL     1      46.226   6.624  12.781  0.00  0.00    +0.000 A 
ATOM      8  N   UNL     1      46.803   7.479  13.723  0.00  0.00    +0.000 N 
ATOM     18  N   UNL     1      45.309   5.764  13.280  0.00  0.00    +0.000 NA
ATOM     19  C   UNL     1      44.644   4.959  12.407  0.00  0.00    +0.000 A 
ATOM     22  H   UNL     1      46.498   7.150  14.636  0.00  0.00    +0.000 HD
ENDROOT
BRANCH   4   2
ATOM      1  N   UNL     1      44.109   4.287   8.829  0.00  0.00    +0.000 N 
ATOM      2  C   UNL     1      44.068   4.056  10.178  0.00  0.00    +0.000 C 
ATOM      3  O   UNL     1      43.432   3.122  10.643  0.00  0.00    +0.000 OA
ATOM     20  H   UNL     1      43.642   3.611   8.242  0.00  0.00    +0.000 HD
ATOM     21  H   UNL     1      44.802   4.884   8.398  0.00  0.00    +0.000 HD
ENDBRANCH   4   2
BRANCH   8   9
ATOM      9  C   UNL     1      48.154   8.057  13.644  0.00  0.00    +0.000 C 
ATOM     16  C   UNL     1      48.180   9.571  13.446  0.00  0.00    +0.000 C 
ATOM     17  C   UNL     1      48.730   8.682  12.384  0.00  0.00    +0.000 C 
BRANCH   9  10
ATOM     10  C   UNL     1      49.158   7.457  14.628  0.00  0.00    +0.000 A 
ATOM     11  C   UNL     1      50.525   7.777  14.558  0.00  0.00    +0.000 A 
ATOM     12  C   UNL     1      51.435   7.307  15.509  0.00  0.00    +0.000 A 
ATOM     13  C   UNL     1      50.998   6.493  16.549  0.00  0.00    +0.000 A 
ATOM     14  C   UNL     1      49.657   6.130  16.623  0.00  0.00    +0.000 A 
ATOM     15  C   UNL     1      48.754   6.598  15.666  0.00  0.00    +0.000 A 
ENDBRANCH   9  10
ENDBRANCH   8   9
TORSDOF 3
ENDMDL
MODEL 8
REMARK VINA RESULT:    -5.338      1.748      2.387
REMARK INTER + INTRA:          -6.871
REMARK INTER:                  -6.995
REMARK INTRA:                   0.124
REMARK UNBOUND:                -0.597
REMARK  Name = 
REMARK  3 active torsions:
REMARK  status: ('A' for Active; 'I' for Inactive)
REMARK    1  A    between atoms: C_2  and  C_4
REMARK    2  A    between atoms: N_8  and  C_9
REMARK    3  A    between atoms: C_9  and  C_10
REMARK                            x       y       z     vdW  Elec       q    Type
REMARK                         _______ _______ _______ _____ _____    ______ ____
ROOT
ATOM      4  C   UNL     1      46.138   3.614   7.561  0.00  0.00    +0.000 A 
ATOM      5  C   UNL     1      46.485   4.700   8.364  0.00  0.00    +0.000 A 
ATOM      6  C   UNL     1      45.630   5.084   9.398  0.00  0.00    +0.000 A 
ATOM      7  C   UNL     1      44.451   4.389   9.616  0.00  0.00    +0.000 A 
ATOM      8  N   UNL     1      43.500   4.760  10.571  0.00  0.00    +0.000 N 
ATOM     18  N   UNL     1      44.097   3.341   8.838  0.00  0.00    +0.000 NA
ATOM     19  C   UNL     1      44.938   2.979   7.831  0.00  0.00    +0.000 A 
ATOM     22  H   UNL     1      42.786   4.034  10.562  0.00  0.00    +0.000 HD
ENDROOT
BRANCH   4   2
ATOM      1  N   UNL     1      48.307   2.976   6.674  0.00  0.00    +0.000 N 
ATOM      2  C   UNL     1      46.970   3.148   6.433  0.00  0.00    +0.000 C 
ATOM      3  O   UNL     1      46.486   2.899   5.340  0.00  0.00    +0.000 OA
ATOM     20  H   UNL     1      48.852   2.572   5.926  0.00  0.00    +0.000 HD
ATOM     21  H   UNL     1      48.693   2.938   7.609  0.00  0.00    +0.000 HD
ENDBRANCH   4   2
BRANCH   8   9
ATOM      9  C   UNL     1      43.785   5.394  11.867  0.00  0.00    +0.000 C 
ATOM     16  C   UNL     1      44.427   4.463  12.894  0.00  0.00    +0.000 C 
ATOM     17  C   UNL     1      43.073   5.025  13.159  0.00  0.00    +0.000 C 
BRANCH   9  10
ATOM     10  C   UNL     1      44.329   6.819  11.770  0.00  0.00    +0.000 A 
ATOM     11  C   UNL     1      43.649   7.808  11.038  0.00  0.00    +0.000 A 
ATOM     12  C   UNL     1      44.088   9.135  11.020  0.00  0.00    +0.000 A 
ATOM     13  C   UNL     1      45.229   9.501  11.727  0.00  0.00    +0.000 A 
ATOM     14  C   UNL     1      45.943   8.536  12.430  0.00  0.00    +0.000 A 
ATOM     15  C   UNL     1      45.502   7.211  12.440  0.00  0.00    +0.000 A 
ENDBRANCH   9  10
ENDBRANCH   8   9
TORSDOF 3
ENDMDL
MODEL 9
REMARK VINA RESULT:    -5.328      3.325      4.787
REMARK INTER + INTRA:          -6.859
REMARK INTER:                  -6.205
REMARK INTRA:                  -0.654
REMARK UNBOUND:                -0.597
REMARK  Name = 
REMARK  3 active torsions:
REMARK  status: ('A' for Active; 'I' for Inactive)
REMARK    1  A    between atoms: C_2  and  C_4
REMARK    2  A    between atoms: N_8  and  C_9
REMARK    3  A    between atoms: C_9  and  C_10
REMARK                            x       y       z     vdW  Elec       q    Type
REMARK                         _______ _______ _______ _____ _____    ______ ____
ROOT
ATOM      4  C   UNL     1      44.186   4.128  11.444  0.00  0.00    +0.000 A 
ATOM      5  C   UNL     1      44.823   5.000  10.562  0.00  0.00    +0.000 A 
ATOM      6  C   UNL     1      45.140   6.291  10.988  0.00  0.00    +0.000 A 
ATOM      7  C   UNL     1      44.818   6.693  12.276  0.00  0.00    +0.000 A 
ATOM      8  N   UNL     1      45.019   7.991  12.753  0.00  0.00    +0.000 N 
ATOM     18  N   UNL     1      44.190   5.860  13.137  0.00  0.00    +0.000 NA
ATOM     19  C   UNL     1      43.884   4.606  12.707  0.00  0.00    +0.000 A 
ATOM     22  H   UNL     1      44.768   7.976  13.740  0.00  0.00    +0.000 HD
ENDROOT
BRANCH   4   2
ATOM      1  N   UNL     1      44.454   2.180  10.017  0.00  0.00    +0.000 N 
ATOM      2  C   UNL     1      43.796   2.752  11.074  0.00  0.00    +0.000 C 
ATOM      3  O   UNL     1      42.946   2.137  11.699  0.00  0.00    +0.000 OA
ATOM     20  H   UNL     1      44.247   1.210   9.828  0.00  0.00    +0.000 HD
ATOM     21  H   UNL     1      45.313   2.559   9.640  0.00  0.00    +0.000 HD
ENDBRANCH   4   2
BRANCH   8   9
ATOM      9  C   UNL     1      46.116   8.889  12.362  0.00  0.00    +0.000 C 
ATOM     16  C   UNL     1      45.799  10.375  12.521  0.00  0.00    +0.000 C 
ATOM     17  C   UNL     1      46.054   9.820  11.161  0.00  0.00    +0.000 C 
BRANCH   9  10
ATOM     10  C   UNL     1      47.506   8.416  12.787  0.00  0.00    +0.000 A 
ATOM     11  C   UNL     1      48.473   8.051  11.834  0.00  0.00    +0.000 A 
ATOM     12  C   UNL     1      49.775   7.706  12.208  0.00  0.00    +0.000 A 
ATOM     13  C   UNL     1      50.136   7.706  13.552  0.00  0.00    +0.000 A 
ATOM     14  C   UNL     1      49.189   8.026  14.520  0.00  0.00    +0.000 A 
ATOM     15  C   UNL     1      47.889   8.365  14.140  0.00  0.00    +0.000 A 
ENDBRANCH   9  10
ENDBRANCH   8   9
TORSDOF 3
ENDMDL
