MODEL 1
REMARK VINA RESULT:    -7.221      0.000      0.000
REMARK INTER + INTRA:         -10.906
REMARK INTER:                  -9.754
REMARK INTRA:                  -1.152
REMARK UNBOUND:                -1.152
REMARK  Name = 
REMARK  6 active torsions:
REMARK  status: ('A' for Active; 'I' for Inactive)
REMARK    1  A    between atoms: C_2  and  C_23
REMARK    2  A    between atoms: N_3  and  C_4
REMARK    3  A    between atoms: C_4  and  C_5
REMARK    4  A    between atoms: C_8  and  C_9
REMARK    5  A    between atoms: C_9  and  N_10
REMARK    6  A    between atoms: N_10  and  C_11
REMARK                            x       y       z     vdW  Elec       q    Type
REMARK                         _______ _______ _______ _____ _____    ______ ____
ROOT
ATOM      5  C   UNL     1      47.776   8.426  12.373  0.00  0.00    +0.000 A 
ATOM      6  C   UNL     1      48.591   7.285  12.357  0.00  0.00    +0.000 A 
ATOM      7  C   UNL     1      49.898   7.354  11.874  0.00  0.00    +0.000 A 
ATOM      8  C   UNL     1      50.416   8.569  11.410  0.00  0.00    +0.000 A 
ATOM     21  C   UNL     1      49.609   9.715  11.451  0.00  0.00    +0.000 A 
ATOM     22  C   UNL     1      48.304   9.647  11.936  0.00  0.00    +0.000 A 
ENDROOT
BRANCH   5   4
ATOM      4  C   UNL     1      46.368   8.348  12.895  0.00  0.00    +0.000 C 
BRANCH   4   3
ATOM      1  O   UNL     1      44.390   7.660  11.023  0.00  0.00    +0.000 OA
ATOM      2  C   UNL     1      44.897   6.773  11.705  0.00  0.00    +0.000 C 
ATOM      3  N   UNL     1      45.814   7.035  12.689  0.00  0.00    +0.000 N 
ATOM     33  H   UNL     1      46.339   6.267  13.091  0.00  0.00    +0.000 HD
BRANCH   2  23
ATOM     23  C   UNL     1      44.508   5.367  11.543  0.00  0.00    +0.000 A 
ATOM     24  C   UNL     1      43.786   4.735  12.545  0.00  0.00    +0.000 A 
ATOM     25  S   UNL     1      43.420   3.107  12.198  0.00  0.00    +0.000 S 
ATOM     26  C   UNL     1      44.167   3.205  10.672  0.00  0.00    +0.000 A 
ATOM     27  N   UNL     1      44.173   2.142   9.828  0.00  0.00    +0.000 NA
ATOM     28  C   UNL     1      44.728   2.369   8.685  0.00  0.00    +0.000 A 
ATOM     29  N   UNL     1      45.297   3.563   8.317  0.00  0.00    +0.000 N 
ATOM     30  C   UNL     1      45.392   4.633   9.172  0.00  0.00    +0.000 A 
ATOM     31  O   UNL     1      46.045   5.629   8.866  0.00  0.00    +0.000 OA
ATOM     32  C   UNL     1      44.724   4.452  10.446  0.00  0.00    +0.000 A 
ATOM     35  H   UNL     1      45.748   3.664   7.421  0.00  0.00    +0.000 HD
ENDBRANCH   2  23
ENDBRANCH   4   3
ENDBRANCH   5   4
BRANCH   8   9
ATOM      9  C   UNL     1      51.854   8.680  10.974  0.00  0.00    +0.000 C 
BRANCH   9  10
ATOM     10  N   UNL     1      52.596   7.419  11.069  0.00  0.00    +0.000 NA
ATOM     34  H   UNL     1      51.950   6.684  11.359  0.00  0.00    +0.000 HD
BRANCH  10  11
ATOM     11  C   UNL     1      53.273   7.028   9.816  0.00  0.00    +0.000 C 
ATOM     12  C   UNL     1      53.856   5.594   9.918  0.00  0.00    +0.000 C 
ATOM     13  C   UNL     1      54.535   5.186   8.604  0.00  0.00    +0.000 C 
ATOM     14  C   UNL     1      53.499   5.201   7.473  0.00  0.00    +0.000 C 
ATOM     15  C   UNL     1      52.904   6.610   7.327  0.00  0.00    +0.000 C 
ATOM     16  C   UNL     1      54.034   7.596   6.989  0.00  0.00    +0.000 C 
ATOM     17  C   UNL     1      55.076   7.600   8.115  0.00  0.00    +0.000 C 
ATOM     18  C   UNL     1      55.658   6.188   8.288  0.00  0.00    +0.000 C 
ATOM     19  C   UNL     1      54.399   8.025   9.426  0.00  0.00    +0.000 C 
ATOM     20  C   UNL     1      52.236   7.027   8.655  0.00  0.00    +0.000 C 
ENDBRANCH  10  11
ENDBRANCH   9  10
ENDBRANCH   8   9
TORSDOF 6
ENDMDL
MODEL 2
REMARK VINA RESULT:    -7.189      4.334      7.131
REMARK INTER + INTRA:         -10.863
REMARK INTER:                  -9.309
REMARK INTRA:                  -1.554
REMARK UNBOUND:                -1.152
REMARK  Name = 
REMARK  6 active torsions:
REMARK  status: ('A' for Active; 'I' for Inactive)
REMARK    1  A    between atoms: C_2  and  C_23
REMARK    2  A    between atoms: N_3  and  C_4
REMARK    3  A    between atoms: C_4  and  C_5
REMARK    4  A    between atoms: C_8  and  C_9
REMARK    5  A    between atoms: C_9  and  N_10
REMARK    6  A    between atoms: N_10  and  C_11
REMARK                            x       y       z     vdW  Elec       q    Type
REMARK                         _______ _______ _______ _____ _____    ______ ____
ROOT
ATOM      5  C   UNL     1      48.466   8.102  13.130  0.00  0.00    +0.000 A 
ATOM      6  C   UNL     1      49.747   7.596  13.387  0.00  0.00    +0.000 A 
ATOM      7  C   UNL     1      50.336   7.761  14.642  0.00  0.00    +0.000 A 
ATOM      8  C   UNL     1      49.648   8.424  15.663  0.00  0.00    +0.000 A 
ATOM     21  C   UNL     1      48.355   8.906  15.413  0.00  0.00    +0.000 A 
ATOM     22  C   UNL     1      47.765   8.739  14.161  0.00  0.00    +0.000 A 
ENDROOT
BRANCH   5   4
ATOM      4  C   UNL     1      47.834   7.921  11.777  0.00  0.00    +0.000 C 
BRANCH   4   3
ATOM      1  O   UNL     1      45.042   7.670  11.975  0.00  0.00    +0.000 OA
ATOM      2  C   UNL     1      45.717   6.666  11.757  0.00  0.00    +0.000 C 
ATOM      3  N   UNL     1      47.086   6.692  11.718  0.00  0.00    +0.000 N 
ATOM     33  H   UNL     1      47.585   5.889  11.352  0.00  0.00    +0.000 HD
BRANCH   2  23
ATOM     23  C   UNL     1      45.090   5.350  11.575  0.00  0.00    +0.000 A 
ATOM     24  C   UNL     1      44.391   4.773  12.624  0.00  0.00    +0.000 A 
ATOM     25  S   UNL     1      43.733   3.247  12.247  0.00  0.00    +0.000 S 
ATOM     26  C   UNL     1      44.312   3.329  10.649  0.00  0.00    +0.000 A 
ATOM     27  N   UNL     1      44.054   2.335   9.760  0.00  0.00    +0.000 NA
ATOM     28  C   UNL     1      44.509   2.550   8.572  0.00  0.00    +0.000 A 
ATOM     29  N   UNL     1      45.218   3.663   8.196  0.00  0.00    +0.000 N 
ATOM     30  C   UNL     1      45.579   4.647   9.083  0.00  0.00    +0.000 A 
ATOM     31  O   UNL     1      46.345   5.548   8.749  0.00  0.00    +0.000 OA
ATOM     32  C   UNL     1      45.035   4.487  10.418  0.00  0.00    +0.000 A 
ATOM     35  H   UNL     1      45.579   3.752   7.258  0.00  0.00    +0.000 HD
ENDBRANCH   2  23
ENDBRANCH   4   3
ENDBRANCH   5   4
BRANCH   8   9
ATOM      9  C   UNL     1      50.230   8.527  17.049  0.00  0.00    +0.000 C 
BRANCH   9  10
ATOM     10  N   UNL     1      50.708   7.247  17.581  0.00  0.00    +0.000 NA
ATOM     34  H   UNL     1      51.468   7.431  18.235  0.00  0.00    +0.000 HD
BRANCH  10  11
ATOM     11  C   UNL     1      49.658   6.446  18.242  0.00  0.00    +0.000 C 
ATOM     12  C   UNL     1      49.021   5.433  17.254  0.00  0.00    +0.000 C 
ATOM     13  C   UNL     1      47.949   4.587  17.956  0.00  0.00    +0.000 C 
ATOM     14  C   UNL     1      48.597   3.796  19.099  0.00  0.00    +0.000 C 
ATOM     15  C   UNL     1      49.230   4.764  20.112  0.00  0.00    +0.000 C 
ATOM     16  C   UNL     1      48.132   5.674  20.685  0.00  0.00    +0.000 C 
ATOM     17  C   UNL     1      47.479   6.480  19.555  0.00  0.00    +0.000 C 
ATOM     18  C   UNL     1      46.866   5.520  18.522  0.00  0.00    +0.000 C 
ATOM     19  C   UNL     1      48.549   7.338  18.865  0.00  0.00    +0.000 C 
ATOM     20  C   UNL     1      50.296   5.626  19.402  0.00  0.00    +0.000 C 
ENDBRANCH  10  11
ENDBRANCH   9  10
ENDBRANCH   8   9
TORSDOF 6
ENDMDL
MODEL 3
REMARK VINA RESULT:    -7.106      6.109      9.300
REMARK INTER + INTRA:         -10.751
REMARK INTER:                  -9.583
REMARK INTRA:                  -1.168
REMARK UNBOUND:                -1.152
REMARK  Name = 
REMARK  6 active torsions:
REMARK  status: ('A' for Active; 'I' for Inactive)
REMARK    1  A    between atoms: C_2  and  C_23
REMARK    2  A    between atoms: N_3  and  C_4
REMARK    3  A    between atoms: C_4  and  C_5
REMARK    4  A    between atoms: C_8  and  C_9
REMARK    5  A    between atoms: C_9  and  N_10
REMARK    6  A    between atoms: N_10  and  C_11
REMARK                            x       y       z     vdW  Elec       q    Type
REMARK                         _______ _______ _______ _____ _____    ______ ____
ROOT
ATOM      5  C   UNL     1      49.070   7.863  16.384  0.00  0.00    +0.000 A 
ATOM      6  C   UNL     1      48.555   8.987  15.722  0.00  0.00    +0.000 A 
ATOM      7  C   UNL     1      47.898   8.850  14.499  0.00  0.00    +0.000 A 
ATOM      8  C   UNL     1      47.733   7.585  13.923  0.00  0.00    +0.000 A 
ATOM     21  C   UNL     1      48.224   6.459  14.600  0.00  0.00    +0.000 A 
ATOM     22  C   UNL     1      48.879   6.595  15.823  0.00  0.00    +0.000 A 
ENDROOT
BRANCH   5   4
ATOM      4  C   UNL     1      49.777   8.015  17.703  0.00  0.00    +0.000 C 
BRANCH   4   3
ATOM      1  O   UNL     1      49.536   5.791  19.402  0.00  0.00    +0.000 OA
ATOM      2  C   UNL     1      50.529   5.887  18.686  0.00  0.00    +0.000 C 
ATOM      3  N   UNL     1      50.756   6.975  17.884  0.00  0.00    +0.000 N 
ATOM     33  H   UNL     1      51.482   6.925  17.179  0.00  0.00    +0.000 HD
BRANCH   2  23
ATOM     23  C   UNL     1      51.573   4.855  18.685  0.00  0.00    +0.000 A 
ATOM     24  C   UNL     1      52.772   5.091  19.341  0.00  0.00    +0.000 A 
ATOM     25  S   UNL     1      53.873   3.794  19.238  0.00  0.00    +0.000 S 
ATOM     26  C   UNL     1      52.763   2.849  18.360  0.00  0.00    +0.000 A 
ATOM     27  N   UNL     1      53.071   1.581  17.982  0.00  0.00    +0.000 NA
ATOM     28  C   UNL     1      52.121   0.961  17.367  0.00  0.00    +0.000 A 
ATOM     29  N   UNL     1      50.894   1.502  17.077  0.00  0.00    +0.000 N 
ATOM     30  C   UNL     1      50.574   2.808  17.360  0.00  0.00    +0.000 A 
ATOM     31  O   UNL     1      49.529   3.305  16.948  0.00  0.00    +0.000 OA
ATOM     32  C   UNL     1      51.583   3.529  18.112  0.00  0.00    +0.000 A 
ATOM     35  H   UNL     1      50.207   0.975  16.560  0.00  0.00    +0.000 HD
ENDBRANCH   2  23
ENDBRANCH   4   3
ENDBRANCH   5   4
BRANCH   8   9
ATOM      9  C   UNL     1      46.944   7.410  12.652  0.00  0.00    +0.000 C 
BRANCH   9  10
ATOM     10  N   UNL     1      47.011   6.052  12.102  0.00  0.00    +0.000 NA
ATOM     34  H   UNL     1      47.616   5.489  12.700  0.00  0.00    +0.000 HD
BRANCH  10  11
ATOM     11  C   UNL     1      45.694   5.399  11.963  0.00  0.00    +0.000 C 
ATOM     12  C   UNL     1      45.739   3.933  12.473  0.00  0.00    +0.000 C 
ATOM     13  C   UNL     1      44.360   3.270  12.349  0.00  0.00    +0.000 C 
ATOM     14  C   UNL     1      43.349   4.042  13.206  0.00  0.00    +0.000 C 
ATOM     15  C   UNL     1      43.261   5.499  12.725  0.00  0.00    +0.000 C 
ATOM     16  C   UNL     1      42.798   5.513  11.259  0.00  0.00    +0.000 C 
ATOM     17  C   UNL     1      43.804   4.752  10.387  0.00  0.00    +0.000 C 
ATOM     18  C   UNL     1      43.920   3.299  10.876  0.00  0.00    +0.000 C 
ATOM     19  C   UNL     1      45.179   5.428  10.498  0.00  0.00    +0.000 C 
ATOM     20  C   UNL     1      44.652   6.161  12.833  0.00  0.00    +0.000 C 
ENDBRANCH  10  11
ENDBRANCH   9  10
ENDBRANCH   8   9
TORSDOF 6
ENDMDL
MODEL 4
REMARK VINA RESULT:    -7.099      7.188     10.558
REMARK INTER + INTRA:         -10.741
REMARK INTER:                  -9.593
REMARK INTRA:                  -1.148
REMARK UNBOUND:                -1.152
REMARK  Name = 
REMARK  6 active torsions:
REMARK  status: ('A' for Active; 'I' for Inactive)
REMARK    1  A    between atoms: C_2  and  C_23
REMARK    2  A    between atoms: N_3  and  C_4
REMARK    3  A    between atoms: C_4  and  C_5
REMARK    4  A    between atoms: C_8  and  C_9
REMARK    5  A    between atoms: C_9  and  N_10
REMARK    6  A    between atoms: N_10  and  C_11
REMARK                            x       y       z     vdW  Elec       q    Type
REMARK                         _______ _______ _______ _____ _____    ______ ____
ROOT
ATOM      5  C   UNL     1      49.141   4.677  18.259  0.00  0.00    +0.000 A 
ATOM      6  C   UNL     1      48.413   3.486  18.130  0.00  0.00    +0.000 A 
ATOM      7  C   UNL     1      47.595   3.272  17.019  0.00  0.00    +0.000 A 
ATOM      8  C   UNL     1      47.501   4.242  16.014  0.00  0.00    +0.000 A 
ATOM     21  C   UNL     1      48.251   5.421  16.132  0.00  0.00    +0.000 A 
ATOM     22  C   UNL     1      49.071   5.634  17.240  0.00  0.00    +0.000 A 
ENDROOT
BRANCH   5   4
ATOM      4  C   UNL     1      50.023   4.903  19.457  0.00  0.00    +0.000 C 
BRANCH   4   3
ATOM      1  O   UNL     1      52.495   5.413  18.224  0.00  0.00    +0.000 OA
ATOM      2  C   UNL     1      52.352   4.375  18.866  0.00  0.00    +0.000 C 
ATOM      3  N   UNL     1      51.158   4.018  19.435  0.00  0.00    +0.000 N 
ATOM     33  H   UNL     1      51.138   3.258  20.104  0.00  0.00    +0.000 HD
BRANCH   2  23
ATOM     23  C   UNL     1      53.453   3.414  19.017  0.00  0.00    +0.000 A 
ATOM     24  C   UNL     1      54.597   3.786  19.708  0.00  0.00    +0.000 A 
ATOM     25  S   UNL     1      55.775   2.556  19.788  0.00  0.00    +0.000 S 
ATOM     26  C   UNL     1      54.773   1.465  18.949  0.00  0.00    +0.000 A 
ATOM     27  N   UNL     1      55.174   0.189  18.711  0.00  0.00    +0.000 NA
ATOM     28  C   UNL     1      54.298  -0.544  18.111  0.00  0.00    +0.000 A 
ATOM     29  N   UNL     1      53.060  -0.109  17.709  0.00  0.00    +0.000 N 
ATOM     30  C   UNL     1      52.650   1.194  17.848  0.00  0.00    +0.000 A 
ATOM     31  O   UNL     1      51.603   1.584  17.336  0.00  0.00    +0.000 OA
ATOM     32  C   UNL     1      53.572   2.044  18.576  0.00  0.00    +0.000 A 
ATOM     35  H   UNL     1      52.435  -0.725  17.210  0.00  0.00    +0.000 HD
ENDBRANCH   2  23
ENDBRANCH   4   3
ENDBRANCH   5   4
BRANCH   8   9
ATOM      9  C   UNL     1      46.698   3.986  14.766  0.00  0.00    +0.000 C 
BRANCH   9  10
ATOM     10  N   UNL     1      46.211   5.210  14.121  0.00  0.00    +0.000 NA
ATOM     34  H   UNL     1      47.015   5.772  13.841  0.00  0.00    +0.000 HD
BRANCH  10  11
ATOM     11  C   UNL     1      45.340   4.964  12.954  0.00  0.00    +0.000 C 
ATOM     12  C   UNL     1      45.632   5.975  11.814  0.00  0.00    +0.000 C 
ATOM     13  C   UNL     1      44.741   5.696  10.595  0.00  0.00    +0.000 C 
ATOM     14  C   UNL     1      45.031   4.285  10.068  0.00  0.00    +0.000 C 
ATOM     15  C   UNL     1      44.741   3.247  11.164  0.00  0.00    +0.000 C 
ATOM     16  C   UNL     1      43.260   3.343  11.561  0.00  0.00    +0.000 C 
ATOM     17  C   UNL     1      42.953   4.747  12.100  0.00  0.00    +0.000 C 
ATOM     18  C   UNL     1      43.266   5.796  11.020  0.00  0.00    +0.000 C 
ATOM     19  C   UNL     1      43.833   5.017  13.328  0.00  0.00    +0.000 C 
ATOM     20  C   UNL     1      45.626   3.539  12.396  0.00  0.00    +0.000 C 
ENDBRANCH  10  11
ENDBRANCH   9  10
ENDBRANCH   8   9
TORSDOF 6
ENDMDL
MODEL 5
REMARK VINA RESULT:    -7.077      4.864      8.232
REMARK INTER + INTRA:         -10.712
REMARK INTER:                  -8.966
REMARK INTRA:                  -1.746
REMARK UNBOUND:                -1.152
REMARK  Name = 
REMARK  6 active torsions:
REMARK  status: ('A' for Active; 'I' for Inactive)
REMARK    1  A    between atoms: C_2  and  C_23
REMARK    2  A    between atoms: N_3  and  C_4
REMARK    3  A    between atoms: C_4  and  C_5
REMARK    4  A    between atoms: C_8  and  C_9
REMARK    5  A    between atoms: C_9  and  N_10
REMARK    6  A    between atoms: N_10  and  C_11
REMARK                            x       y       z     vdW  Elec       q    Type
REMARK                         _______ _______ _______ _____ _____    ______ ____
ROOT
ATOM      5  C   UNL     1      49.290   8.240  13.654  0.00  0.00    +0.000 A 
ATOM      6  C   UNL     1      48.279   9.146  14.002  0.00  0.00    +0.000 A 
ATOM      7  C   UNL     1      47.129   9.261  13.220  0.00  0.00    +0.000 A 
ATOM      8  C   UNL     1      46.966   8.462  12.083  0.00  0.00    +0.000 A 
ATOM     21  C   UNL     1      47.966   7.536  11.751  0.00  0.00    +0.000 A 
ATOM     22  C   UNL     1      49.114   7.419  12.533  0.00  0.00    +0.000 A 
ENDROOT
BRANCH   5   4
ATOM      4  C   UNL     1      50.528   8.119  14.500  0.00  0.00    +0.000 C 
BRANCH   4   3
ATOM      1  O   UNL     1      49.586   8.512  17.118  0.00  0.00    +0.000 OA
ATOM      2  C   UNL     1      49.835   7.370  16.740  0.00  0.00    +0.000 C 
ATOM      3  N   UNL     1      50.365   7.101  15.506  0.00  0.00    +0.000 N 
ATOM     33  H   UNL     1      50.376   6.144  15.171  0.00  0.00    +0.000 HD
BRANCH   2  23
ATOM     23  C   UNL     1      49.627   6.213  17.620  0.00  0.00    +0.000 A 
ATOM     24  C   UNL     1      50.250   6.173  18.859  0.00  0.00    +0.000 A 
ATOM     25  S   UNL     1      49.905   4.760  19.749  0.00  0.00    +0.000 S 
ATOM     26  C   UNL     1      48.867   4.179  18.532  0.00  0.00    +0.000 A 
ATOM     27  N   UNL     1      48.199   3.006  18.686  0.00  0.00    +0.000 NA
ATOM     28  C   UNL     1      47.408   2.710  17.710  0.00  0.00    +0.000 A 
ATOM     29  N   UNL     1      47.238   3.474  16.583  0.00  0.00    +0.000 N 
ATOM     30  C   UNL     1      47.961   4.618  16.347  0.00  0.00    +0.000 A 
ATOM     31  O   UNL     1      47.899   5.190  15.261  0.00  0.00    +0.000 OA
ATOM     32  C   UNL     1      48.816   5.031  17.443  0.00  0.00    +0.000 A 
ATOM     35  H   UNL     1      46.631   3.166  15.838  0.00  0.00    +0.000 HD
ENDBRANCH   2  23
ENDBRANCH   4   3
ENDBRANCH   5   4
BRANCH   8   9
ATOM      9  C   UNL     1      45.691   8.505  11.282  0.00  0.00    +0.000 C 
BRANCH   9  10
ATOM     10  N   UNL     1      44.541   7.918  11.979  0.00  0.00    +0.000 NA
ATOM     34  H   UNL     1      43.689   8.347  11.617  0.00  0.00    +0.000 HD
BRANCH  10  11
ATOM     11  C   UNL     1      44.456   6.449  11.856  0.00  0.00    +0.000 C 
ATOM     12  C   UNL     1      44.931   5.750  13.158  0.00  0.00    +0.000 C 
ATOM     13  C   UNL     1      44.815   4.225  13.032  0.00  0.00    +0.000 C 
ATOM     14  C   UNL     1      43.348   3.846  12.795  0.00  0.00    +0.000 C 
ATOM     15  C   UNL     1      42.839   4.507  11.504  0.00  0.00    +0.000 C 
ATOM     16  C   UNL     1      43.686   4.010  10.322  0.00  0.00    +0.000 C 
ATOM     17  C   UNL     1      45.157   4.388  10.538  0.00  0.00    +0.000 C 
ATOM     18  C   UNL     1      45.669   3.754  11.842  0.00  0.00    +0.000 C 
ATOM     19  C   UNL     1      45.273   5.916  10.647  0.00  0.00    +0.000 C 
ATOM     20  C   UNL     1      42.971   6.041  11.625  0.00  0.00    +0.000 C 
ENDBRANCH  10  11
ENDBRANCH   9  10
ENDBRANCH   8   9
TORSDOF 6
ENDMDL
MODEL 6
REMARK VINA RESULT:    -6.966      3.664      8.804
REMARK INTER + INTRA:         -10.561
REMARK INTER:                  -9.505
REMARK INTRA:                  -1.056
REMARK UNBOUND:                -1.152
REMARK  Name = 
REMARK  6 active torsions:
REMARK  status: ('A' for Active; 'I' for Inactive)
REMARK    1  A    between atoms: C_2  and  C_23
REMARK    2  A    between atoms: N_3  and  C_4
REMARK    3  A    between atoms: C_4  and  C_5
REMARK    4  A    between atoms: C_8  and  C_9
REMARK    5  A    between atoms: C_9  and  N_10
REMARK    6  A    between atoms: N_10  and  C_11
REMARK                            x       y       z     vdW  Elec       q    Type
REMARK                         _______ _______ _______ _____ _____    ______ ____
ROOT
ATOM      5  C   UNL     1      50.284   9.389  11.593  0.00  0.00    +0.000 A 
ATOM      6  C   UNL     1      50.076   8.011  11.746  0.00  0.00    +0.000 A 
ATOM      7  C   UNL     1      48.833   7.522  12.150  0.00  0.00    +0.000 A 
ATOM      8  C   UNL     1      47.774   8.403  12.396  0.00  0.00    +0.000 A 
ATOM     21  C   UNL     1      47.976   9.779  12.216  0.00  0.00    +0.000 A 
ATOM     22  C   UNL     1      49.217  10.268  11.810  0.00  0.00    +0.000 A 
ENDROOT
BRANCH   5   4
ATOM      4  C   UNL     1      51.625   9.912  11.156  0.00  0.00    +0.000 C 
BRANCH   4   3
ATOM      1  O   UNL     1      54.041   8.635  10.503  0.00  0.00    +0.000 OA
ATOM      2  C   UNL     1      53.162   8.719   9.649  0.00  0.00    +0.000 C 
ATOM      3  N   UNL     1      51.986   9.388   9.864  0.00  0.00    +0.000 N 
ATOM     33  H   UNL     1      51.223   9.270   9.208  0.00  0.00    +0.000 HD
BRANCH   2  23
ATOM     23  C   UNL     1      53.342   8.145   8.309  0.00  0.00    +0.000 A 
ATOM     24  C   UNL     1      53.339   8.978   7.200  0.00  0.00    +0.000 A 
ATOM     25  S   UNL     1      53.555   8.151   5.725  0.00  0.00    +0.000 S 
ATOM     26  C   UNL     1      53.716   6.657   6.523  0.00  0.00    +0.000 A 
ATOM     27  N   UNL     1      53.965   5.517   5.827  0.00  0.00    +0.000 NA
ATOM     28  C   UNL     1      54.114   4.465   6.559  0.00  0.00    +0.000 A 
ATOM     29  N   UNL     1      54.018   4.446   7.928  0.00  0.00    +0.000 N 
ATOM     30  C   UNL     1      53.679   5.556   8.663  0.00  0.00    +0.000 A 
ATOM     31  O   UNL     1      53.447   5.469   9.866  0.00  0.00    +0.000 OA
ATOM     32  C   UNL     1      53.565   6.780   7.893  0.00  0.00    +0.000 A 
ATOM     35  H   UNL     1      54.109   3.581   8.439  0.00  0.00    +0.000 HD
ENDBRANCH   2  23
ENDBRANCH   4   3
ENDBRANCH   5   4
BRANCH   8   9
ATOM      9  C   UNL     1      46.401   7.886  12.740  0.00  0.00    +0.000 C 
BRANCH   9  10
ATOM     10  N   UNL     1      46.411   6.541  13.325  0.00  0.00    +0.000 NA
ATOM     34  H   UNL     1      46.139   6.612  14.305  0.00  0.00    +0.000 HD
BRANCH  10  11
ATOM     11  C   UNL     1      45.532   5.581  12.627  0.00  0.00    +0.000 C 
ATOM     12  C   UNL     1      44.040   5.836  12.972  0.00  0.00    +0.000 C 
ATOM     13  C   UNL     1      43.131   4.851  12.224  0.00  0.00    +0.000 C 
ATOM     14  C   UNL     1      43.311   5.044  10.712  0.00  0.00    +0.000 C 
ATOM     15  C   UNL     1      44.776   4.787  10.323  0.00  0.00    +0.000 C 
ATOM     16  C   UNL     1      45.144   3.342  10.696  0.00  0.00    +0.000 C 
ATOM     17  C   UNL     1      44.978   3.134  12.206  0.00  0.00    +0.000 C 
ATOM     18  C   UNL     1      43.521   3.415  12.611  0.00  0.00    +0.000 C 
ATOM     19  C   UNL     1      45.900   4.108  12.953  0.00  0.00    +0.000 C 
ATOM     20  C   UNL     1      45.691   5.767  11.090  0.00  0.00    +0.000 C 
ENDBRANCH  10  11
ENDBRANCH   9  10
ENDBRANCH   8   9
TORSDOF 6
ENDMDL
MODEL 7
REMARK VINA RESULT:    -6.737      5.566      9.195
REMARK INTER + INTRA:         -10.252
REMARK INTER:                  -9.092
REMARK INTRA:                  -1.160
REMARK UNBOUND:                -1.152
REMARK  Name = 
REMARK  6 active torsions:
REMARK  status: ('A' for Active; 'I' for Inactive)
REMARK    1  A    between atoms: C_2  and  C_23
REMARK    2  A    between atoms: N_3  and  C_4
REMARK    3  A    between atoms: C_4  and  C_5
REMARK    4  A    between atoms: C_8  and  C_9
REMARK    5  A    between atoms: C_9  and  N_10
REMARK    6  A    between atoms: N_10  and  C_11
REMARK                            x       y       z     vdW  Elec       q    Type
REMARK                         _______ _______ _______ _____ _____    ______ ____
ROOT
ATOM      5  C   UNL     1      50.839   7.720  14.692  0.00  0.00    +0.000 A 
ATOM      6  C   UNL     1      50.726   8.226  13.391  0.00  0.00    +0.000 A 
ATOM      7  C   UNL     1      49.539   8.075  12.672  0.00  0.00    +0.000 A 
ATOM      8  C   UNL     1      48.442   7.425  13.248  0.00  0.00    +0.000 A 
ATOM     21  C   UNL     1      48.548   6.943  14.561  0.00  0.00    +0.000 A 
ATOM     22  C   UNL     1      49.732   7.096  15.281  0.00  0.00    +0.000 A 
ENDROOT
BRANCH   5   4
ATOM      4  C   UNL     1      52.119   7.886  15.465  0.00  0.00    +0.000 C 
BRANCH   4   3
ATOM      1  O   UNL     1      52.118   6.955  18.116  0.00  0.00    +0.000 OA
ATOM      2  C   UNL     1      52.516   6.210  17.223  0.00  0.00    +0.000 C 
ATOM      3  N   UNL     1      52.616   6.612  15.917  0.00  0.00    +0.000 N 
ATOM     33  H   UNL     1      52.766   5.916  15.196  0.00  0.00    +0.000 HD
BRANCH   2  23
ATOM     23  C   UNL     1      52.964   4.842  17.514  0.00  0.00    +0.000 A 
ATOM     24  C   UNL     1      54.293   4.611  17.838  0.00  0.00    +0.000 A 
ATOM     25  S   UNL     1      54.645   2.971  18.141  0.00  0.00    +0.000 S 
ATOM     26  C   UNL     1      53.021   2.521  17.904  0.00  0.00    +0.000 A 
ATOM     27  N   UNL     1      52.625   1.230  18.056  0.00  0.00    +0.000 NA
ATOM     28  C   UNL     1      51.359   1.037  17.896  0.00  0.00    +0.000 A 
ATOM     29  N   UNL     1      50.454   2.018  17.577  0.00  0.00    +0.000 N 
ATOM     30  C   UNL     1      50.825   3.316  17.325  0.00  0.00    +0.000 A 
ATOM     31  O   UNL     1      50.015   4.131  16.890  0.00  0.00    +0.000 OA
ATOM     32  C   UNL     1      52.228   3.600  17.557  0.00  0.00    +0.000 A 
ATOM     35  H   UNL     1      49.481   1.793  17.429  0.00  0.00    +0.000 HD
ENDBRANCH   2  23
ENDBRANCH   4   3
ENDBRANCH   5   4
BRANCH   8   9
ATOM      9  C   UNL     1      47.125   7.337  12.522  0.00  0.00    +0.000 C 
BRANCH   9  10
ATOM     10  N   UNL     1      46.081   6.641  13.281  0.00  0.00    +0.000 NA
ATOM     34  H   UNL     1      45.421   7.333  13.634  0.00  0.00    +0.000 HD
BRANCH  10  11
ATOM     11  C   UNL     1      45.363   5.612  12.503  0.00  0.00    +0.000 C 
ATOM     12  C   UNL     1      45.771   4.184  12.953  0.00  0.00    +0.000 C 
ATOM     13  C   UNL     1      45.002   3.120  12.157  0.00  0.00    +0.000 C 
ATOM     14  C   UNL     1      43.498   3.289  12.409  0.00  0.00    +0.000 C 
ATOM     15  C   UNL     1      43.046   4.689  11.963  0.00  0.00    +0.000 C 
ATOM     16  C   UNL     1      43.328   4.848  10.461  0.00  0.00    +0.000 C 
ATOM     17  C   UNL     1      44.830   4.691  10.192  0.00  0.00    +0.000 C 
ATOM     18  C   UNL     1      45.298   3.303  10.659  0.00  0.00    +0.000 C 
ATOM     19  C   UNL     1      45.597   5.766  10.975  0.00  0.00    +0.000 C 
ATOM     20  C   UNL     1      43.834   5.758  12.752  0.00  0.00    +0.000 C 
ENDBRANCH  10  11
ENDBRANCH   9  10
ENDBRANCH   8   9
TORSDOF 6
ENDMDL
MODEL 8
REMARK VINA RESULT:    -6.677      3.469      8.738
REMARK INTER + INTRA:         -10.171
REMARK INTER:                  -9.019
REMARK INTRA:                  -1.152
REMARK UNBOUND:                -1.152
REMARK  Name = 
REMARK  6 active torsions:
REMARK  status: ('A' for Active; 'I' for Inactive)
REMARK    1  A    between atoms: C_2  and  C_23
REMARK    2  A    between atoms: N_3  and  C_4
REMARK    3  A    between atoms: C_4  and  C_5
REMARK    4  A    between atoms: C_8  and  C_9
REMARK    5  A    between atoms: C_9  and  N_10
REMARK    6  A    between atoms: N_10  and  C_11
REMARK                            x       y       z     vdW  Elec       q    Type
REMARK                         _______ _______ _______ _____ _____    ______ ____
ROOT
ATOM      5  C   UNL     1      49.620   9.662  11.378  0.00  0.00    +0.000 A 
ATOM      6  C   UNL     1      48.617  10.640  11.435  0.00  0.00    +0.000 A 
ATOM      7  C   UNL     1      47.319  10.302  11.823  0.00  0.00    +0.000 A 
ATOM      8  C   UNL     1      47.007   8.983  12.172  0.00  0.00    +0.000 A 
ATOM     21  C   UNL     1      48.019   8.012  12.140  0.00  0.00    +0.000 A 
ATOM     22  C   UNL     1      49.315   8.349  11.756  0.00  0.00    +0.000 A 
ENDROOT
BRANCH   5   4
ATOM      4  C   UNL     1      51.018  10.031  10.961  0.00  0.00    +0.000 C 
BRANCH   4   3
ATOM      1  O   UNL     1      52.752   9.614   8.790  0.00  0.00    +0.000 OA
ATOM      2  C   UNL     1      52.683   8.759   9.669  0.00  0.00    +0.000 C 
ATOM      3  N   UNL     1      51.810   8.853  10.721  0.00  0.00    +0.000 N 
ATOM     33  H   UNL     1      51.921   8.227  11.511  0.00  0.00    +0.000 HD
BRANCH   2  23
ATOM     23  C   UNL     1      53.504   7.543   9.617  0.00  0.00    +0.000 A 
ATOM     24  C   UNL     1      54.380   7.263  10.656  0.00  0.00    +0.000 A 
ATOM     25  S   UNL     1      55.258   5.818  10.435  0.00  0.00    +0.000 S 
ATOM     26  C   UNL     1      54.457   5.489   8.971  0.00  0.00    +0.000 A 
ATOM     27  N   UNL     1      54.719   4.355   8.271  0.00  0.00    +0.000 NA
ATOM     28  C   UNL     1      54.006   4.207   7.206  0.00  0.00    +0.000 A 
ATOM     29  N   UNL     1      53.064   5.103   6.766  0.00  0.00    +0.000 N 
ATOM     30  C   UNL     1      52.833   6.303   7.392  0.00  0.00    +0.000 A 
ATOM     31  O   UNL     1      52.099   7.148   6.885  0.00  0.00    +0.000 OA
ATOM     32  C   UNL     1      53.562   6.489   8.632  0.00  0.00    +0.000 A 
ATOM     35  H   UNL     1      52.566   4.945   5.903  0.00  0.00    +0.000 HD
ENDBRANCH   2  23
ENDBRANCH   4   3
ENDBRANCH   5   4
BRANCH   8   9
ATOM      9  C   UNL     1      45.637   8.621  12.683  0.00  0.00    +0.000 C 
BRANCH   9  10
ATOM     10  N   UNL     1      44.746   8.088  11.647  0.00  0.00    +0.000 NA
ATOM     34  H   UNL     1      45.138   8.316  10.734  0.00  0.00    +0.000 HD
BRANCH  10  11
ATOM     11  C   UNL     1      44.519   6.632  11.747  0.00  0.00    +0.000 C 
ATOM     12  C   UNL     1      43.040   6.274  11.441  0.00  0.00    +0.000 C 
ATOM     13  C   UNL     1      42.818   4.757  11.522  0.00  0.00    +0.000 C 
ATOM     14  C   UNL     1      43.704   4.060  10.481  0.00  0.00    +0.000 C 
ATOM     15  C   UNL     1      45.183   4.377  10.756  0.00  0.00    +0.000 C 
ATOM     16  C   UNL     1      45.550   3.864  12.158  0.00  0.00    +0.000 C 
ATOM     17  C   UNL     1      44.679   4.558  13.212  0.00  0.00    +0.000 C 
ATOM     18  C   UNL     1      43.195   4.270  12.931  0.00  0.00    +0.000 C 
ATOM     19  C   UNL     1      44.915   6.074  13.142  0.00  0.00    +0.000 C 
ATOM     20  C   UNL     1      45.402   5.904  10.692  0.00  0.00    +0.000 C 
ENDBRANCH  10  11
ENDBRANCH   9  10
ENDBRANCH   8   9
TORSDOF 6
ENDMDL
MODEL 9
REMARK VINA RESULT:    -6.545      5.748      7.040
REMARK INTER + INTRA:          -9.993
REMARK INTER:                  -8.847
REMARK INTRA:                  -1.145
REMARK UNBOUND:                -1.152
REMARK  Name = 
REMARK  6 active torsions:
REMARK  status: ('A' for Active; 'I' for Inactive)
REMARK    1  A    between atoms: C_2  and  C_23
REMARK    2  A    between atoms: N_3  and  C_4
REMARK    3  A    between atoms: C_4  and  C_5
REMARK    4  A    between atoms: C_8  and  C_9
REMARK    5  A    between atoms: C_9  and  N_10
REMARK    6  A    between atoms: N_10  and  C_11
REMARK                            x       y       z     vdW  Elec       q    Type
REMARK                         _______ _______ _______ _____ _____    ______ ____
ROOT
ATOM      5  C   UNL     1      48.537   3.589  17.328  0.00  0.00    +0.000 A 
ATOM      6  C   UNL     1      49.554   2.690  16.978  0.00  0.00    +0.000 A 
ATOM      7  C   UNL     1      50.856   2.875  17.448  0.00  0.00    +0.000 A 
ATOM      8  C   UNL     1      51.158   3.955  18.285  0.00  0.00    +0.000 A 
ATOM     21  C   UNL     1      50.133   4.838  18.655  0.00  0.00    +0.000 A 
ATOM     22  C   UNL     1      48.833   4.653  18.189  0.00  0.00    +0.000 A 
ENDROOT
BRANCH   5   4
ATOM      4  C   UNL     1      47.135   3.386  16.821  0.00  0.00    +0.000 C 
BRANCH   4   3
ATOM      1  O   UNL     1      47.258   3.093  14.029  0.00  0.00    +0.000 OA
ATOM      2  C   UNL     1      46.816   4.138  14.499  0.00  0.00    +0.000 C 
ATOM      3  N   UNL     1      46.790   4.388  15.846  0.00  0.00    +0.000 N 
ATOM     33  H   UNL     1      46.250   5.173  16.192  0.00  0.00    +0.000 HD
BRANCH   2  23
ATOM     23  C   UNL     1      46.331   5.220  13.632  0.00  0.00    +0.000 A 
ATOM     24  C   UNL     1      47.154   6.305  13.366  0.00  0.00    +0.000 A 
ATOM     25  S   UNL     1      46.436   7.469  12.348  0.00  0.00    +0.000 S 
ATOM     26  C   UNL     1      45.023   6.537  12.184  0.00  0.00    +0.000 A 
ATOM     27  N   UNL     1      43.999   6.953  11.393  0.00  0.00    +0.000 NA
ATOM     28  C   UNL     1      43.011   6.127  11.319  0.00  0.00    +0.000 A 
ATOM     29  N   UNL     1      42.945   4.927  11.982  0.00  0.00    +0.000 N 
ATOM     30  C   UNL     1      43.915   4.510  12.860  0.00  0.00    +0.000 A 
ATOM     31  O   UNL     1      43.750   3.509  13.553  0.00  0.00    +0.000 OA
ATOM     32  C   UNL     1      45.079   5.372  12.929  0.00  0.00    +0.000 A 
ATOM     35  H   UNL     1      42.125   4.343  11.910  0.00  0.00    +0.000 HD
ENDBRANCH   2  23
ENDBRANCH   4   3
ENDBRANCH   5   4
BRANCH   8   9
ATOM      9  C   UNL     1      52.534   4.115  18.876  0.00  0.00    +0.000 C 
BRANCH   9  10
ATOM     10  N   UNL     1      52.837   5.487  19.295  0.00  0.00    +0.000 NA
ATOM     34  H   UNL     1      53.434   5.449  20.121  0.00  0.00    +0.000 HD
BRANCH  10  11
ATOM     11  C   UNL     1      53.482   6.303  18.247  0.00  0.00    +0.000 C 
ATOM     12  C   UNL     1      53.812   5.447  16.995  0.00  0.00    +0.000 C 
ATOM     13  C   UNL     1      54.459   6.307  15.900  0.00  0.00    +0.000 C 
ATOM     14  C   UNL     1      53.479   7.410  15.479  0.00  0.00    +0.000 C 
ATOM     15  C   UNL     1      53.134   8.293  16.689  0.00  0.00    +0.000 C 
ATOM     16  C   UNL     1      54.425   8.939  17.218  0.00  0.00    +0.000 C 
ATOM     17  C   UNL     1      55.413   7.849  17.652  0.00  0.00    +0.000 C 
ATOM     18  C   UNL     1      55.744   6.943  16.455  0.00  0.00    +0.000 C 
ATOM     19  C   UNL     1      54.772   7.000  18.759  0.00  0.00    +0.000 C 
ATOM     20  C   UNL     1      52.500   7.424  17.796  0.00  0.00    +0.000 C 
ENDBRANCH  10  11
ENDBRANCH   9  10
ENDBRANCH   8   9
TORSDOF 6
ENDMDL
