MODEL 1
REMARK VINA RESULT:    -8.643      0.000      0.000
REMARK INTER + INTRA:         -13.320
REMARK INTER:                 -12.180
REMARK INTRA:                  -1.140
REMARK UNBOUND:                -1.140
REMARK  Name = 
REMARK  7 active torsions:
REMARK  status: ('A' for Active; 'I' for Inactive)
REMARK    1  A    between atoms: C_2  and  C_20
REMARK    2  A    between atoms: N_3  and  C_4
REMARK    3  A    between atoms: C_4  and  C_5
REMARK    4  A    between atoms: C_8  and  C_9
REMARK    5  A    between atoms: C_9  and  N_10
REMARK    6  A    between atoms: N_10  and  C_11
REMARK    7  A    between atoms: C_11  and  C_12
REMARK                            x       y       z     vdW  Elec       q    Type
REMARK                         _______ _______ _______ _____ _____    ______ ____
ROOT
ATOM      4  C   UNL     1      48.017   6.728  13.407  0.00  0.00    +0.000 C 
ENDROOT
BRANCH   4   5
ATOM      5  C   UNL     1      46.867   5.986  12.778  0.00  0.00    +0.000 A 
ATOM      6  C   UNL     1      46.237   4.948  13.472  0.00  0.00    +0.000 A 
ATOM      7  C   UNL     1      45.161   4.262  12.905  0.00  0.00    +0.000 A 
ATOM      8  C   UNL     1      44.695   4.595  11.626  0.00  0.00    +0.000 A 
ATOM     18  C   UNL     1      45.344   5.616  10.918  0.00  0.00    +0.000 A 
ATOM     19  C   UNL     1      46.425   6.299  11.486  0.00  0.00    +0.000 A 
BRANCH   8   9
ATOM      9  C   UNL     1      43.530   3.850  11.012  0.00  0.00    +0.000 C 
BRANCH   9  10
ATOM     10  N   UNL     1      43.809   3.484   9.626  0.00  0.00    +0.000 NA
ATOM     31  H   UNL     1      44.328   4.237   9.176  0.00  0.00    +0.000 HD
BRANCH  10  11
ATOM     11  C   UNL     1      44.588   2.251   9.543  0.00  0.00    +0.000 C 
BRANCH  11  12
ATOM     12  C   UNL     1      45.605   2.327   8.429  0.00  0.00    +0.000 A 
ATOM     13  C   UNL     1      46.363   1.206   8.063  0.00  0.00    +0.000 A 
ATOM     14  C   UNL     1      47.284   1.284   7.016  0.00  0.00    +0.000 A 
ATOM     15  C   UNL     1      47.458   2.481   6.325  0.00  0.00    +0.000 A 
ATOM     16  C   UNL     1      46.717   3.606   6.682  0.00  0.00    +0.000 A 
ATOM     17  C   UNL     1      45.797   3.530   7.728  0.00  0.00    +0.000 A 
ENDBRANCH  11  12
ENDBRANCH  10  11
ENDBRANCH   9  10
ENDBRANCH   8   9
ENDBRANCH   4   5
BRANCH   4   3
ATOM      1  O   UNL     1      50.180   6.683  15.221  0.00  0.00    +0.000 OA
ATOM      2  C   UNL     1      49.034   6.756  15.653  0.00  0.00    +0.000 C 
ATOM      3  N   UNL     1      47.929   6.718  14.843  0.00  0.00    +0.000 N 
ATOM     30  H   UNL     1      47.029   6.979  15.228  0.00  0.00    +0.000 HD
BRANCH   2  20
ATOM     20  C   UNL     1      48.762   6.829  17.095  0.00  0.00    +0.000 A 
ATOM     21  C   UNL     1      48.357   8.025  17.667  0.00  0.00    +0.000 A 
ATOM     22  S   UNL     1      48.106   7.920  19.353  0.00  0.00    +0.000 S 
ATOM     23  C   UNL     1      48.492   6.262  19.364  0.00  0.00    +0.000 A 
ATOM     24  N   UNL     1      48.449   5.539  20.513  0.00  0.00    +0.000 NA
ATOM     25  C   UNL     1      48.727   4.284  20.364  0.00  0.00    +0.000 A 
ATOM     26  N   UNL     1      49.053   3.693  19.173  0.00  0.00    +0.000 N 
ATOM     27  C   UNL     1      49.185   4.399  18.002  0.00  0.00    +0.000 A 
ATOM     28  O   UNL     1      49.623   3.859  16.992  0.00  0.00    +0.000 OA
ATOM     29  C   UNL     1      48.834   5.802  18.105  0.00  0.00    +0.000 A 
ATOM     32  H   UNL     1      49.296   2.714  19.131  0.00  0.00    +0.000 HD
ENDBRANCH   2  20
ENDBRANCH   4   3
TORSDOF 7
ENDMDL
MODEL 2
REMARK VINA RESULT:    -8.569      1.153      1.249
REMARK INTER + INTRA:         -13.216
REMARK INTER:                 -11.906
REMARK INTRA:                  -1.309
REMARK UNBOUND:                -1.140
REMARK  Name = 
REMARK  7 active torsions:
REMARK  status: ('A' for Active; 'I' for Inactive)
REMARK    1  A    between atoms: C_2  and  C_20
REMARK    2  A    between atoms: N_3  and  C_4
REMARK    3  A    between atoms: C_4  and  C_5
REMARK    4  A    between atoms: C_8  and  C_9
REMARK    5  A    between atoms: C_9  and  N_10
REMARK    6  A    between atoms: N_10  and  C_11
REMARK    7  A    between atoms: C_11  and  C_12
REMARK                            x       y       z     vdW  Elec       q    Type
REMARK                         _______ _______ _______ _____ _____    ______ ____
ROOT
ATOM      4  C   UNL     1      47.125   7.625  13.133  0.00  0.00    +0.000 C 
ENDROOT
BRANCH   4   5
ATOM      5  C   UNL     1      46.216   6.586  12.530  0.00  0.00    +0.000 A 
ATOM      6  C   UNL     1      45.440   5.766  13.358  0.00  0.00    +0.000 A 
ATOM      7  C   UNL     1      44.584   4.809  12.810  0.00  0.00    +0.000 A 
ATOM      8  C   UNL     1      44.489   4.645  11.421  0.00  0.00    +0.000 A 
ATOM     18  C   UNL     1      45.287   5.446  10.593  0.00  0.00    +0.000 A 
ATOM     19  C   UNL     1      46.149   6.401  11.143  0.00  0.00    +0.000 A 
BRANCH   8   9
ATOM      9  C   UNL     1      43.562   3.606  10.829  0.00  0.00    +0.000 C 
BRANCH   9  10
ATOM     10  N   UNL     1      43.900   3.329   9.436  0.00  0.00    +0.000 NA
ATOM     31  H   UNL     1      44.449   4.102   9.062  0.00  0.00    +0.000 HD
BRANCH  10  11
ATOM     11  C   UNL     1      44.666   2.092   9.305  0.00  0.00    +0.000 C 
BRANCH  11  12
ATOM     12  C   UNL     1      45.711   2.214   8.221  0.00  0.00    +0.000 A 
ATOM     13  C   UNL     1      46.547   1.136   7.898  0.00  0.00    +0.000 A 
ATOM     14  C   UNL     1      47.494   1.255   6.878  0.00  0.00    +0.000 A 
ATOM     15  C   UNL     1      47.615   2.449   6.171  0.00  0.00    +0.000 A 
ATOM     16  C   UNL     1      46.795   3.532   6.487  0.00  0.00    +0.000 A 
ATOM     17  C   UNL     1      45.849   3.415   7.505  0.00  0.00    +0.000 A 
ENDBRANCH  11  12
ENDBRANCH  10  11
ENDBRANCH   9  10
ENDBRANCH   8   9
ENDBRANCH   4   5
BRANCH   4   3
ATOM      1  O   UNL     1      49.803   7.034  13.804  0.00  0.00    +0.000 OA
ATOM      2  C   UNL     1      48.944   7.004  14.679  0.00  0.00    +0.000 C 
ATOM      3  N   UNL     1      47.613   7.214  14.423  0.00  0.00    +0.000 N 
ATOM     30  H   UNL     1      46.983   7.373  15.200  0.00  0.00    +0.000 HD
BRANCH   2  20
ATOM     20  C   UNL     1      49.278   6.674  16.070  0.00  0.00    +0.000 A 
ATOM     21  C   UNL     1      50.043   7.548  16.828  0.00  0.00    +0.000 A 
ATOM     22  S   UNL     1      50.344   6.989  18.413  0.00  0.00    +0.000 S 
ATOM     23  C   UNL     1      49.426   5.579  18.148  0.00  0.00    +0.000 A 
ATOM     24  N   UNL     1      49.256   4.659  19.133  0.00  0.00    +0.000 NA
ATOM     25  C   UNL     1      48.503   3.659  18.804  0.00  0.00    +0.000 A 
ATOM     26  N   UNL     1      47.917   3.495  17.577  0.00  0.00    +0.000 N 
ATOM     27  C   UNL     1      48.126   4.358  16.529  0.00  0.00    +0.000 A 
ATOM     28  O   UNL     1      47.705   4.094  15.408  0.00  0.00    +0.000 OA
ATOM     29  C   UNL     1      48.923   5.523  16.862  0.00  0.00    +0.000 A 
ATOM     32  H   UNL     1      47.370   2.672  17.372  0.00  0.00    +0.000 HD
ENDBRANCH   2  20
ENDBRANCH   4   3
TORSDOF 7
ENDMDL
MODEL 3
REMARK VINA RESULT:    -8.237      1.349      2.050
REMARK INTER + INTRA:         -12.748
REMARK INTER:                 -11.614
REMARK INTRA:                  -1.134
REMARK UNBOUND:                -1.140
REMARK  Name = 
REMARK  7 active torsions:
REMARK  status: ('A' for Active; 'I' for Inactive)
REMARK    1  A    between atoms: C_2  and  C_20
REMARK    2  A    between atoms: N_3  and  C_4
REMARK    3  A    between atoms: C_4  and  C_5
REMARK    4  A    between atoms: C_8  and  C_9
REMARK    5  A    between atoms: C_9  and  N_10
REMARK    6  A    between atoms: N_10  and  C_11
REMARK    7  A    between atoms: C_11  and  C_12
REMARK                            x       y       z     vdW  Elec       q    Type
REMARK                         _______ _______ _______ _____ _____    ______ ____
ROOT
ATOM      4  C   UNL     1      47.872   6.800  13.719  0.00  0.00    +0.000 C 
ENDROOT
BRANCH   4   5
ATOM      5  C   UNL     1      46.731   6.149  12.980  0.00  0.00    +0.000 A 
ATOM      6  C   UNL     1      46.019   5.101  13.572  0.00  0.00    +0.000 A 
ATOM      7  C   UNL     1      44.952   4.499  12.904  0.00  0.00    +0.000 A 
ATOM      8  C   UNL     1      44.576   4.929  11.623  0.00  0.00    +0.000 A 
ATOM     18  C   UNL     1      45.307   5.960  11.018  0.00  0.00    +0.000 A 
ATOM     19  C   UNL     1      46.380   6.559  11.687  0.00  0.00    +0.000 A 
BRANCH   8   9
ATOM      9  C   UNL     1      43.420   4.275  10.899  0.00  0.00    +0.000 C 
BRANCH   9  10
ATOM     10  N   UNL     1      43.814   3.835   9.563  0.00  0.00    +0.000 NA
ATOM     31  H   UNL     1      44.389   4.555   9.127  0.00  0.00    +0.000 HD
BRANCH  10  11
ATOM     11  C   UNL     1      44.569   2.585   9.611  0.00  0.00    +0.000 C 
BRANCH  11  12
ATOM     12  C   UNL     1      45.563   2.509   8.476  0.00  0.00    +0.000 A 
ATOM     13  C   UNL     1      46.241   1.317   8.187  0.00  0.00    +0.000 A 
ATOM     14  C   UNL     1      47.140   1.253   7.121  0.00  0.00    +0.000 A 
ATOM     15  C   UNL     1      47.372   2.379   6.333  0.00  0.00    +0.000 A 
ATOM     16  C   UNL     1      46.711   3.574   6.614  0.00  0.00    +0.000 A 
ATOM     17  C   UNL     1      45.813   3.639   7.679  0.00  0.00    +0.000 A 
ENDBRANCH  11  12
ENDBRANCH  10  11
ENDBRANCH   9  10
ENDBRANCH   8   9
ENDBRANCH   4   5
BRANCH   4   3
ATOM      1  O   UNL     1      50.119   6.523  15.406  0.00  0.00    +0.000 OA
ATOM      2  C   UNL     1      48.993   6.408  15.880  0.00  0.00    +0.000 C 
ATOM      3  N   UNL     1      47.855   6.463  15.118  0.00  0.00    +0.000 N 
ATOM     30  H   UNL     1      46.959   6.560  15.580  0.00  0.00    +0.000 HD
BRANCH   2  20
ATOM     20  C   UNL     1      48.789   6.135  17.308  0.00  0.00    +0.000 A 
ATOM     21  C   UNL     1      49.063   4.877  17.822  0.00  0.00    +0.000 A 
ATOM     22  S   UNL     1      48.749   4.743  19.496  0.00  0.00    +0.000 S 
ATOM     23  C   UNL     1      48.273   6.376  19.593  0.00  0.00    +0.000 A 
ATOM     24  N   UNL     1      47.895   6.927  20.775  0.00  0.00    +0.000 NA
ATOM     25  C   UNL     1      47.599   8.185  20.707  0.00  0.00    +0.000 A 
ATOM     26  N   UNL     1      47.638   8.934  19.562  0.00  0.00    +0.000 N 
ATOM     27  C   UNL     1      47.939   8.401  18.332  0.00  0.00    +0.000 A 
ATOM     28  O   UNL     1      47.816   9.072  17.313  0.00  0.00    +0.000 OA
ATOM     29  C   UNL     1      48.327   7.004  18.362  0.00  0.00    +0.000 A 
ATOM     32  H   UNL     1      47.359   9.904  19.569  0.00  0.00    +0.000 HD
ENDBRANCH   2  20
ENDBRANCH   4   3
TORSDOF 7
ENDMDL
MODEL 4
REMARK VINA RESULT:    -7.777      1.685      3.042
REMARK INTER + INTRA:         -12.099
REMARK INTER:                 -10.811
REMARK INTRA:                  -1.288
REMARK UNBOUND:                -1.140
REMARK  Name = 
REMARK  7 active torsions:
REMARK  status: ('A' for Active; 'I' for Inactive)
REMARK    1  A    between atoms: C_2  and  C_20
REMARK    2  A    between atoms: N_3  and  C_4
REMARK    3  A    between atoms: C_4  and  C_5
REMARK    4  A    between atoms: C_8  and  C_9
REMARK    5  A    between atoms: C_9  and  N_10
REMARK    6  A    between atoms: N_10  and  C_11
REMARK    7  A    between atoms: C_11  and  C_12
REMARK                            x       y       z     vdW  Elec       q    Type
REMARK                         _______ _______ _______ _____ _____    ______ ____
ROOT
ATOM      4  C   UNL     1      47.441   4.059  14.770  0.00  0.00    +0.000 C 
ENDROOT
BRANCH   4   5
ATOM      5  C   UNL     1      46.478   4.323  13.642  0.00  0.00    +0.000 A 
ATOM      6  C   UNL     1      45.876   3.255  12.968  0.00  0.00    +0.000 A 
ATOM      7  C   UNL     1      44.971   3.488  11.931  0.00  0.00    +0.000 A 
ATOM      8  C   UNL     1      44.652   4.796  11.539  0.00  0.00    +0.000 A 
ATOM     18  C   UNL     1      45.276   5.865  12.195  0.00  0.00    +0.000 A 
ATOM     19  C   UNL     1      46.187   5.631  13.231  0.00  0.00    +0.000 A 
BRANCH   8   9
ATOM      9  C   UNL     1      43.673   5.046  10.414  0.00  0.00    +0.000 C 
BRANCH   9  10
ATOM     10  N   UNL     1      43.975   4.212   9.254  0.00  0.00    +0.000 NA
ATOM     31  H   UNL     1      43.230   4.309   8.566  0.00  0.00    +0.000 HD
BRANCH  10  11
ATOM     11  C   UNL     1      45.245   4.590   8.638  0.00  0.00    +0.000 C 
BRANCH  11  12
ATOM     12  C   UNL     1      45.920   3.392   8.010  0.00  0.00    +0.000 A 
ATOM     13  C   UNL     1      46.752   3.536   6.891  0.00  0.00    +0.000 A 
ATOM     14  C   UNL     1      47.387   2.424   6.334  0.00  0.00    +0.000 A 
ATOM     15  C   UNL     1      47.199   1.160   6.888  0.00  0.00    +0.000 A 
ATOM     16  C   UNL     1      46.368   1.001   7.996  0.00  0.00    +0.000 A 
ATOM     17  C   UNL     1      45.733   2.110   8.553  0.00  0.00    +0.000 A 
ENDBRANCH  11  12
ENDBRANCH  10  11
ENDBRANCH   9  10
ENDBRANCH   8   9
ENDBRANCH   4   5
BRANCH   4   3
ATOM      1  O   UNL     1      49.460   4.570  16.675  0.00  0.00    +0.000 OA
ATOM      2  C   UNL     1      48.536   5.367  16.550  0.00  0.00    +0.000 C 
ATOM      3  N   UNL     1      47.484   5.159  15.696  0.00  0.00    +0.000 N 
ATOM     30  H   UNL     1      46.861   5.930  15.488  0.00  0.00    +0.000 HD
BRANCH   2  20
ATOM     20  C   UNL     1      48.460   6.586  17.366  0.00  0.00    +0.000 A 
ATOM     21  C   UNL     1      48.380   6.495  18.747  0.00  0.00    +0.000 A 
ATOM     22  S   UNL     1      48.282   8.013  19.523  0.00  0.00    +0.000 S 
ATOM     23  C   UNL     1      48.384   8.841  18.039  0.00  0.00    +0.000 A 
ATOM     24  N   UNL     1      48.379  10.198  17.991  0.00  0.00    +0.000 NA
ATOM     25  C   UNL     1      48.504  10.691  16.801  0.00  0.00    +0.000 A 
ATOM     26  N   UNL     1      48.621   9.946  15.658  0.00  0.00    +0.000 N 
ATOM     27  C   UNL     1      48.552   8.574  15.651  0.00  0.00    +0.000 A 
ATOM     28  O   UNL     1      48.511   7.956  14.593  0.00  0.00    +0.000 OA
ATOM     29  C   UNL     1      48.463   7.972  16.966  0.00  0.00    +0.000 A 
ATOM     32  H   UNL     1      48.678  10.393  14.754  0.00  0.00    +0.000 HD
ENDBRANCH   2  20
ENDBRANCH   4   3
TORSDOF 7
ENDMDL
MODEL 5
REMARK VINA RESULT:    -7.757      1.543      2.267
REMARK INTER + INTRA:         -12.071
REMARK INTER:                 -11.018
REMARK INTRA:                  -1.053
REMARK UNBOUND:                -1.140
REMARK  Name = 
REMARK  7 active torsions:
REMARK  status: ('A' for Active; 'I' for Inactive)
REMARK    1  A    between atoms: C_2  and  C_20
REMARK    2  A    between atoms: N_3  and  C_4
REMARK    3  A    between atoms: C_4  and  C_5
REMARK    4  A    between atoms: C_8  and  C_9
REMARK    5  A    between atoms: C_9  and  N_10
REMARK    6  A    between atoms: N_10  and  C_11
REMARK    7  A    between atoms: C_11  and  C_12
REMARK                            x       y       z     vdW  Elec       q    Type
REMARK                         _______ _______ _______ _____ _____    ______ ____
ROOT
ATOM      4  C   UNL     1      47.505   4.242  14.929  0.00  0.00    +0.000 C 
ENDROOT
BRANCH   4   5
ATOM      5  C   UNL     1      46.501   4.368  13.812  0.00  0.00    +0.000 A 
ATOM      6  C   UNL     1      46.074   3.229  13.120  0.00  0.00    +0.000 A 
ATOM      7  C   UNL     1      45.134   3.331  12.093  0.00  0.00    +0.000 A 
ATOM      8  C   UNL     1      44.604   4.577  11.729  0.00  0.00    +0.000 A 
ATOM     18  C   UNL     1      45.053   5.721  12.404  0.00  0.00    +0.000 A 
ATOM     19  C   UNL     1      45.999   5.618  13.430  0.00  0.00    +0.000 A 
BRANCH   8   9
ATOM      9  C   UNL     1      43.587   4.687  10.615  0.00  0.00    +0.000 C 
BRANCH   9  10
ATOM     10  N   UNL     1      43.865   3.728   9.549  0.00  0.00    +0.000 NA
ATOM     31  H   UNL     1      42.989   3.452   9.108  0.00  0.00    +0.000 HD
BRANCH  10  11
ATOM     11  C   UNL     1      44.751   4.295   8.536  0.00  0.00    +0.000 C 
BRANCH  11  12
ATOM     12  C   UNL     1      45.674   3.240   7.972  0.00  0.00    +0.000 A 
ATOM     13  C   UNL     1      46.582   3.546   6.949  0.00  0.00    +0.000 A 
ATOM     14  C   UNL     1      47.445   2.567   6.452  0.00  0.00    +0.000 A 
ATOM     15  C   UNL     1      47.412   1.275   6.973  0.00  0.00    +0.000 A 
ATOM     16  C   UNL     1      46.509   0.955   7.986  0.00  0.00    +0.000 A 
ATOM     17  C   UNL     1      45.646   1.932   8.482  0.00  0.00    +0.000 A 
ENDBRANCH  11  12
ENDBRANCH  10  11
ENDBRANCH   9  10
ENDBRANCH   8   9
ENDBRANCH   4   5
BRANCH   4   3
ATOM      1  O   UNL     1      49.596   5.064  16.638  0.00  0.00    +0.000 OA
ATOM      2  C   UNL     1      48.602   5.773  16.519  0.00  0.00    +0.000 C 
ATOM      3  N   UNL     1      47.517   5.414  15.762  0.00  0.00    +0.000 N 
ATOM     30  H   UNL     1      46.819   6.115  15.541  0.00  0.00    +0.000 HD
BRANCH   2  20
ATOM     20  C   UNL     1      48.478   7.045  17.243  0.00  0.00    +0.000 A 
ATOM     21  C   UNL     1      48.683   8.246  16.579  0.00  0.00    +0.000 A 
ATOM     22  S   UNL     1      48.514   9.615  17.585  0.00  0.00    +0.000 S 
ATOM     23  C   UNL     1      48.122   8.648  18.930  0.00  0.00    +0.000 A 
ATOM     24  N   UNL     1      47.832   9.205  20.134  0.00  0.00    +0.000 NA
ATOM     25  C   UNL     1      47.513   8.353  21.054  0.00  0.00    +0.000 A 
ATOM     26  N   UNL     1      47.470   6.996  20.878  0.00  0.00    +0.000 N 
ATOM     27  C   UNL     1      47.830   6.385  19.702  0.00  0.00    +0.000 A 
ATOM     28  O   UNL     1      47.921   5.164  19.634  0.00  0.00    +0.000 OA
ATOM     29  C   UNL     1      48.148   7.300  18.623  0.00  0.00    +0.000 A 
ATOM     32  H   UNL     1      47.249   6.382  21.648  0.00  0.00    +0.000 HD
ENDBRANCH   2  20
ENDBRANCH   4   3
TORSDOF 7
ENDMDL
MODEL 6
REMARK VINA RESULT:    -7.598      2.646      4.406
REMARK INTER + INTRA:         -11.847
REMARK INTER:                 -10.603
REMARK INTRA:                  -1.244
REMARK UNBOUND:                -1.140
REMARK  Name = 
REMARK  7 active torsions:
REMARK  status: ('A' for Active; 'I' for Inactive)
REMARK    1  A    between atoms: C_2  and  C_20
REMARK    2  A    between atoms: N_3  and  C_4
REMARK    3  A    between atoms: C_4  and  C_5
REMARK    4  A    between atoms: C_8  and  C_9
REMARK    5  A    between atoms: C_9  and  N_10
REMARK    6  A    between atoms: N_10  and  C_11
REMARK    7  A    between atoms: C_11  and  C_12
REMARK                            x       y       z     vdW  Elec       q    Type
REMARK                         _______ _______ _______ _____ _____    ______ ____
ROOT
ATOM      4  C   UNL     1      47.442   5.155  14.784  0.00  0.00    +0.000 C 
ENDROOT
BRANCH   4   5
ATOM      5  C   UNL     1      46.389   4.868  13.745  0.00  0.00    +0.000 A 
ATOM      6  C   UNL     1      46.213   3.565  13.265  0.00  0.00    +0.000 A 
ATOM      7  C   UNL     1      45.232   3.285  12.314  0.00  0.00    +0.000 A 
ATOM      8  C   UNL     1      44.407   4.302  11.814  0.00  0.00    +0.000 A 
ATOM     18  C   UNL     1      44.602   5.612  12.274  0.00  0.00    +0.000 A 
ATOM     19  C   UNL     1      45.589   5.893  13.224  0.00  0.00    +0.000 A 
BRANCH   8   9
ATOM      9  C   UNL     1      43.345   3.997  10.781  0.00  0.00    +0.000 C 
BRANCH   9  10
ATOM     10  N   UNL     1      43.881   3.179   9.697  0.00  0.00    +0.000 NA
ATOM     31  H   UNL     1      43.110   2.781   9.162  0.00  0.00    +0.000 HD
BRANCH  10  11
ATOM     11  C   UNL     1      44.729   3.964   8.802  0.00  0.00    +0.000 C 
BRANCH  11  12
ATOM     12  C   UNL     1      45.671   3.072   8.028  0.00  0.00    +0.000 A 
ATOM     13  C   UNL     1      46.340   3.542   6.889  0.00  0.00    +0.000 A 
ATOM     14  C   UNL     1      47.226   2.715   6.196  0.00  0.00    +0.000 A 
ATOM     15  C   UNL     1      47.453   1.411   6.632  0.00  0.00    +0.000 A 
ATOM     16  C   UNL     1      46.789   0.928   7.758  0.00  0.00    +0.000 A 
ATOM     17  C   UNL     1      45.904   1.753   8.452  0.00  0.00    +0.000 A 
ENDBRANCH  11  12
ENDBRANCH  10  11
ENDBRANCH   9  10
ENDBRANCH   8   9
ENDBRANCH   4   5
BRANCH   4   3
ATOM      1  O   UNL     1      49.895   6.179  15.735  0.00  0.00    +0.000 OA
ATOM      2  C   UNL     1      49.111   6.930  15.164  0.00  0.00    +0.000 C 
ATOM      3  N   UNL     1      47.874   6.527  14.731  0.00  0.00    +0.000 N 
ATOM     30  H   UNL     1      47.357   7.124  14.098  0.00  0.00    +0.000 HD
BRANCH   2  20
ATOM     20  C   UNL     1      49.424   8.350  14.957  0.00  0.00    +0.000 A 
ATOM     21  C   UNL     1      49.827   9.136  16.026  0.00  0.00    +0.000 A 
ATOM     22  S   UNL     1      50.129  10.762  15.598  0.00  0.00    +0.000 S 
ATOM     23  C   UNL     1      49.769  10.455  13.962  0.00  0.00    +0.000 A 
ATOM     24  N   UNL     1      49.855  11.439  13.029  0.00  0.00    +0.000 NA
ATOM     25  C   UNL     1      49.592  11.054  11.822  0.00  0.00    +0.000 A 
ATOM     26  N   UNL     1      49.241   9.778  11.470  0.00  0.00    +0.000 N 
ATOM     27  C   UNL     1      49.065   8.772  12.389  0.00  0.00    +0.000 A 
ATOM     28  O   UNL     1      48.605   7.688  12.049  0.00  0.00    +0.000 OA
ATOM     29  C   UNL     1      49.397   9.140  13.752  0.00  0.00    +0.000 A 
ATOM     32  H   UNL     1      49.012   9.551  10.514  0.00  0.00    +0.000 HD
ENDBRANCH   2  20
ENDBRANCH   4   3
TORSDOF 7
ENDMDL
MODEL 7
REMARK VINA RESULT:    -7.497      2.303      3.281
REMARK INTER + INTRA:         -11.705
REMARK INTER:                 -10.456
REMARK INTRA:                  -1.249
REMARK UNBOUND:                -1.140
REMARK  Name = 
REMARK  7 active torsions:
REMARK  status: ('A' for Active; 'I' for Inactive)
REMARK    1  A    between atoms: C_2  and  C_20
REMARK    2  A    between atoms: N_3  and  C_4
REMARK    3  A    between atoms: C_4  and  C_5
REMARK    4  A    between atoms: C_8  and  C_9
REMARK    5  A    between atoms: C_9  and  N_10
REMARK    6  A    between atoms: N_10  and  C_11
REMARK    7  A    between atoms: C_11  and  C_12
REMARK                            x       y       z     vdW  Elec       q    Type
REMARK                         _______ _______ _______ _____ _____    ______ ____
ROOT
ATOM      4  C   UNL     1      47.350   7.827  12.761  0.00  0.00    +0.000 C 
ENDROOT
BRANCH   4   5
ATOM      5  C   UNL     1      46.406   6.723  12.362  0.00  0.00    +0.000 A 
ATOM      6  C   UNL     1      45.813   6.731  11.095  0.00  0.00    +0.000 A 
ATOM      7  C   UNL     1      44.947   5.706  10.709  0.00  0.00    +0.000 A 
ATOM      8  C   UNL     1      44.649   4.652  11.584  0.00  0.00    +0.000 A 
ATOM     18  C   UNL     1      45.221   4.660  12.863  0.00  0.00    +0.000 A 
ATOM     19  C   UNL     1      46.085   5.690  13.252  0.00  0.00    +0.000 A 
BRANCH   8   9
ATOM      9  C   UNL     1      43.709   3.544  11.165  0.00  0.00    +0.000 C 
BRANCH   9  10
ATOM     10  N   UNL     1      43.810   3.278   9.733  0.00  0.00    +0.000 NA
ATOM     31  H   UNL     1      44.305   4.047   9.282  0.00  0.00    +0.000 HD
BRANCH  10  11
ATOM     11  C   UNL     1      44.523   2.031   9.468  0.00  0.00    +0.000 C 
BRANCH  11  12
ATOM     12  C   UNL     1      45.588   2.229   8.415  0.00  0.00    +0.000 A 
ATOM     13  C   UNL     1      45.784   3.478   7.811  0.00  0.00    +0.000 A 
ATOM     14  C   UNL     1      46.787   3.654   6.855  0.00  0.00    +0.000 A 
ATOM     15  C   UNL     1      47.603   2.584   6.493  0.00  0.00    +0.000 A 
ATOM     16  C   UNL     1      47.414   1.334   7.079  0.00  0.00    +0.000 A 
ATOM     17  C   UNL     1      46.413   1.157   8.034  0.00  0.00    +0.000 A 
ENDBRANCH  11  12
ENDBRANCH  10  11
ENDBRANCH   9  10
ENDBRANCH   8   9
ENDBRANCH   4   5
BRANCH   4   3
ATOM      1  O   UNL     1      47.884   8.865  15.332  0.00  0.00    +0.000 OA
ATOM      2  C   UNL     1      48.505   7.882  14.939  0.00  0.00    +0.000 C 
ATOM      3  N   UNL     1      48.351   7.358  13.682  0.00  0.00    +0.000 N 
ATOM     30  H   UNL     1      48.734   6.441  13.482  0.00  0.00    +0.000 HD
BRANCH   2  20
ATOM     20  C   UNL     1      49.515   7.228  15.781  0.00  0.00    +0.000 A 
ATOM     21  C   UNL     1      49.129   6.515  16.906  0.00  0.00    +0.000 A 
ATOM     22  S   UNL     1      50.440   5.841  17.767  0.00  0.00    +0.000 S 
ATOM     23  C   UNL     1      51.564   6.448  16.640  0.00  0.00    +0.000 A 
ATOM     24  N   UNL     1      52.893   6.207  16.776  0.00  0.00    +0.000 NA
ATOM     25  C   UNL     1      53.624   6.695  15.826  0.00  0.00    +0.000 A 
ATOM     26  N   UNL     1      53.143   7.409  14.761  0.00  0.00    +0.000 N 
ATOM     27  C   UNL     1      51.818   7.744  14.625  0.00  0.00    +0.000 A 
ATOM     28  O   UNL     1      51.454   8.509  13.739  0.00  0.00    +0.000 OA
ATOM     29  C   UNL     1      50.949   7.177  15.639  0.00  0.00    +0.000 A 
ATOM     32  H   UNL     1      53.771   7.795  14.072  0.00  0.00    +0.000 HD
ENDBRANCH   2  20
ENDBRANCH   4   3
TORSDOF 7
ENDMDL
MODEL 8
REMARK VINA RESULT:    -7.386      2.088      2.480
REMARK INTER + INTRA:         -11.549
REMARK INTER:                 -10.420
REMARK INTRA:                  -1.128
REMARK UNBOUND:                -1.140
REMARK  Name = 
REMARK  7 active torsions:
REMARK  status: ('A' for Active; 'I' for Inactive)
REMARK    1  A    between atoms: C_2  and  C_20
REMARK    2  A    between atoms: N_3  and  C_4
REMARK    3  A    between atoms: C_4  and  C_5
REMARK    4  A    between atoms: C_8  and  C_9
REMARK    5  A    between atoms: C_9  and  N_10
REMARK    6  A    between atoms: N_10  and  C_11
REMARK    7  A    between atoms: C_11  and  C_12
REMARK                            x       y       z     vdW  Elec       q    Type
REMARK                         _______ _______ _______ _____ _____    ______ ____
ROOT
ATOM      4  C   UNL     1      47.362   7.896  13.270  0.00  0.00    +0.000 C 
ENDROOT
BRANCH   4   5
ATOM      5  C   UNL     1      46.564   6.719  12.771  0.00  0.00    +0.000 A 
ATOM      6  C   UNL     1      46.618   5.497  13.450  0.00  0.00    +0.000 A 
ATOM      7  C   UNL     1      45.873   4.403  13.005  0.00  0.00    +0.000 A 
ATOM      8  C   UNL     1      45.062   4.505  11.866  0.00  0.00    +0.000 A 
ATOM     18  C   UNL     1      45.030   5.721  11.171  0.00  0.00    +0.000 A 
ATOM     19  C   UNL     1      45.781   6.815  11.614  0.00  0.00    +0.000 A 
BRANCH   8   9
ATOM      9  C   UNL     1      44.257   3.319  11.385  0.00  0.00    +0.000 C 
BRANCH   9  10
ATOM     10  N   UNL     1      44.174   3.292   9.927  0.00  0.00    +0.000 NA
ATOM     31  H   UNL     1      44.780   4.016   9.542  0.00  0.00    +0.000 HD
BRANCH  10  11
ATOM     11  C   UNL     1      44.580   1.995   9.391  0.00  0.00    +0.000 C 
BRANCH  11  12
ATOM     12  C   UNL     1      45.626   2.158   8.313  0.00  0.00    +0.000 A 
ATOM     13  C   UNL     1      46.442   1.084   7.929  0.00  0.00    +0.000 A 
ATOM     14  C   UNL     1      47.390   1.242   6.916  0.00  0.00    +0.000 A 
ATOM     15  C   UNL     1      47.533   2.471   6.276  0.00  0.00    +0.000 A 
ATOM     16  C   UNL     1      46.734   3.549   6.653  0.00  0.00    +0.000 A 
ATOM     17  C   UNL     1      45.786   3.394   7.665  0.00  0.00    +0.000 A 
ENDBRANCH  11  12
ENDBRANCH  10  11
ENDBRANCH   9  10
ENDBRANCH   8   9
ENDBRANCH   4   5
BRANCH   4   3
ATOM      1  O   UNL     1      49.366   9.579  14.330  0.00  0.00    +0.000 OA
ATOM      2  C   UNL     1      49.496   8.362  14.414  0.00  0.00    +0.000 C 
ATOM      3  N   UNL     1      48.602   7.478  13.868  0.00  0.00    +0.000 N 
ATOM     30  H   UNL     1      48.651   6.502  14.135  0.00  0.00    +0.000 HD
BRANCH   2  20
ATOM     20  C   UNL     1      50.669   7.761  15.060  0.00  0.00    +0.000 A 
ATOM     21  C   UNL     1      51.945   8.184  14.719  0.00  0.00    +0.000 A 
ATOM     22  S   UNL     1      53.182   7.360  15.561  0.00  0.00    +0.000 S 
ATOM     23  C   UNL     1      52.049   6.439  16.437  0.00  0.00    +0.000 A 
ATOM     24  N   UNL     1      52.449   5.535  17.367  0.00  0.00    +0.000 NA
ATOM     25  C   UNL     1      51.480   4.938  17.983  0.00  0.00    +0.000 A 
ATOM     26  N   UNL     1      50.150   5.158  17.743  0.00  0.00    +0.000 N 
ATOM     27  C   UNL     1      49.701   6.005  16.758  0.00  0.00    +0.000 A 
ATOM     28  O   UNL     1      48.509   6.059  16.477  0.00  0.00    +0.000 OA
ATOM     29  C   UNL     1      50.748   6.736  16.072  0.00  0.00    +0.000 A 
ATOM     32  H   UNL     1      49.442   4.632  18.233  0.00  0.00    +0.000 HD
ENDBRANCH   2  20
ENDBRANCH   4   3
TORSDOF 7
ENDMDL
MODEL 9
REMARK VINA RESULT:    -7.366      1.720      2.250
REMARK INTER + INTRA:         -11.521
REMARK INTER:                 -10.444
REMARK INTRA:                  -1.077
REMARK UNBOUND:                -1.140
REMARK  Name = 
REMARK  7 active torsions:
REMARK  status: ('A' for Active; 'I' for Inactive)
REMARK    1  A    between atoms: C_2  and  C_20
REMARK    2  A    between atoms: N_3  and  C_4
REMARK    3  A    between atoms: C_4  and  C_5
REMARK    4  A    between atoms: C_8  and  C_9
REMARK    5  A    between atoms: C_9  and  N_10
REMARK    6  A    between atoms: N_10  and  C_11
REMARK    7  A    between atoms: C_11  and  C_12
REMARK                            x       y       z     vdW  Elec       q    Type
REMARK                         _______ _______ _______ _____ _____    ______ ____
ROOT
ATOM      4  C   UNL     1      48.306   7.371  13.591  0.00  0.00    +0.000 C 
ENDROOT
BRANCH   4   5
ATOM      5  C   UNL     1      47.126   6.701  12.936  0.00  0.00    +0.000 A 
ATOM      6  C   UNL     1      46.286   7.430  12.088  0.00  0.00    +0.000 A 
ATOM      7  C   UNL     1      45.199   6.817  11.464  0.00  0.00    +0.000 A 
ATOM      8  C   UNL     1      44.921   5.460  11.680  0.00  0.00    +0.000 A 
ATOM     18  C   UNL     1      45.746   4.736  12.552  0.00  0.00    +0.000 A 
ATOM     19  C   UNL     1      46.833   5.353  13.180  0.00  0.00    +0.000 A 
BRANCH   8   9
ATOM      9  C   UNL     1      43.741   4.797  11.005  0.00  0.00    +0.000 C 
BRANCH   9  10
ATOM     10  N   UNL     1      44.171   3.688  10.157  0.00  0.00    +0.000 NA
ATOM     31  H   UNL     1      43.407   3.020  10.063  0.00  0.00    +0.000 HD
BRANCH  10  11
ATOM     11  C   UNL     1      44.568   4.150   8.829  0.00  0.00    +0.000 C 
BRANCH  11  12
ATOM     12  C   UNL     1      45.560   3.201   8.200  0.00  0.00    +0.000 A 
ATOM     13  C   UNL     1      45.605   1.850   8.572  0.00  0.00    +0.000 A 
ATOM     14  C   UNL     1      46.512   0.978   7.966  0.00  0.00    +0.000 A 
ATOM     15  C   UNL     1      47.382   1.445   6.983  0.00  0.00    +0.000 A 
ATOM     16  C   UNL     1      47.353   2.787   6.608  0.00  0.00    +0.000 A 
ATOM     17  C   UNL     1      46.448   3.660   7.212  0.00  0.00    +0.000 A 
ENDBRANCH  11  12
ENDBRANCH  10  11
ENDBRANCH   9  10
ENDBRANCH   8   9
ENDBRANCH   4   5
BRANCH   4   3
ATOM      1  O   UNL     1      48.350   8.325  16.248  0.00  0.00    +0.000 OA
ATOM      2  C   UNL     1      48.678   7.166  16.020  0.00  0.00    +0.000 C 
ATOM      3  N   UNL     1      48.746   6.646  14.753  0.00  0.00    +0.000 N 
ATOM     30  H   UNL     1      48.827   5.643  14.638  0.00  0.00    +0.000 HD
BRANCH   2  20
ATOM     20  C   UNL     1      49.087   6.259  17.101  0.00  0.00    +0.000 A 
ATOM     21  C   UNL     1      48.143   5.762  17.986  0.00  0.00    +0.000 A 
ATOM     22  S   UNL     1      48.807   4.740  19.183  0.00  0.00    +0.000 S 
ATOM     23  C   UNL     1      50.371   4.899  18.530  0.00  0.00    +0.000 A 
ATOM     24  N   UNL     1      51.429   4.247  19.078  0.00  0.00    +0.000 NA
ATOM     25  C   UNL     1      52.549   4.428  18.454  0.00  0.00    +0.000 A 
ATOM     26  N   UNL     1      52.703   5.209  17.341  0.00  0.00    +0.000 N 
ATOM     27  C   UNL     1      51.679   5.948  16.800  0.00  0.00    +0.000 A 
ATOM     28  O   UNL     1      51.894   6.749  15.897  0.00  0.00    +0.000 OA
ATOM     29  C   UNL     1      50.391   5.741  17.433  0.00  0.00    +0.000 A 
ATOM     32  H   UNL     1      53.612   5.339  16.923  0.00  0.00    +0.000 HD
ENDBRANCH   2  20
ENDBRANCH   4   3
TORSDOF 7
ENDMDL
