MODEL 1
REMARK VINA RESULT:    -5.806      0.000      0.000
REMARK INTER + INTRA:          -6.365
REMARK INTER:                  -6.315
REMARK INTRA:                  -0.050
REMARK UNBOUND:                -0.050
REMARK  Name = 
REMARK  2 active torsions:
REMARK  status: ('A' for Active; 'I' for Inactive)
REMARK    1  A    between atoms: C_2  and  C_4
REMARK    2  A    between atoms: C_7  and  N_8
REMARK                            x       y       z     vdW  Elec       q    Type
REMARK                         _______ _______ _______ _____ _____    ______ ____
ROOT
ATOM      4  C   UNL     1      45.375   3.070   8.627  0.00  0.00    +0.000 A 
ATOM      5  C   UNL     1      45.813   1.760   8.500  0.00  0.00    +0.000 A 
ATOM      6  C   UNL     1      46.858   1.493   7.617  0.00  0.00    +0.000 A 
ATOM      7  C   UNL     1      47.466   2.533   6.916  0.00  0.00    +0.000 A 
ATOM      9  C   UNL     1      46.908   3.806   7.076  0.00  0.00    +0.000 A 
ATOM     10  N   UNL     1      45.895   4.114   7.923  0.00  0.00    +0.000 NA
ENDROOT
BRANCH   4   2
ATOM      1  N   UNL     1      43.734   4.647   9.476  0.00  0.00    +0.000 N 
ATOM      2  C   UNL     1      44.252   3.385   9.565  0.00  0.00    +0.000 C 
ATOM      3  O   UNL     1      43.806   2.564  10.359  0.00  0.00    +0.000 OA
ATOM     11  H   UNL     1      42.926   4.885  10.031  0.00  0.00    +0.000 HD
ATOM     12  H   UNL     1      44.046   5.263   8.734  0.00  0.00    +0.000 HD
ENDBRANCH   4   2
BRANCH   7   8
ATOM      8  N   UNL     1      48.417   2.262   5.928  0.00  0.00    +0.000 N 
ATOM     13  H   UNL     1      48.394   2.903   5.140  0.00  0.00    +0.000 HD
ATOM     14  H   UNL     1      48.450   1.292   5.630  0.00  0.00    +0.000 HD
ENDBRANCH   7   8
TORSDOF 2
ENDMDL
MODEL 2
REMARK VINA RESULT:    -5.756      2.024      4.251
REMARK INTER + INTRA:          -6.310
REMARK INTER:                  -6.264
REMARK INTRA:                  -0.046
REMARK UNBOUND:                -0.050
REMARK  Name = 
REMARK  2 active torsions:
REMARK  status: ('A' for Active; 'I' for Inactive)
REMARK    1  A    between atoms: C_2  and  C_4
REMARK    2  A    between atoms: C_7  and  N_8
REMARK                            x       y       z     vdW  Elec       q    Type
REMARK                         _______ _______ _______ _____ _____    ______ ____
ROOT
ATOM      4  C   UNL     1      46.394   2.320   7.826  0.00  0.00    +0.000 A 
ATOM      5  C   UNL     1      46.423   3.685   7.580  0.00  0.00    +0.000 A 
ATOM      6  C   UNL     1      45.558   4.507   8.302  0.00  0.00    +0.000 A 
ATOM      7  C   UNL     1      44.721   3.961   9.273  0.00  0.00    +0.000 A 
ATOM      9  C   UNL     1      44.731   2.568   9.398  0.00  0.00    +0.000 A 
ATOM     10  N   UNL     1      45.554   1.729   8.721  0.00  0.00    +0.000 NA
ENDROOT
BRANCH   4   2
ATOM      1  N   UNL     1      48.443   1.991   6.563  0.00  0.00    +0.000 N 
ATOM      2  C   UNL     1      47.309   1.413   7.063  0.00  0.00    +0.000 C 
ATOM      3  O   UNL     1      47.073   0.220   6.904  0.00  0.00    +0.000 OA
ATOM     11  H   UNL     1      49.129   1.407   6.108  0.00  0.00    +0.000 HD
ATOM     12  H   UNL     1      48.665   2.948   6.808  0.00  0.00    +0.000 HD
ENDBRANCH   4   2
BRANCH   7   8
ATOM      8  N   UNL     1      43.755   4.752   9.903  0.00  0.00    +0.000 N 
ATOM     13  H   UNL     1      43.983   5.741   9.935  0.00  0.00    +0.000 HD
ATOM     14  H   UNL     1      43.447   4.402  10.805  0.00  0.00    +0.000 HD
ENDBRANCH   7   8
TORSDOF 2
ENDMDL
MODEL 3
REMARK VINA RESULT:    -5.672      0.917      1.536
REMARK INTER + INTRA:          -6.220
REMARK INTER:                  -6.171
REMARK INTRA:                  -0.049
REMARK UNBOUND:                -0.050
REMARK  Name = 
REMARK  2 active torsions:
REMARK  status: ('A' for Active; 'I' for Inactive)
REMARK    1  A    between atoms: C_2  and  C_4
REMARK    2  A    between atoms: C_7  and  N_8
REMARK                            x       y       z     vdW  Elec       q    Type
REMARK                         _______ _______ _______ _____ _____    ______ ____
ROOT
ATOM      4  C   UNL     1      45.282   3.084   8.787  0.00  0.00    +0.000 A 
ATOM      5  C   UNL     1      45.876   4.076   8.020  0.00  0.00    +0.000 A 
ATOM      6  C   UNL     1      46.881   3.710   7.126  0.00  0.00    +0.000 A 
ATOM      7  C   UNL     1      47.241   2.370   6.987  0.00  0.00    +0.000 A 
ATOM      9  C   UNL     1      46.620   1.462   7.851  0.00  0.00    +0.000 A 
ATOM     10  N   UNL     1      45.638   1.770   8.733  0.00  0.00    +0.000 NA
ENDROOT
BRANCH   4   2
ATOM      1  N   UNL     1      43.815   4.760   9.758  0.00  0.00    +0.000 N 
ATOM      2  C   UNL     1      44.203   3.449   9.758  0.00  0.00    +0.000 C 
ATOM      3  O   UNL     1      43.680   2.627  10.503  0.00  0.00    +0.000 OA
ATOM     11  H   UNL     1      43.039   5.041  10.338  0.00  0.00    +0.000 HD
ATOM     12  H   UNL     1      44.184   5.388   9.053  0.00  0.00    +0.000 HD
ENDBRANCH   4   2
BRANCH   7   8
ATOM      8  N   UNL     1      48.338   2.009   6.199  0.00  0.00    +0.000 N 
ATOM     13  H   UNL     1      48.186   1.181   5.629  0.00  0.00    +0.000 HD
ATOM     14  H   UNL     1      49.221   1.972   6.698  0.00  0.00    +0.000 HD
ENDBRANCH   7   8
TORSDOF 2
ENDMDL
MODEL 4
REMARK VINA RESULT:    -5.155      1.871      2.462
REMARK INTER + INTRA:          -5.658
REMARK INTER:                  -5.625
REMARK INTRA:                  -0.033
REMARK UNBOUND:                -0.050
REMARK  Name = 
REMARK  2 active torsions:
REMARK  status: ('A' for Active; 'I' for Inactive)
REMARK    1  A    between atoms: C_2  and  C_4
REMARK    2  A    between atoms: C_7  and  N_8
REMARK                            x       y       z     vdW  Elec       q    Type
REMARK                         _______ _______ _______ _____ _____    ______ ____
ROOT
ATOM      4  C   UNL     1      44.854   3.158  10.019  0.00  0.00    +0.000 A 
ATOM      5  C   UNL     1      45.115   4.458   9.610  0.00  0.00    +0.000 A 
ATOM      6  C   UNL     1      45.779   4.651   8.399  0.00  0.00    +0.000 A 
ATOM      7  C   UNL     1      46.128   3.556   7.610  0.00  0.00    +0.000 A 
ATOM      9  C   UNL     1      45.870   2.290   8.145  0.00  0.00    +0.000 A 
ATOM     10  N   UNL     1      45.227   2.053   9.315  0.00  0.00    +0.000 NA
ENDROOT
BRANCH   4   2
ATOM      1  N   UNL     1      44.938   2.881  12.431  0.00  0.00    +0.000 N 
ATOM      2  C   UNL     1      44.147   2.920  11.317  0.00  0.00    +0.000 C 
ATOM      3  O   UNL     1      42.930   2.783  11.389  0.00  0.00    +0.000 OA
ATOM     11  H   UNL     1      44.502   2.801  13.338  0.00  0.00    +0.000 HD
ATOM     12  H   UNL     1      45.921   3.111  12.353  0.00  0.00    +0.000 HD
ENDBRANCH   4   2
BRANCH   7   8
ATOM      8  N   UNL     1      46.913   3.729   6.466  0.00  0.00    +0.000 N 
ATOM     13  H   UNL     1      47.832   4.123   6.647  0.00  0.00    +0.000 HD
ATOM     14  H   UNL     1      46.442   4.199   5.698  0.00  0.00    +0.000 HD
ENDBRANCH   7   8
TORSDOF 2
ENDMDL
MODEL 5
REMARK VINA RESULT:    -4.956      4.270      5.619
REMARK INTER + INTRA:          -5.441
REMARK INTER:                  -5.398
REMARK INTRA:                  -0.043
REMARK UNBOUND:                -0.050
REMARK  Name = 
REMARK  2 active torsions:
REMARK  status: ('A' for Active; 'I' for Inactive)
REMARK    1  A    between atoms: C_2  and  C_4
REMARK    2  A    between atoms: C_7  and  N_8
REMARK                            x       y       z     vdW  Elec       q    Type
REMARK                         _______ _______ _______ _____ _____    ______ ____
ROOT
ATOM      4  C   UNL     1      46.187   4.347  13.159  0.00  0.00    +0.000 A 
ATOM      5  C   UNL     1      46.263   5.547  12.467  0.00  0.00    +0.000 A 
ATOM      6  C   UNL     1      45.480   5.703  11.324  0.00  0.00    +0.000 A 
ATOM      7  C   UNL     1      44.616   4.685  10.923  0.00  0.00    +0.000 A 
ATOM      9  C   UNL     1      44.662   3.497  11.660  0.00  0.00    +0.000 A 
ATOM     10  N   UNL     1      45.404   3.300  12.777  0.00  0.00    +0.000 NA
ENDROOT
BRANCH   4   2
ATOM      1  N   UNL     1      47.150   5.240  15.203  0.00  0.00    +0.000 N 
ATOM      2  C   UNL     1      47.019   4.150  14.388  0.00  0.00    +0.000 C 
ATOM      3  O   UNL     1      47.542   3.076  14.666  0.00  0.00    +0.000 OA
ATOM     11  H   UNL     1      47.636   5.139  16.082  0.00  0.00    +0.000 HD
ATOM     12  H   UNL     1      46.614   6.077  15.006  0.00  0.00    +0.000 HD
ENDBRANCH   4   2
BRANCH   7   8
ATOM      8  N   UNL     1      43.932   4.774   9.706  0.00  0.00    +0.000 N 
ATOM     13  H   UNL     1      44.537   4.845   8.893  0.00  0.00    +0.000 HD
ATOM     14  H   UNL     1      43.189   5.466   9.690  0.00  0.00    +0.000 HD
ENDBRANCH   7   8
TORSDOF 2
ENDMDL
MODEL 6
REMARK VINA RESULT:    -4.850      5.785      6.522
REMARK INTER + INTRA:          -5.326
REMARK INTER:                  -5.289
REMARK INTRA:                  -0.037
REMARK UNBOUND:                -0.050
REMARK  Name = 
REMARK  2 active torsions:
REMARK  status: ('A' for Active; 'I' for Inactive)
REMARK    1  A    between atoms: C_2  and  C_4
REMARK    2  A    between atoms: C_7  and  N_8
REMARK                            x       y       z     vdW  Elec       q    Type
REMARK                         _______ _______ _______ _____ _____    ______ ____
ROOT
ATOM      4  C   UNL     1      45.745   4.946  13.490  0.00  0.00    +0.000 A 
ATOM      5  C   UNL     1      45.978   6.166  12.872  0.00  0.00    +0.000 A 
ATOM      6  C   UNL     1      44.956   6.727  12.106  0.00  0.00    +0.000 A 
ATOM      7  C   UNL     1      43.722   6.086  12.009  0.00  0.00    +0.000 A 
ATOM      9  C   UNL     1      43.615   4.835  12.624  0.00  0.00    +0.000 A 
ATOM     10  N   UNL     1      44.579   4.251  13.378  0.00  0.00    +0.000 NA
ENDROOT
BRANCH   4   2
ATOM      1  N   UNL     1      47.284   5.063  15.365  0.00  0.00    +0.000 N 
ATOM      2  C   UNL     1      46.825   4.319  14.315  0.00  0.00    +0.000 C 
ATOM      3  O   UNL     1      47.267   3.199  14.081  0.00  0.00    +0.000 OA
ATOM     11  H   UNL     1      47.957   4.654  15.998  0.00  0.00    +0.000 HD
ATOM     12  H   UNL     1      46.820   5.933  15.601  0.00  0.00    +0.000 HD
ENDBRANCH   4   2
BRANCH   7   8
ATOM      8  N   UNL     1      42.741   6.567  11.136  0.00  0.00    +0.000 N 
ATOM     13  H   UNL     1      42.691   6.069  10.251  0.00  0.00    +0.000 HD
ATOM     14  H   UNL     1      42.748   7.574  11.007  0.00  0.00    +0.000 HD
ENDBRANCH   7   8
TORSDOF 2
ENDMDL
MODEL 7
REMARK VINA RESULT:    -4.800      2.257      5.067
REMARK INTER + INTRA:          -5.271
REMARK INTER:                  -5.226
REMARK INTRA:                  -0.045
REMARK UNBOUND:                -0.050
REMARK  Name = 
REMARK  2 active torsions:
REMARK  status: ('A' for Active; 'I' for Inactive)
REMARK    1  A    between atoms: C_2  and  C_4
REMARK    2  A    between atoms: C_7  and  N_8
REMARK                            x       y       z     vdW  Elec       q    Type
REMARK                         _______ _______ _______ _____ _____    ______ ____
ROOT
ATOM      4  C   UNL     1      44.563   3.475   9.899  0.00  0.00    +0.000 A 
ATOM      5  C   UNL     1      44.860   4.817  10.087  0.00  0.00    +0.000 A 
ATOM      6  C   UNL     1      44.278   5.480  11.166  0.00  0.00    +0.000 A 
ATOM      7  C   UNL     1      43.453   4.788  12.051  0.00  0.00    +0.000 A 
ATOM      9  C   UNL     1      43.175   3.454  11.735  0.00  0.00    +0.000 A 
ATOM     10  N   UNL     1      43.717   2.767  10.699  0.00  0.00    +0.000 NA
ENDROOT
BRANCH   4   2
ATOM      1  N   UNL     1      45.447   3.487   7.637  0.00  0.00    +0.000 N 
ATOM      2  C   UNL     1      45.171   2.738   8.747  0.00  0.00    +0.000 C 
ATOM      3  O   UNL     1      45.424   1.539   8.790  0.00  0.00    +0.000 OA
ATOM     11  H   UNL     1      45.928   3.055   6.862  0.00  0.00    +0.000 HD
ATOM     12  H   UNL     1      45.333   4.494   7.673  0.00  0.00    +0.000 HD
ENDBRANCH   4   2
BRANCH   7   8
ATOM      8  N   UNL     1      42.756   5.471  13.052  0.00  0.00    +0.000 N 
ATOM     13  H   UNL     1      41.757   5.553  12.883  0.00  0.00    +0.000 HD
ATOM     14  H   UNL     1      43.170   6.358  13.324  0.00  0.00    +0.000 HD
ENDBRANCH   7   8
TORSDOF 2
ENDMDL
MODEL 8
REMARK VINA RESULT:    -4.793      2.429      3.602
REMARK INTER + INTRA:          -5.263
REMARK INTER:                  -5.225
REMARK INTRA:                  -0.038
REMARK UNBOUND:                -0.050
REMARK  Name = 
REMARK  2 active torsions:
REMARK  status: ('A' for Active; 'I' for Inactive)
REMARK    1  A    between atoms: C_2  and  C_4
REMARK    2  A    between atoms: C_7  and  N_8
REMARK                            x       y       z     vdW  Elec       q    Type
REMARK                         _______ _______ _______ _____ _____    ______ ____
ROOT
ATOM      4  C   UNL     1      44.019   4.208  11.280  0.00  0.00    +0.000 A 
ATOM      5  C   UNL     1      44.844   5.214  10.799  0.00  0.00    +0.000 A 
ATOM      6  C   UNL     1      45.420   5.052   9.539  0.00  0.00    +0.000 A 
ATOM      7  C   UNL     1      45.132   3.921   8.777  0.00  0.00    +0.000 A 
ATOM      9  C   UNL     1      44.335   2.944   9.382  0.00  0.00    +0.000 A 
ATOM     10  N   UNL     1      43.751   3.057  10.601  0.00  0.00    +0.000 NA
ENDROOT
BRANCH   4   2
ATOM      1  N   UNL     1      42.671   5.498  12.836  0.00  0.00    +0.000 N 
ATOM      2  C   UNL     1      43.389   4.353  12.630  0.00  0.00    +0.000 C 
ATOM      3  O   UNL     1      43.491   3.495  13.501  0.00  0.00    +0.000 OA
ATOM     11  H   UNL     1      42.163   5.608  13.701  0.00  0.00    +0.000 HD
ATOM     12  H   UNL     1      42.510   6.131  12.061  0.00  0.00    +0.000 HD
ENDBRANCH   4   2
BRANCH   7   8
ATOM      8  N   UNL     1      45.810   3.683   7.577  0.00  0.00    +0.000 N 
ATOM     13  H   UNL     1      46.117   4.525   7.099  0.00  0.00    +0.000 HD
ATOM     14  H   UNL     1      45.341   3.037   6.949  0.00  0.00    +0.000 HD
ENDBRANCH   7   8
TORSDOF 2
ENDMDL
MODEL 9
REMARK VINA RESULT:    -4.681      3.700      5.313
REMARK INTER + INTRA:          -5.141
REMARK INTER:                  -5.106
REMARK INTRA:                  -0.035
REMARK UNBOUND:                -0.050
REMARK  Name = 
REMARK  2 active torsions:
REMARK  status: ('A' for Active; 'I' for Inactive)
REMARK    1  A    between atoms: C_2  and  C_4
REMARK    2  A    between atoms: C_7  and  N_8
REMARK                            x       y       z     vdW  Elec       q    Type
REMARK                         _______ _______ _______ _____ _____    ______ ____
ROOT
ATOM      4  C   UNL     1      44.904   3.984  11.702  0.00  0.00    +0.000 A 
ATOM      5  C   UNL     1      45.210   5.153  11.020  0.00  0.00    +0.000 A 
ATOM      6  C   UNL     1      45.950   6.132  11.683  0.00  0.00    +0.000 A 
ATOM      7  C   UNL     1      46.401   5.908  12.983  0.00  0.00    +0.000 A 
ATOM      9  C   UNL     1      45.987   4.721  13.594  0.00  0.00    +0.000 A 
ATOM     10  N   UNL     1      45.269   3.741  12.991  0.00  0.00    +0.000 NA
ENDROOT
BRANCH   4   2
ATOM      1  N   UNL     1      44.708   2.316   9.947  0.00  0.00    +0.000 N 
ATOM      2  C   UNL     1      44.107   2.918  11.017  0.00  0.00    +0.000 C 
ATOM      3  O   UNL     1      42.988   2.586  11.394  0.00  0.00    +0.000 OA
ATOM     11  H   UNL     1      44.246   1.539   9.499  0.00  0.00    +0.000 HD
ATOM     12  H   UNL     1      45.675   2.531   9.732  0.00  0.00    +0.000 HD
ENDBRANCH   4   2
BRANCH   7   8
ATOM      8  N   UNL     1      47.023   6.933  13.703  0.00  0.00    +0.000 N 
ATOM     13  H   UNL     1      47.048   6.780  14.708  0.00  0.00    +0.000 HD
ATOM     14  H   UNL     1      46.703   7.868  13.468  0.00  0.00    +0.000 HD
ENDBRANCH   7   8
TORSDOF 2
ENDMDL
