MODEL 1
REMARK VINA RESULT:    -8.324      0.000      0.000
REMARK INTER + INTRA:         -10.833
REMARK INTER:                 -10.513
REMARK INTRA:                  -0.319
REMARK UNBOUND:                -0.319
REMARK  Name = 
REMARK  5 active torsions:
REMARK  status: ('A' for Active; 'I' for Inactive)
REMARK    1  A    between atoms: N_1  and  C_2
REMARK    2  A    between atoms: C_2  and  C_3
REMARK    3  A    between atoms: C_6  and  C_7
REMARK    4  A    between atoms: C_7  and  N_8
REMARK    5  A    between atoms: C_13  and  C_14
REMARK                            x       y       z     vdW  Elec       q    Type
REMARK                         _______ _______ _______ _____ _____    ______ ____
ROOT
ATOM      8  N   UNL     1      43.943   3.876  11.085  0.00  0.00    +0.000 N 
ATOM      9  C   UNL     1      43.427   5.070  10.620  0.00  0.00    +0.000 A 
ATOM     10  C   UNL     1      43.519   5.938  11.669  0.00  0.00    +0.000 A 
ATOM     11  C   UNL     1      44.772   5.600  12.227  0.00  0.00    +0.000 A 
ATOM     12  C   UNL     1      45.825   6.270  12.866  0.00  0.00    +0.000 A 
ATOM     13  C   UNL     1      46.887   5.530  13.417  0.00  0.00    +0.000 A 
ATOM     17  C   UNL     1      46.751   4.139  13.513  0.00  0.00    +0.000 A 
ATOM     18  C   UNL     1      45.716   3.445  12.864  0.00  0.00    +0.000 A 
ATOM     19  C   UNL     1      44.825   4.207  12.105  0.00  0.00    +0.000 A 
ENDROOT
BRANCH  13  14
ATOM     14  C   UNL     1      48.104   6.287  13.785  0.00  0.00    +0.000 C 
ATOM     15  N   UNL     1      48.219   6.758  15.104  0.00  0.00    +0.000 N 
ATOM     16  O   UNL     1      49.035   6.468  13.035  0.00  0.00    +0.000 OA
ATOM     24  H   UNL     1      47.548   6.604  15.826  0.00  0.00    +0.000 HD
ATOM     25  H   UNL     1      49.101   7.173  15.340  0.00  0.00    +0.000 HD
ENDBRANCH  13  14
BRANCH   8   7
ATOM      7  C   UNL     1      44.004   2.692  10.243  0.00  0.00    +0.000 C 
BRANCH   7   6
ATOM      3  C   UNL     1      46.656   2.740   6.838  0.00  0.00    +0.000 A 
ATOM      4  C   UNL     1      46.517   1.557   7.589  0.00  0.00    +0.000 A 
ATOM      5  C   UNL     1      45.706   1.551   8.744  0.00  0.00    +0.000 A 
ATOM      6  C   UNL     1      45.021   2.698   9.152  0.00  0.00    +0.000 A 
ATOM     20  C   UNL     1      45.183   3.884   8.394  0.00  0.00    +0.000 A 
ATOM     21  C   UNL     1      45.991   3.899   7.258  0.00  0.00    +0.000 A 
BRANCH   3   2
ATOM      2  C   UNL     1      47.518   2.781   5.603  0.00  0.00    +0.000 C 
BRANCH   2   1
ATOM      1  N   UNL     1      48.600   1.804   5.654  0.00  0.00    +0.000 NA
ATOM     22  H   UNL     1      48.223   0.884   5.437  0.00  0.00    +0.000 HD
ATOM     23  H   UNL     1      48.953   1.752   6.609  0.00  0.00    +0.000 HD
ENDBRANCH   2   1
ENDBRANCH   3   2
ENDBRANCH   7   6
ENDBRANCH   8   7
TORSDOF 5
ENDMDL
MODEL 2
REMARK VINA RESULT:    -8.016      2.125      6.373
REMARK INTER + INTRA:         -10.444
REMARK INTER:                  -9.694
REMARK INTRA:                  -0.750
REMARK UNBOUND:                -0.319
REMARK  Name = 
REMARK  5 active torsions:
REMARK  status: ('A' for Active; 'I' for Inactive)
REMARK    1  A    between atoms: N_1  and  C_2
REMARK    2  A    between atoms: C_2  and  C_3
REMARK    3  A    between atoms: C_6  and  C_7
REMARK    4  A    between atoms: C_7  and  N_8
REMARK    5  A    between atoms: C_13  and  C_14
REMARK                            x       y       z     vdW  Elec       q    Type
REMARK                         _______ _______ _______ _____ _____    ______ ____
ROOT
ATOM      8  N   UNL     1      44.171   4.287  10.719  0.00  0.00    +0.000 N 
ATOM      9  C   UNL     1      43.979   3.139  11.462  0.00  0.00    +0.000 A 
ATOM     10  C   UNL     1      43.844   2.133  10.549  0.00  0.00    +0.000 A 
ATOM     11  C   UNL     1      44.808   2.483   9.577  0.00  0.00    +0.000 A 
ATOM     12  C   UNL     1      45.683   1.810   8.712  0.00  0.00    +0.000 A 
ATOM     13  C   UNL     1      46.418   2.542   7.761  0.00  0.00    +0.000 A 
ATOM     17  C   UNL     1      46.087   3.886   7.553  0.00  0.00    +0.000 A 
ATOM     18  C   UNL     1      45.230   4.586   8.420  0.00  0.00    +0.000 A 
ATOM     19  C   UNL     1      44.723   3.878   9.512  0.00  0.00    +0.000 A 
ENDROOT
BRANCH  13  14
ATOM     14  C   UNL     1      47.543   1.837   7.106  0.00  0.00    +0.000 C 
ATOM     15  N   UNL     1      48.498   2.607   6.420  0.00  0.00    +0.000 N 
ATOM     16  O   UNL     1      47.724   0.644   7.182  0.00  0.00    +0.000 OA
ATOM     24  H   UNL     1      48.490   3.602   6.356  0.00  0.00    +0.000 HD
ATOM     25  H   UNL     1      49.297   2.103   6.082  0.00  0.00    +0.000 HD
ENDBRANCH  13  14
BRANCH   8   7
ATOM      7  C   UNL     1      44.345   5.585  11.350  0.00  0.00    +0.000 C 
BRANCH   7   6
ATOM      3  C   UNL     1      48.123   6.732  13.095  0.00  0.00    +0.000 A 
ATOM      4  C   UNL     1      47.812   7.145  11.786  0.00  0.00    +0.000 A 
ATOM      5  C   UNL     1      46.610   6.719  11.181  0.00  0.00    +0.000 A 
ATOM      6  C   UNL     1      45.709   5.900  11.867  0.00  0.00    +0.000 A 
ATOM     20  C   UNL     1      46.043   5.481  13.177  0.00  0.00    +0.000 A 
ATOM     21  C   UNL     1      47.233   5.891  13.776  0.00  0.00    +0.000 A 
BRANCH   3   2
ATOM      2  C   UNL     1      49.400   7.165  13.767  0.00  0.00    +0.000 C 
BRANCH   2   1
ATOM      1  N   UNL     1      49.546   6.588  15.098  0.00  0.00    +0.000 NA
ATOM     22  H   UNL     1      50.535   6.443  15.288  0.00  0.00    +0.000 HD
ATOM     23  H   UNL     1      49.114   5.665  15.106  0.00  0.00    +0.000 HD
ENDBRANCH   2   1
ENDBRANCH   3   2
ENDBRANCH   7   6
ENDBRANCH   8   7
TORSDOF 5
ENDMDL
MODEL 3
REMARK VINA RESULT:    -7.677      1.794      2.319
REMARK INTER + INTRA:         -10.016
REMARK INTER:                  -9.514
REMARK INTRA:                  -0.502
REMARK UNBOUND:                -0.319
REMARK  Name = 
REMARK  5 active torsions:
REMARK  status: ('A' for Active; 'I' for Inactive)
REMARK    1  A    between atoms: N_1  and  C_2
REMARK    2  A    between atoms: C_2  and  C_3
REMARK    3  A    between atoms: C_6  and  C_7
REMARK    4  A    between atoms: C_7  and  N_8
REMARK    5  A    between atoms: C_13  and  C_14
REMARK                            x       y       z     vdW  Elec       q    Type
REMARK                         _______ _______ _______ _____ _____    ______ ____
ROOT
ATOM      8  N   UNL     1      44.220   3.871  11.007  0.00  0.00    +0.000 N 
ATOM      9  C   UNL     1      43.438   3.584  12.109  0.00  0.00    +0.000 A 
ATOM     10  C   UNL     1      44.174   3.979  13.189  0.00  0.00    +0.000 A 
ATOM     11  C   UNL     1      44.760   5.179  12.728  0.00  0.00    +0.000 A 
ATOM     12  C   UNL     1      45.127   6.417  13.275  0.00  0.00    +0.000 A 
ATOM     13  C   UNL     1      45.834   7.342  12.486  0.00  0.00    +0.000 A 
ATOM     17  C   UNL     1      46.349   6.914  11.256  0.00  0.00    +0.000 A 
ATOM     18  C   UNL     1      45.977   5.687  10.679  0.00  0.00    +0.000 A 
ATOM     19  C   UNL     1      45.059   4.910  11.388  0.00  0.00    +0.000 A 
ENDROOT
BRANCH  13  14
ATOM     14  C   UNL     1      45.911   8.729  12.997  0.00  0.00    +0.000 C 
ATOM     15  N   UNL     1      46.741   8.983  14.103  0.00  0.00    +0.000 N 
ATOM     16  O   UNL     1      45.354   9.668  12.478  0.00  0.00    +0.000 OA
ATOM     24  H   UNL     1      47.303   8.300  14.563  0.00  0.00    +0.000 HD
ATOM     25  H   UNL     1      46.846   9.949  14.352  0.00  0.00    +0.000 HD
ENDBRANCH  13  14
BRANCH   8   7
ATOM      7  C   UNL     1      43.771   3.578   9.655  0.00  0.00    +0.000 C 
BRANCH   7   6
ATOM      3  C   UNL     1      47.034   2.295   7.140  0.00  0.00    +0.000 A 
ATOM      4  C   UNL     1      46.514   3.594   6.987  0.00  0.00    +0.000 A 
ATOM      5  C   UNL     1      45.402   3.999   7.757  0.00  0.00    +0.000 A 
ATOM      6  C   UNL     1      44.814   3.136   8.685  0.00  0.00    +0.000 A 
ATOM     20  C   UNL     1      45.340   1.828   8.816  0.00  0.00    +0.000 A 
ATOM     21  C   UNL     1      46.431   1.419   8.051  0.00  0.00    +0.000 A 
BRANCH   3   2
ATOM      2  C   UNL     1      48.217   1.830   6.330  0.00  0.00    +0.000 C 
BRANCH   2   1
ATOM      1  N   UNL     1      48.270   2.465   5.018  0.00  0.00    +0.000 NA
ATOM     22  H   UNL     1      47.982   3.438   5.111  0.00  0.00    +0.000 HD
ATOM     23  H   UNL     1      47.584   2.021   4.409  0.00  0.00    +0.000 HD
ENDBRANCH   2   1
ENDBRANCH   3   2
ENDBRANCH   7   6
ENDBRANCH   8   7
TORSDOF 5
ENDMDL
MODEL 4
REMARK VINA RESULT:    -7.310      1.661      2.602
REMARK INTER + INTRA:          -9.552
REMARK INTER:                  -8.923
REMARK INTRA:                  -0.629
REMARK UNBOUND:                -0.319
REMARK  Name = 
REMARK  5 active torsions:
REMARK  status: ('A' for Active; 'I' for Inactive)
REMARK    1  A    between atoms: N_1  and  C_2
REMARK    2  A    between atoms: C_2  and  C_3
REMARK    3  A    between atoms: C_6  and  C_7
REMARK    4  A    between atoms: C_7  and  N_8
REMARK    5  A    between atoms: C_13  and  C_14
REMARK                            x       y       z     vdW  Elec       q    Type
REMARK                         _______ _______ _______ _____ _____    ______ ____
ROOT
ATOM      8  N   UNL     1      45.525   4.741  11.827  0.00  0.00    +0.000 N 
ATOM      9  C   UNL     1      45.150   4.228  13.053  0.00  0.00    +0.000 A 
ATOM     10  C   UNL     1      46.216   4.446  13.879  0.00  0.00    +0.000 A 
ATOM     11  C   UNL     1      46.643   5.732  13.480  0.00  0.00    +0.000 A 
ATOM     12  C   UNL     1      47.204   6.863  14.092  0.00  0.00    +0.000 A 
ATOM     13  C   UNL     1      47.629   7.943  13.297  0.00  0.00    +0.000 A 
ATOM     17  C   UNL     1      47.691   7.766  11.910  0.00  0.00    +0.000 A 
ATOM     18  C   UNL     1      47.117   6.652  11.274  0.00  0.00    +0.000 A 
ATOM     19  C   UNL     1      46.470   5.724  12.091  0.00  0.00    +0.000 A 
ENDROOT
BRANCH  13  14
ATOM     14  C   UNL     1      47.908   9.215  14.001  0.00  0.00    +0.000 C 
ATOM     15  N   UNL     1      47.593   9.300  15.368  0.00  0.00    +0.000 N 
ATOM     16  O   UNL     1      48.452  10.163  13.484  0.00  0.00    +0.000 OA
ATOM     24  H   UNL     1      47.211   8.557  15.913  0.00  0.00    +0.000 HD
ATOM     25  H   UNL     1      47.893  10.138  15.830  0.00  0.00    +0.000 HD
ENDBRANCH  13  14
BRANCH   8   7
ATOM      7  C   UNL     1      44.642   4.683  10.673  0.00  0.00    +0.000 C 
BRANCH   7   6
ATOM      3  C   UNL     1      46.396   2.425   7.439  0.00  0.00    +0.000 A 
ATOM      4  C   UNL     1      46.430   3.831   7.398  0.00  0.00    +0.000 A 
ATOM      5  C   UNL     1      45.800   4.579   8.416  0.00  0.00    +0.000 A 
ATOM      6  C   UNL     1      45.150   3.946   9.479  0.00  0.00    +0.000 A 
ATOM     20  C   UNL     1      45.111   2.531   9.498  0.00  0.00    +0.000 A 
ATOM     21  C   UNL     1      45.724   1.788   8.490  0.00  0.00    +0.000 A 
BRANCH   3   2
ATOM      2  C   UNL     1      47.054   1.599   6.366  0.00  0.00    +0.000 C 
BRANCH   2   1
ATOM      1  N   UNL     1      48.492   1.831   6.296  0.00  0.00    +0.000 NA
ATOM     22  H   UNL     1      48.897   1.671   7.216  0.00  0.00    +0.000 HD
ATOM     23  H   UNL     1      48.657   2.813   6.077  0.00  0.00    +0.000 HD
ENDBRANCH   2   1
ENDBRANCH   3   2
ENDBRANCH   7   6
ENDBRANCH   8   7
TORSDOF 5
ENDMDL
MODEL 5
REMARK VINA RESULT:    -6.923      3.812      7.585
REMARK INTER + INTRA:          -9.063
REMARK INTER:                  -8.511
REMARK INTRA:                  -0.552
REMARK UNBOUND:                -0.319
REMARK  Name = 
REMARK  5 active torsions:
REMARK  status: ('A' for Active; 'I' for Inactive)
REMARK    1  A    between atoms: N_1  and  C_2
REMARK    2  A    between atoms: C_2  and  C_3
REMARK    3  A    between atoms: C_6  and  C_7
REMARK    4  A    between atoms: C_7  and  N_8
REMARK    5  A    between atoms: C_13  and  C_14
REMARK                            x       y       z     vdW  Elec       q    Type
REMARK                         _______ _______ _______ _____ _____    ______ ____
ROOT
ATOM      8  N   UNL     1      47.503   5.230  14.650  0.00  0.00    +0.000 N 
ATOM      9  C   UNL     1      47.852   6.542  14.396  0.00  0.00    +0.000 A 
ATOM     10  C   UNL     1      47.941   6.638  13.037  0.00  0.00    +0.000 A 
ATOM     11  C   UNL     1      46.850   5.847  12.611  0.00  0.00    +0.000 A 
ATOM     12  C   UNL     1      45.923   5.860  11.559  0.00  0.00    +0.000 A 
ATOM     13  C   UNL     1      45.037   4.779  11.400  0.00  0.00    +0.000 A 
ATOM     17  C   UNL     1      45.257   3.621  12.156  0.00  0.00    +0.000 A 
ATOM     18  C   UNL     1      46.165   3.592  13.228  0.00  0.00    +0.000 A 
ATOM     19  C   UNL     1      46.839   4.780  13.516  0.00  0.00    +0.000 A 
ENDROOT
BRANCH  13  14
ATOM     14  C   UNL     1      43.889   4.989  10.489  0.00  0.00    +0.000 C 
ATOM     15  N   UNL     1      43.969   4.460   9.189  0.00  0.00    +0.000 N 
ATOM     16  O   UNL     1      42.860   5.531  10.820  0.00  0.00    +0.000 OA
ATOM     24  H   UNL     1      44.736   3.932   8.834  0.00  0.00    +0.000 HD
ATOM     25  H   UNL     1      43.132   4.533   8.641  0.00  0.00    +0.000 HD
ENDBRANCH  13  14
BRANCH   8   7
ATOM      7  C   UNL     1      47.323   4.736  16.006  0.00  0.00    +0.000 C 
BRANCH   7   6
ATOM      3  C   UNL     1      50.732   2.459  17.355  0.00  0.00    +0.000 A 
ATOM      4  C   UNL     1      49.673   1.798  16.703  0.00  0.00    +0.000 A 
ATOM      5  C   UNL     1      48.524   2.522  16.320  0.00  0.00    +0.000 A 
ATOM      6  C   UNL     1      48.422   3.894  16.562  0.00  0.00    +0.000 A 
ATOM     20  C   UNL     1      49.489   4.542  17.231  0.00  0.00    +0.000 A 
ATOM     21  C   UNL     1      50.622   3.829  17.621  0.00  0.00    +0.000 A 
BRANCH   3   2
ATOM      2  C   UNL     1      51.970   1.713  17.781  0.00  0.00    +0.000 C 
BRANCH   2   1
ATOM      1  N   UNL     1      51.690   0.318  18.099  0.00  0.00    +0.000 NA
ATOM     22  H   UNL     1      51.444  -0.173  17.241  0.00  0.00    +0.000 HD
ATOM     23  H   UNL     1      50.868   0.274  18.700  0.00  0.00    +0.000 HD
ENDBRANCH   2   1
ENDBRANCH   3   2
ENDBRANCH   7   6
ENDBRANCH   8   7
TORSDOF 5
ENDMDL
MODEL 6
REMARK VINA RESULT:    -6.754      2.873      6.461
REMARK INTER + INTRA:          -8.850
REMARK INTER:                  -8.524
REMARK INTRA:                  -0.326
REMARK UNBOUND:                -0.319
REMARK  Name = 
REMARK  5 active torsions:
REMARK  status: ('A' for Active; 'I' for Inactive)
REMARK    1  A    between atoms: N_1  and  C_2
REMARK    2  A    between atoms: C_2  and  C_3
REMARK    3  A    between atoms: C_6  and  C_7
REMARK    4  A    between atoms: C_7  and  N_8
REMARK    5  A    between atoms: C_13  and  C_14
REMARK                            x       y       z     vdW  Elec       q    Type
REMARK                         _______ _______ _______ _____ _____    ______ ____
ROOT
ATOM      8  N   UNL     1      44.687   4.528  12.141  0.00  0.00    +0.000 N 
ATOM      9  C   UNL     1      44.064   3.346  12.492  0.00  0.00    +0.000 A 
ATOM     10  C   UNL     1      43.419   2.927  11.364  0.00  0.00    +0.000 A 
ATOM     11  C   UNL     1      44.354   3.242  10.353  0.00  0.00    +0.000 A 
ATOM     12  C   UNL     1      44.761   2.696   9.127  0.00  0.00    +0.000 A 
ATOM     13  C   UNL     1      45.664   3.407   8.316  0.00  0.00    +0.000 A 
ATOM     17  C   UNL     1      45.954   4.736   8.648  0.00  0.00    +0.000 A 
ATOM     18  C   UNL     1      45.575   5.297   9.880  0.00  0.00    +0.000 A 
ATOM     19  C   UNL     1      44.897   4.462  10.770  0.00  0.00    +0.000 A 
ENDROOT
BRANCH  13  14
ATOM     14  C   UNL     1      46.297   2.655   7.209  0.00  0.00    +0.000 C 
ATOM     15  N   UNL     1      46.808   1.375   7.484  0.00  0.00    +0.000 N 
ATOM     16  O   UNL     1      46.341   3.050   6.067  0.00  0.00    +0.000 OA
ATOM     24  H   UNL     1      46.760   0.920   8.370  0.00  0.00    +0.000 HD
ATOM     25  H   UNL     1      47.133   0.858   6.688  0.00  0.00    +0.000 HD
ENDBRANCH  13  14
BRANCH   8   7
ATOM      7  C   UNL     1      45.475   5.288  13.098  0.00  0.00    +0.000 C 
BRANCH   7   6
ATOM      3  C   UNL     1      46.945   9.244  12.191  0.00  0.00    +0.000 A 
ATOM      4  C   UNL     1      45.564   9.046  12.376  0.00  0.00    +0.000 A 
ATOM      5  C   UNL     1      45.066   7.745  12.605  0.00  0.00    +0.000 A 
ATOM      6  C   UNL     1      45.924   6.644  12.666  0.00  0.00    +0.000 A 
ATOM     20  C   UNL     1      47.309   6.858  12.463  0.00  0.00    +0.000 A 
ATOM     21  C   UNL     1      47.805   8.139  12.227  0.00  0.00    +0.000 A 
BRANCH   3   2
ATOM      2  C   UNL     1      47.507  10.619  11.939  0.00  0.00    +0.000 C 
BRANCH   2   1
ATOM      1  N   UNL     1      48.678  10.585  11.071  0.00  0.00    +0.000 NA
ATOM     22  H   UNL     1      48.510   9.922  10.316  0.00  0.00    +0.000 HD
ATOM     23  H   UNL     1      49.470  10.222  11.600  0.00  0.00    +0.000 HD
ENDBRANCH   2   1
ENDBRANCH   3   2
ENDBRANCH   7   6
ENDBRANCH   8   7
TORSDOF 5
ENDMDL
MODEL 7
REMARK VINA RESULT:    -5.991      4.556      8.362
REMARK INTER + INTRA:          -7.886
REMARK INTER:                  -7.137
REMARK INTRA:                  -0.749
REMARK UNBOUND:                -0.319
REMARK  Name = 
REMARK  5 active torsions:
REMARK  status: ('A' for Active; 'I' for Inactive)
REMARK    1  A    between atoms: N_1  and  C_2
REMARK    2  A    between atoms: C_2  and  C_3
REMARK    3  A    between atoms: C_6  and  C_7
REMARK    4  A    between atoms: C_7  and  N_8
REMARK    5  A    between atoms: C_13  and  C_14
REMARK                            x       y       z     vdW  Elec       q    Type
REMARK                         _______ _______ _______ _____ _____    ______ ____
ROOT
ATOM      8  N   UNL     1      48.340   7.510  14.050  0.00  0.00    +0.000 N 
ATOM      9  C   UNL     1      47.721   8.743  14.012  0.00  0.00    +0.000 A 
ATOM     10  C   UNL     1      46.830   8.671  12.979  0.00  0.00    +0.000 A 
ATOM     11  C   UNL     1      46.323   7.359  13.115  0.00  0.00    +0.000 A 
ATOM     12  C   UNL     1      45.099   6.706  12.910  0.00  0.00    +0.000 A 
ATOM     13  C   UNL     1      45.029   5.307  13.036  0.00  0.00    +0.000 A 
ATOM     17  C   UNL     1      46.225   4.586  13.139  0.00  0.00    +0.000 A 
ATOM     18  C   UNL     1      47.459   5.218  13.366  0.00  0.00    +0.000 A 
ATOM     19  C   UNL     1      47.441   6.608  13.494  0.00  0.00    +0.000 A 
ENDROOT
BRANCH  13  14
ATOM     14  C   UNL     1      43.675   4.716  13.126  0.00  0.00    +0.000 C 
ATOM     15  N   UNL     1      42.567   5.567  12.968  0.00  0.00    +0.000 N 
ATOM     16  O   UNL     1      43.466   3.532  13.262  0.00  0.00    +0.000 OA
ATOM     24  H   UNL     1      42.622   6.544  12.778  0.00  0.00    +0.000 HD
ATOM     25  H   UNL     1      41.674   5.112  12.931  0.00  0.00    +0.000 HD
ENDBRANCH  13  14
BRANCH   8   7
ATOM      7  C   UNL     1      49.374   7.204  15.025  0.00  0.00    +0.000 C 
BRANCH   7   6
ATOM      3  C   UNL     1      48.376   5.805  18.984  0.00  0.00    +0.000 A 
ATOM      4  C   UNL     1      48.662   4.870  17.972  0.00  0.00    +0.000 A 
ATOM      5  C   UNL     1      48.922   5.314  16.658  0.00  0.00    +0.000 A 
ATOM      6  C   UNL     1      48.916   6.675  16.343  0.00  0.00    +0.000 A 
ATOM     20  C   UNL     1      48.613   7.603  17.369  0.00  0.00    +0.000 A 
ATOM     21  C   UNL     1      48.346   7.169  18.666  0.00  0.00    +0.000 A 
BRANCH   3   2
ATOM      2  C   UNL     1      48.090   5.362  20.395  0.00  0.00    +0.000 C 
BRANCH   2   1
ATOM      1  N   UNL     1      48.317   3.934  20.582  0.00  0.00    +0.000 NA
ATOM     22  H   UNL     1      47.448   3.436  20.402  0.00  0.00    +0.000 HD
ATOM     23  H   UNL     1      48.550   3.762  21.559  0.00  0.00    +0.000 HD
ENDBRANCH   2   1
ENDBRANCH   3   2
ENDBRANCH   7   6
ENDBRANCH   8   7
TORSDOF 5
ENDMDL
MODEL 8
REMARK VINA RESULT:    -5.935      2.991      6.635
REMARK INTER + INTRA:          -7.815
REMARK INTER:                  -7.343
REMARK INTRA:                  -0.472
REMARK UNBOUND:                -0.319
REMARK  Name = 
REMARK  5 active torsions:
REMARK  status: ('A' for Active; 'I' for Inactive)
REMARK    1  A    between atoms: N_1  and  C_2
REMARK    2  A    between atoms: C_2  and  C_3
REMARK    3  A    between atoms: C_6  and  C_7
REMARK    4  A    between atoms: C_7  and  N_8
REMARK    5  A    between atoms: C_13  and  C_14
REMARK                            x       y       z     vdW  Elec       q    Type
REMARK                         _______ _______ _______ _____ _____    ______ ____
ROOT
ATOM      8  N   UNL     1      45.755   6.300  13.051  0.00  0.00    +0.000 N 
ATOM      9  C   UNL     1      46.688   5.464  13.632  0.00  0.00    +0.000 A 
ATOM     10  C   UNL     1      46.133   4.217  13.590  0.00  0.00    +0.000 A 
ATOM     11  C   UNL     1      45.514   4.210  12.320  0.00  0.00    +0.000 A 
ATOM     12  C   UNL     1      45.263   3.274  11.306  0.00  0.00    +0.000 A 
ATOM     13  C   UNL     1      44.467   3.639  10.206  0.00  0.00    +0.000 A 
ATOM     17  C   UNL     1      43.762   4.847  10.264  0.00  0.00    +0.000 A 
ATOM     18  C   UNL     1      44.012   5.809  11.258  0.00  0.00    +0.000 A 
ATOM     19  C   UNL     1      45.008   5.508  12.190  0.00  0.00    +0.000 A 
ENDROOT
BRANCH  13  14
ATOM     14  C   UNL     1      44.501   2.737   9.032  0.00  0.00    +0.000 C 
ATOM     15  N   UNL     1      44.504   3.315   7.751  0.00  0.00    +0.000 N 
ATOM     16  O   UNL     1      44.595   1.534   9.113  0.00  0.00    +0.000 OA
ATOM     24  H   UNL     1      44.505   4.295   7.567  0.00  0.00    +0.000 HD
ATOM     25  H   UNL     1      44.634   2.676   6.989  0.00  0.00    +0.000 HD
ENDBRANCH  13  14
BRANCH   8   7
ATOM      7  C   UNL     1      45.987   7.730  12.923  0.00  0.00    +0.000 C 
BRANCH   7   6
ATOM      3  C   UNL     1      50.195   8.633  12.592  0.00  0.00    +0.000 A 
ATOM      4  C   UNL     1      49.477   9.086  13.715  0.00  0.00    +0.000 A 
ATOM      5  C   UNL     1      48.087   8.856  13.800  0.00  0.00    +0.000 A 
ATOM      6  C   UNL     1      47.407   8.168  12.791  0.00  0.00    +0.000 A 
ATOM     20  C   UNL     1      48.141   7.732  11.661  0.00  0.00    +0.000 A 
ATOM     21  C   UNL     1      49.511   7.965  11.568  0.00  0.00    +0.000 A 
BRANCH   3   2
ATOM      2  C   UNL     1      51.678   8.867  12.470  0.00  0.00    +0.000 C 
BRANCH   2   1
ATOM      1  N   UNL     1      52.356   7.765  11.799  0.00  0.00    +0.000 NA
ATOM     22  H   UNL     1      53.211   8.115  11.371  0.00  0.00    +0.000 HD
ATOM     23  H   UNL     1      51.769   7.432  11.035  0.00  0.00    +0.000 HD
ENDBRANCH   2   1
ENDBRANCH   3   2
ENDBRANCH   7   6
ENDBRANCH   8   7
TORSDOF 5
ENDMDL
