MODEL 1
REMARK VINA RESULT:    -6.849      0.000      0.000
REMARK INTER + INTRA:         -13.232
REMARK INTER:                 -11.653
REMARK INTRA:                  -1.579
REMARK UNBOUND:                -1.579
REMARK  Name = 
REMARK  13 active torsions:
REMARK  status: ('A' for Active; 'I' for Inactive)
REMARK    1  A    between atoms: C_1  and  C_2
REMARK    2  A    between atoms: C_2  and  C_3
REMARK    3  A    between atoms: C_3  and  C_4
REMARK    4  A    between atoms: C_4  and  C_5
REMARK    5  A    between atoms: C_5  and  C_6
REMARK    6  A    between atoms: C_6  and  C_7
REMARK    7  A    between atoms: C_7  and  C_8
REMARK    8  A    between atoms: C_8  and  N_9
REMARK    9  A    between atoms: N_9  and  C_10
REMARK   10  A    between atoms: C_10  and  C_11
REMARK   11  A    between atoms: C_14  and  C_15
REMARK   12  A    between atoms: C_15  and  N_16
REMARK   13  A    between atoms: C_17  and  C_19
REMARK                            x       y       z     vdW  Elec       q    Type
REMARK                         _______ _______ _______ _____ _____    ______ ____
ROOT
ATOM     11  C   UNL     1      44.560   5.966  12.103  0.00  0.00    +0.000 A 
ATOM     12  C   UNL     1      45.177   5.245  13.134  0.00  0.00    +0.000 A 
ATOM     13  C   UNL     1      46.390   5.671  13.673  0.00  0.00    +0.000 A 
ATOM     14  C   UNL     1      47.014   6.829  13.194  0.00  0.00    +0.000 A 
ATOM     29  C   UNL     1      46.417   7.525  12.133  0.00  0.00    +0.000 A 
ATOM     30  C   UNL     1      45.181   7.123  11.620  0.00  0.00    +0.000 A 
ENDROOT
BRANCH  11  10
ATOM     10  C   UNL     1      43.284   5.453  11.487  0.00  0.00    +0.000 C 
BRANCH  10   9
ATOM      9  N   UNL     1      43.501   4.998  10.119  0.00  0.00    +0.000 NA
ATOM     31  H   UNL     1      42.669   5.180   9.563  0.00  0.00    +0.000 HD
BRANCH   9   8
ATOM      8  C   UNL     1      43.787   3.572  10.101  0.00  0.00    +0.000 C 
BRANCH   8   7
ATOM      7  C   UNL     1      44.817   3.292   9.017  0.00  0.00    +0.000 C 
BRANCH   7   6
ATOM      6  C   UNL     1      45.703   4.513   8.830  0.00  0.00    +0.000 C 
BRANCH   6   5
ATOM      5  C   UNL     1      46.610   4.331   7.625  0.00  0.00    +0.000 C 
BRANCH   5   4
ATOM      4  C   UNL     1      45.990   3.341   6.651  0.00  0.00    +0.000 C 
BRANCH   4   3
ATOM      3  C   UNL     1      47.077   2.535   5.960  0.00  0.00    +0.000 C 
BRANCH   3   2
ATOM      1  C   UNL     1      46.903   0.597   7.526  0.00  0.00    +0.000 C 
ATOM      2  C   UNL     1      47.822   1.667   6.966  0.00  0.00    +0.000 C 
ENDBRANCH   3   2
ENDBRANCH   4   3
ENDBRANCH   5   4
ENDBRANCH   6   5
ENDBRANCH   7   6
ENDBRANCH   8   7
ENDBRANCH   9   8
ENDBRANCH  10   9
ENDBRANCH  11  10
BRANCH  14  15
ATOM     15  C   UNL     1      48.274   7.345  13.845  0.00  0.00    +0.000 C 
BRANCH  15  16
ATOM     16  N   UNL     1      48.191   7.385  15.282  0.00  0.00    +0.000 N 
ATOM     17  C   UNL     1      49.179   6.850  16.079  0.00  0.00    +0.000 C 
ATOM     18  O   UNL     1      50.196   6.339  15.613  0.00  0.00    +0.000 OA
ATOM     32  H   UNL     1      47.301   7.648  15.688  0.00  0.00    +0.000 HD
BRANCH  17  19
ATOM     19  C   UNL     1      48.965   6.966  17.526  0.00  0.00    +0.000 A 
ATOM     20  C   UNL     1      48.876   8.216  18.121  0.00  0.00    +0.000 A 
ATOM     21  S   UNL     1      48.613   8.155  19.807  0.00  0.00    +0.000 S 
ATOM     22  C   UNL     1      48.644   6.453  19.806  0.00  0.00    +0.000 A 
ATOM     23  N   UNL     1      48.496   5.746  20.960  0.00  0.00    +0.000 NA
ATOM     24  C   UNL     1      48.531   4.466  20.804  0.00  0.00    +0.000 A 
ATOM     25  N   UNL     1      48.698   3.825  19.608  0.00  0.00    +0.000 N 
ATOM     26  C   UNL     1      48.859   4.496  18.416  0.00  0.00    +0.000 A 
ATOM     27  O   UNL     1      48.988   3.892  17.360  0.00  0.00    +0.000 OA
ATOM     28  C   UNL     1      48.825   5.940  18.532  0.00  0.00    +0.000 A 
ATOM     33  H   UNL     1      48.698   2.819  19.543  0.00  0.00    +0.000 HD
ENDBRANCH  17  19
ENDBRANCH  15  16
ENDBRANCH  14  15
TORSDOF 12
ENDMDL
MODEL 2
REMARK VINA RESULT:    -6.771      1.832      2.629
REMARK INTER + INTRA:         -13.101
REMARK INTER:                 -11.107
REMARK INTRA:                  -1.994
REMARK UNBOUND:                -1.579
REMARK  Name = 
REMARK  13 active torsions:
REMARK  status: ('A' for Active; 'I' for Inactive)
REMARK    1  A    between atoms: C_1  and  C_2
REMARK    2  A    between atoms: C_2  and  C_3
REMARK    3  A    between atoms: C_3  and  C_4
REMARK    4  A    between atoms: C_4  and  C_5
REMARK    5  A    between atoms: C_5  and  C_6
REMARK    6  A    between atoms: C_6  and  C_7
REMARK    7  A    between atoms: C_7  and  C_8
REMARK    8  A    between atoms: C_8  and  N_9
REMARK    9  A    between atoms: N_9  and  C_10
REMARK   10  A    between atoms: C_10  and  C_11
REMARK   11  A    between atoms: C_14  and  C_15
REMARK   12  A    between atoms: C_15  and  N_16
REMARK   13  A    between atoms: C_17  and  C_19
REMARK                            x       y       z     vdW  Elec       q    Type
REMARK                         _______ _______ _______ _____ _____    ______ ____
ROOT
ATOM     11  C   UNL     1      44.856   7.528  11.640  0.00  0.00    +0.000 A 
ATOM     12  C   UNL     1      45.818   6.607  11.206  0.00  0.00    +0.000 A 
ATOM     13  C   UNL     1      47.136   6.690  11.654  0.00  0.00    +0.000 A 
ATOM     14  C   UNL     1      47.522   7.696  12.547  0.00  0.00    +0.000 A 
ATOM     29  C   UNL     1      46.568   8.644  12.946  0.00  0.00    +0.000 A 
ATOM     30  C   UNL     1      45.237   8.537  12.531  0.00  0.00    +0.000 A 
ENDROOT
BRANCH  11  10
ATOM     10  C   UNL     1      43.454   7.464  11.093  0.00  0.00    +0.000 C 
BRANCH  10   9
ATOM      9  N   UNL     1      43.088   6.100  10.730  0.00  0.00    +0.000 NA
ATOM     31  H   UNL     1      42.519   6.113   9.886  0.00  0.00    +0.000 HD
BRANCH   9   8
ATOM      8  C   UNL     1      42.335   5.476  11.806  0.00  0.00    +0.000 C 
BRANCH   8   7
ATOM      7  C   UNL     1      43.208   4.417  12.464  0.00  0.00    +0.000 C 
BRANCH   7   6
ATOM      6  C   UNL     1      43.310   3.204  11.554  0.00  0.00    +0.000 C 
BRANCH   6   5
ATOM      5  C   UNL     1      44.714   3.082  10.987  0.00  0.00    +0.000 C 
BRANCH   5   4
ATOM      4  C   UNL     1      44.649   2.768   9.500  0.00  0.00    +0.000 C 
BRANCH   4   3
ATOM      3  C   UNL     1      45.166   3.947   8.692  0.00  0.00    +0.000 C 
BRANCH   3   2
ATOM      1  C   UNL     1      46.539   2.121   7.685  0.00  0.00    +0.000 C 
ATOM      2  C   UNL     1      45.881   3.466   7.437  0.00  0.00    +0.000 C 
ENDBRANCH   3   2
ENDBRANCH   4   3
ENDBRANCH   5   4
ENDBRANCH   6   5
ENDBRANCH   7   6
ENDBRANCH   8   7
ENDBRANCH   9   8
ENDBRANCH  10   9
ENDBRANCH  11  10
BRANCH  14  15
ATOM     15  C   UNL     1      48.922   7.725  13.109  0.00  0.00    +0.000 C 
BRANCH  15  16
ATOM     16  N   UNL     1      49.083   6.884  14.267  0.00  0.00    +0.000 N 
ATOM     17  C   UNL     1      49.012   7.393  15.546  0.00  0.00    +0.000 C 
ATOM     18  O   UNL     1      48.778   8.579  15.770  0.00  0.00    +0.000 OA
ATOM     32  H   UNL     1      49.436   5.947  14.114  0.00  0.00    +0.000 HD
BRANCH  17  19
ATOM     19  C   UNL     1      49.191   6.421  16.630  0.00  0.00    +0.000 A 
ATOM     20  C   UNL     1      50.106   6.666  17.644  0.00  0.00    +0.000 A 
ATOM     21  S   UNL     1      50.167   5.432  18.823  0.00  0.00    +0.000 S 
ATOM     22  C   UNL     1      48.998   4.509  17.999  0.00  0.00    +0.000 A 
ATOM     23  N   UNL     1      48.597   3.297  18.471  0.00  0.00    +0.000 NA
ATOM     24  C   UNL     1      47.699   2.718  17.748  0.00  0.00    +0.000 A 
ATOM     25  N   UNL     1      47.163   3.234  16.601  0.00  0.00    +0.000 N 
ATOM     26  C   UNL     1      47.541   4.451  16.080  0.00  0.00    +0.000 A 
ATOM     27  O   UNL     1      47.028   4.892  15.060  0.00  0.00    +0.000 OA
ATOM     28  C   UNL     1      48.548   5.148  16.855  0.00  0.00    +0.000 A 
ATOM     33  H   UNL     1      46.448   2.743  16.085  0.00  0.00    +0.000 HD
ENDBRANCH  17  19
ENDBRANCH  15  16
ENDBRANCH  14  15
TORSDOF 12
ENDMDL
MODEL 3
REMARK VINA RESULT:    -6.706      1.628      2.011
REMARK INTER + INTRA:         -12.989
REMARK INTER:                 -11.302
REMARK INTRA:                  -1.687
REMARK UNBOUND:                -1.579
REMARK  Name = 
REMARK  13 active torsions:
REMARK  status: ('A' for Active; 'I' for Inactive)
REMARK    1  A    between atoms: C_1  and  C_2
REMARK    2  A    between atoms: C_2  and  C_3
REMARK    3  A    between atoms: C_3  and  C_4
REMARK    4  A    between atoms: C_4  and  C_5
REMARK    5  A    between atoms: C_5  and  C_6
REMARK    6  A    between atoms: C_6  and  C_7
REMARK    7  A    between atoms: C_7  and  C_8
REMARK    8  A    between atoms: C_8  and  N_9
REMARK    9  A    between atoms: N_9  and  C_10
REMARK   10  A    between atoms: C_10  and  C_11
REMARK   11  A    between atoms: C_14  and  C_15
REMARK   12  A    between atoms: C_15  and  N_16
REMARK   13  A    between atoms: C_17  and  C_19
REMARK                            x       y       z     vdW  Elec       q    Type
REMARK                         _______ _______ _______ _____ _____    ______ ____
ROOT
ATOM     11  C   UNL     1      44.638   5.275  12.924  0.00  0.00    +0.000 A 
ATOM     12  C   UNL     1      44.822   6.590  12.476  0.00  0.00    +0.000 A 
ATOM     13  C   UNL     1      46.090   7.169  12.472  0.00  0.00    +0.000 A 
ATOM     14  C   UNL     1      47.204   6.447  12.915  0.00  0.00    +0.000 A 
ATOM     29  C   UNL     1      47.012   5.147  13.405  0.00  0.00    +0.000 A 
ATOM     30  C   UNL     1      45.748   4.550  13.370  0.00  0.00    +0.000 A 
ENDROOT
BRANCH  11  10
ATOM     10  C   UNL     1      43.251   4.689  12.985  0.00  0.00    +0.000 C 
BRANCH  10   9
ATOM      9  N   UNL     1      42.833   4.179  11.685  0.00  0.00    +0.000 NA
ATOM     31  H   UNL     1      41.817   4.185  11.626  0.00  0.00    +0.000 HD
BRANCH   9   8
ATOM      8  C   UNL     1      43.316   2.821  11.496  0.00  0.00    +0.000 C 
BRANCH   8   7
ATOM      7  C   UNL     1      44.182   2.777  10.246  0.00  0.00    +0.000 C 
BRANCH   7   6
ATOM      6  C   UNL     1      44.117   4.119   9.535  0.00  0.00    +0.000 C 
BRANCH   6   5
ATOM      5  C   UNL     1      45.400   4.375   8.764  0.00  0.00    +0.000 C 
BRANCH   5   4
ATOM      4  C   UNL     1      45.460   3.473   7.540  0.00  0.00    +0.000 C 
BRANCH   4   3
ATOM      3  C   UNL     1      46.843   3.533   6.913  0.00  0.00    +0.000 C 
BRANCH   3   2
ATOM      1  C   UNL     1      47.035   1.083   7.361  0.00  0.00    +0.000 C 
ATOM      2  C   UNL     1      47.226   2.179   6.329  0.00  0.00    +0.000 C 
ENDBRANCH   3   2
ENDBRANCH   4   3
ENDBRANCH   5   4
ENDBRANCH   6   5
ENDBRANCH   7   6
ENDBRANCH   8   7
ENDBRANCH   9   8
ENDBRANCH  10   9
ENDBRANCH  11  10
BRANCH  14  15
ATOM     15  C   UNL     1      48.588   7.038  12.817  0.00  0.00    +0.000 C 
BRANCH  15  16
ATOM     16  N   UNL     1      49.289   7.049  14.076  0.00  0.00    +0.000 N 
ATOM     17  C   UNL     1      48.994   7.969  15.059  0.00  0.00    +0.000 C 
ATOM     18  O   UNL     1      48.102   8.805  14.932  0.00  0.00    +0.000 OA
ATOM     32  H   UNL     1      50.128   6.487  14.144  0.00  0.00    +0.000 HD
BRANCH  17  19
ATOM     19  C   UNL     1      49.784   7.860  16.290  0.00  0.00    +0.000 A 
ATOM     20  C   UNL     1      50.502   8.950  16.758  0.00  0.00    +0.000 A 
ATOM     21  S   UNL     1      51.349   8.641  18.209  0.00  0.00    +0.000 S 
ATOM     22  C   UNL     1      50.813   7.026  18.243  0.00  0.00    +0.000 A 
ATOM     23  N   UNL     1      51.197   6.178  19.237  0.00  0.00    +0.000 NA
ATOM     24  C   UNL     1      50.704   4.990  19.137  0.00  0.00    +0.000 A 
ATOM     25  N   UNL     1      49.865   4.568  18.143  0.00  0.00    +0.000 N 
ATOM     26  C   UNL     1      49.455   5.386  17.114  0.00  0.00    +0.000 A 
ATOM     27  O   UNL     1      48.688   4.982  16.250  0.00  0.00    +0.000 OA
ATOM     28  C   UNL     1      49.977   6.737  17.177  0.00  0.00    +0.000 A 
ATOM     33  H   UNL     1      49.495   3.630  18.127  0.00  0.00    +0.000 HD
ENDBRANCH  17  19
ENDBRANCH  15  16
ENDBRANCH  14  15
TORSDOF 12
ENDMDL
MODEL 4
REMARK VINA RESULT:    -6.552      2.909      3.746
REMARK INTER + INTRA:         -12.727
REMARK INTER:                 -11.529
REMARK INTRA:                  -1.199
REMARK UNBOUND:                -1.579
REMARK  Name = 
REMARK  13 active torsions:
REMARK  status: ('A' for Active; 'I' for Inactive)
REMARK    1  A    between atoms: C_1  and  C_2
REMARK    2  A    between atoms: C_2  and  C_3
REMARK    3  A    between atoms: C_3  and  C_4
REMARK    4  A    between atoms: C_4  and  C_5
REMARK    5  A    between atoms: C_5  and  C_6
REMARK    6  A    between atoms: C_6  and  C_7
REMARK    7  A    between atoms: C_7  and  C_8
REMARK    8  A    between atoms: C_8  and  N_9
REMARK    9  A    between atoms: N_9  and  C_10
REMARK   10  A    between atoms: C_10  and  C_11
REMARK   11  A    between atoms: C_14  and  C_15
REMARK   12  A    between atoms: C_15  and  N_16
REMARK   13  A    between atoms: C_17  and  C_19
REMARK                            x       y       z     vdW  Elec       q    Type
REMARK                         _______ _______ _______ _____ _____    ______ ____
ROOT
ATOM     11  C   UNL     1      46.660   4.581  13.719  0.00  0.00    +0.000 A 
ATOM     12  C   UNL     1      47.237   5.799  13.334  0.00  0.00    +0.000 A 
ATOM     13  C   UNL     1      48.083   6.491  14.198  0.00  0.00    +0.000 A 
ATOM     14  C   UNL     1      48.373   5.982  15.469  0.00  0.00    +0.000 A 
ATOM     29  C   UNL     1      47.761   4.786  15.871  0.00  0.00    +0.000 A 
ATOM     30  C   UNL     1      46.946   4.069  14.990  0.00  0.00    +0.000 A 
ENDROOT
BRANCH  11  10
ATOM     10  C   UNL     1      45.695   3.881  12.798  0.00  0.00    +0.000 C 
BRANCH  10   9
ATOM      9  N   UNL     1      44.320   4.026  13.260  0.00  0.00    +0.000 NA
ATOM     31  H   UNL     1      44.115   3.307  13.951  0.00  0.00    +0.000 HD
BRANCH   9   8
ATOM      8  C   UNL     1      43.396   3.897  12.145  0.00  0.00    +0.000 C 
BRANCH   8   7
ATOM      7  C   UNL     1      44.139   3.300  10.960  0.00  0.00    +0.000 C 
BRANCH   7   6
ATOM      6  C   UNL     1      43.947   4.186   9.740  0.00  0.00    +0.000 C 
BRANCH   6   5
ATOM      5  C   UNL     1      45.274   4.418   9.037  0.00  0.00    +0.000 C 
BRANCH   5   4
ATOM      4  C   UNL     1      45.301   3.665   7.715  0.00  0.00    +0.000 C 
BRANCH   4   3
ATOM      3  C   UNL     1      46.726   3.575   7.193  0.00  0.00    +0.000 C 
BRANCH   3   2
ATOM      1  C   UNL     1      47.177   1.121   7.300  0.00  0.00    +0.000 C 
ATOM      2  C   UNL     1      46.920   2.301   6.381  0.00  0.00    +0.000 C 
ENDBRANCH   3   2
ENDBRANCH   4   3
ENDBRANCH   5   4
ENDBRANCH   6   5
ENDBRANCH   7   6
ENDBRANCH   8   7
ENDBRANCH   9   8
ENDBRANCH  10   9
ENDBRANCH  11  10
BRANCH  14  15
ATOM     15  C   UNL     1      49.366   6.680  16.365  0.00  0.00    +0.000 C 
BRANCH  15  16
ATOM     16  N   UNL     1      50.405   5.805  16.846  0.00  0.00    +0.000 N 
ATOM     17  C   UNL     1      50.456   5.400  18.162  0.00  0.00    +0.000 C 
ATOM     18  O   UNL     1      49.607   5.732  18.987  0.00  0.00    +0.000 OA
ATOM     32  H   UNL     1      51.199   5.650  16.238  0.00  0.00    +0.000 HD
BRANCH  17  19
ATOM     19  C   UNL     1      51.566   4.506  18.511  0.00  0.00    +0.000 A 
ATOM     20  C   UNL     1      52.604   4.961  19.311  0.00  0.00    +0.000 A 
ATOM     21  S   UNL     1      53.798   3.780  19.621  0.00  0.00    +0.000 S 
ATOM     22  C   UNL     1      52.986   2.628  18.666  0.00  0.00    +0.000 A 
ATOM     23  N   UNL     1      53.493   1.377  18.489  0.00  0.00    +0.000 NA
ATOM     24  C   UNL     1      52.765   0.611  17.749  0.00  0.00    +0.000 A 
ATOM     25  N   UNL     1      51.579   0.973  17.171  0.00  0.00    +0.000 N 
ATOM     26  C   UNL     1      51.030   2.228  17.316  0.00  0.00    +0.000 A 
ATOM     27  O   UNL     1      49.957   2.514  16.801  0.00  0.00    +0.000 OA
ATOM     28  C   UNL     1      51.807   3.131  18.141  0.00  0.00    +0.000 A 
ATOM     33  H   UNL     1      51.042   0.325  16.617  0.00  0.00    +0.000 HD
ENDBRANCH  17  19
ENDBRANCH  15  16
ENDBRANCH  14  15
TORSDOF 12
ENDMDL
MODEL 5
REMARK VINA RESULT:    -6.371      4.086      9.642
REMARK INTER + INTRA:         -12.420
REMARK INTER:                  -9.924
REMARK INTRA:                  -2.496
REMARK UNBOUND:                -1.579
REMARK  Name = 
REMARK  13 active torsions:
REMARK  status: ('A' for Active; 'I' for Inactive)
REMARK    1  A    between atoms: C_1  and  C_2
REMARK    2  A    between atoms: C_2  and  C_3
REMARK    3  A    between atoms: C_3  and  C_4
REMARK    4  A    between atoms: C_4  and  C_5
REMARK    5  A    between atoms: C_5  and  C_6
REMARK    6  A    between atoms: C_6  and  C_7
REMARK    7  A    between atoms: C_7  and  C_8
REMARK    8  A    between atoms: C_8  and  N_9
REMARK    9  A    between atoms: N_9  and  C_10
REMARK   10  A    between atoms: C_10  and  C_11
REMARK   11  A    between atoms: C_14  and  C_15
REMARK   12  A    between atoms: C_15  and  N_16
REMARK   13  A    between atoms: C_17  and  C_19
REMARK                            x       y       z     vdW  Elec       q    Type
REMARK                         _______ _______ _______ _____ _____    ______ ____
ROOT
ATOM     11  C   UNL     1      51.015   2.327  17.416  0.00  0.00    +0.000 A 
ATOM     12  C   UNL     1      49.617   2.318  17.331  0.00  0.00    +0.000 A 
ATOM     13  C   UNL     1      48.900   3.512  17.257  0.00  0.00    +0.000 A 
ATOM     14  C   UNL     1      49.566   4.743  17.267  0.00  0.00    +0.000 A 
ATOM     29  C   UNL     1      50.963   4.752  17.397  0.00  0.00    +0.000 A 
ATOM     30  C   UNL     1      51.685   3.555  17.428  0.00  0.00    +0.000 A 
ENDROOT
BRANCH  11  10
ATOM     10  C   UNL     1      51.767   1.030  17.563  0.00  0.00    +0.000 C 
BRANCH  10   9
ATOM      9  N   UNL     1      52.870   1.160  18.508  0.00  0.00    +0.000 NA
ATOM     31  H   UNL     1      52.923   2.120  18.841  0.00  0.00    +0.000 HD
BRANCH   9   8
ATOM      8  C   UNL     1      54.127   0.804  17.870  0.00  0.00    +0.000 C 
BRANCH   8   7
ATOM      7  C   UNL     1      55.158   1.877  18.183  0.00  0.00    +0.000 C 
BRANCH   7   6
ATOM      6  C   UNL     1      55.346   2.772  16.969  0.00  0.00    +0.000 C 
BRANCH   6   5
ATOM      5  C   UNL     1      55.354   4.234  17.381  0.00  0.00    +0.000 C 
BRANCH   5   4
ATOM      4  C   UNL     1      55.029   4.358  18.862  0.00  0.00    +0.000 C 
BRANCH   4   3
ATOM      3  C   UNL     1      54.232   5.627  19.118  0.00  0.00    +0.000 C 
BRANCH   3   2
ATOM      1  C   UNL     1      53.179   4.044  20.737  0.00  0.00    +0.000 C 
ATOM      2  C   UNL     1      53.426   5.503  20.405  0.00  0.00    +0.000 C 
ENDBRANCH   3   2
ENDBRANCH   4   3
ENDBRANCH   5   4
ENDBRANCH   6   5
ENDBRANCH   7   6
ENDBRANCH   8   7
ENDBRANCH   9   8
ENDBRANCH  10   9
ENDBRANCH  11  10
BRANCH  14  15
ATOM     15  C   UNL     1      48.799   6.029  17.086  0.00  0.00    +0.000 C 
BRANCH  15  16
ATOM     16  N   UNL     1      47.892   5.994  15.968  0.00  0.00    +0.000 N 
ATOM     17  C   UNL     1      48.296   6.340  14.697  0.00  0.00    +0.000 C 
ATOM     18  O   UNL     1      49.454   6.666  14.441  0.00  0.00    +0.000 OA
ATOM     32  H   UNL     1      46.906   5.890  16.175  0.00  0.00    +0.000 HD
BRANCH  17  19
ATOM     19  C   UNL     1      47.268   6.253  13.655  0.00  0.00    +0.000 A 
ATOM     20  C   UNL     1      46.841   7.398  12.997  0.00  0.00    +0.000 A 
ATOM     21  S   UNL     1      45.650   7.102  11.810  0.00  0.00    +0.000 S 
ATOM     22  C   UNL     1      45.638   5.435  12.157  0.00  0.00    +0.000 A 
ATOM     23  N   UNL     1      44.806   4.585  11.496  0.00  0.00    +0.000 NA
ATOM     24  C   UNL     1      44.915   3.351  11.858  0.00  0.00    +0.000 A 
ATOM     25  N   UNL     1      45.773   2.886  12.815  0.00  0.00    +0.000 N 
ATOM     26  C   UNL     1      46.627   3.709  13.516  0.00  0.00    +0.000 A 
ATOM     27  O   UNL     1      47.397   3.258  14.354  0.00  0.00    +0.000 OA
ATOM     28  C   UNL     1      46.550   5.108  13.147  0.00  0.00    +0.000 A 
ATOM     33  H   UNL     1      45.828   1.906  13.044  0.00  0.00    +0.000 HD
ENDBRANCH  17  19
ENDBRANCH  15  16
ENDBRANCH  14  15
TORSDOF 12
ENDMDL
MODEL 6
REMARK VINA RESULT:    -6.160      3.944     10.044
REMARK INTER + INTRA:         -12.060
REMARK INTER:                  -9.960
REMARK INTRA:                  -2.099
REMARK UNBOUND:                -1.579
REMARK  Name = 
REMARK  13 active torsions:
REMARK  status: ('A' for Active; 'I' for Inactive)
REMARK    1  A    between atoms: C_1  and  C_2
REMARK    2  A    between atoms: C_2  and  C_3
REMARK    3  A    between atoms: C_3  and  C_4
REMARK    4  A    between atoms: C_4  and  C_5
REMARK    5  A    between atoms: C_5  and  C_6
REMARK    6  A    between atoms: C_6  and  C_7
REMARK    7  A    between atoms: C_7  and  C_8
REMARK    8  A    between atoms: C_8  and  N_9
REMARK    9  A    between atoms: N_9  and  C_10
REMARK   10  A    between atoms: C_10  and  C_11
REMARK   11  A    between atoms: C_14  and  C_15
REMARK   12  A    between atoms: C_15  and  N_16
REMARK   13  A    between atoms: C_17  and  C_19
REMARK                            x       y       z     vdW  Elec       q    Type
REMARK                         _______ _______ _______ _____ _____    ______ ____
ROOT
ATOM     11  C   UNL     1      51.332   3.656  17.714  0.00  0.00    +0.000 A 
ATOM     12  C   UNL     1      50.560   4.823  17.646  0.00  0.00    +0.000 A 
ATOM     13  C   UNL     1      49.209   4.765  17.308  0.00  0.00    +0.000 A 
ATOM     14  C   UNL     1      48.598   3.536  17.031  0.00  0.00    +0.000 A 
ATOM     29  C   UNL     1      49.382   2.373  17.056  0.00  0.00    +0.000 A 
ATOM     30  C   UNL     1      50.726   2.426  17.435  0.00  0.00    +0.000 A 
ENDROOT
BRANCH  11  10
ATOM     10  C   UNL     1      52.806   3.746  18.015  0.00  0.00    +0.000 C 
BRANCH  10   9
ATOM      9  N   UNL     1      53.119   3.161  19.313  0.00  0.00    +0.000 NA
ATOM     31  H   UNL     1      52.411   2.472  19.557  0.00  0.00    +0.000 HD
BRANCH   9   8
ATOM      8  C   UNL     1      53.157   4.193  20.336  0.00  0.00    +0.000 C 
BRANCH   8   7
ATOM      7  C   UNL     1      53.497   5.523  19.679  0.00  0.00    +0.000 C 
BRANCH   7   6
ATOM      6  C   UNL     1      52.612   6.616  20.256  0.00  0.00    +0.000 C 
BRANCH   6   5
ATOM      5  C   UNL     1      51.523   6.014  21.128  0.00  0.00    +0.000 C 
BRANCH   5   4
ATOM      4  C   UNL     1      50.161   6.535  20.693  0.00  0.00    +0.000 C 
BRANCH   4   3
ATOM      3  C   UNL     1      49.085   5.506  21.001  0.00  0.00    +0.000 C 
BRANCH   3   2
ATOM      1  C   UNL     1      47.887   7.261  19.688  0.00  0.00    +0.000 C 
ATOM      2  C   UNL     1      47.762   5.907  20.363  0.00  0.00    +0.000 C 
ENDBRANCH   3   2
ENDBRANCH   4   3
ENDBRANCH   5   4
ENDBRANCH   6   5
ENDBRANCH   7   6
ENDBRANCH   8   7
ENDBRANCH   9   8
ENDBRANCH  10   9
ENDBRANCH  11  10
BRANCH  14  15
ATOM     15  C   UNL     1      47.115   3.462  16.763  0.00  0.00    +0.000 C 
BRANCH  15  16
ATOM     16  N   UNL     1      46.674   4.398  15.761  0.00  0.00    +0.000 N 
ATOM     17  C   UNL     1      46.802   4.130  14.416  0.00  0.00    +0.000 C 
ATOM     18  O   UNL     1      47.265   3.071  13.996  0.00  0.00    +0.000 OA
ATOM     32  H   UNL     1      46.443   5.334  16.071  0.00  0.00    +0.000 HD
BRANCH  17  19
ATOM     19  C   UNL     1      46.307   5.172  13.509  0.00  0.00    +0.000 A 
ATOM     20  C   UNL     1      47.101   6.268  13.204  0.00  0.00    +0.000 A 
ATOM     21  S   UNL     1      46.366   7.368  12.125  0.00  0.00    +0.000 S 
ATOM     22  C   UNL     1      44.944   6.434  12.053  0.00  0.00    +0.000 A 
ATOM     23  N   UNL     1      43.879   6.829  11.303  0.00  0.00    +0.000 NA
ATOM     24  C   UNL     1      42.877   6.017  11.338  0.00  0.00    +0.000 A 
ATOM     25  N   UNL     1      42.838   4.849  12.048  0.00  0.00    +0.000 N 
ATOM     26  C   UNL     1      43.886   4.411  12.826  0.00  0.00    +0.000 A 
ATOM     27  O   UNL     1      43.826   3.350  13.434  0.00  0.00    +0.000 OA
ATOM     28  C   UNL     1      45.042   5.286  12.821  0.00  0.00    +0.000 A 
ATOM     33  H   UNL     1      42.032   4.242  12.022  0.00  0.00    +0.000 HD
ENDBRANCH  17  19
ENDBRANCH  15  16
ENDBRANCH  14  15
TORSDOF 12
ENDMDL
MODEL 7
REMARK VINA RESULT:    -6.104      3.422      8.926
REMARK INTER + INTRA:         -11.965
REMARK INTER:                  -9.642
REMARK INTRA:                  -2.323
REMARK UNBOUND:                -1.579
REMARK  Name = 
REMARK  13 active torsions:
REMARK  status: ('A' for Active; 'I' for Inactive)
REMARK    1  A    between atoms: C_1  and  C_2
REMARK    2  A    between atoms: C_2  and  C_3
REMARK    3  A    between atoms: C_3  and  C_4
REMARK    4  A    between atoms: C_4  and  C_5
REMARK    5  A    between atoms: C_5  and  C_6
REMARK    6  A    between atoms: C_6  and  C_7
REMARK    7  A    between atoms: C_7  and  C_8
REMARK    8  A    between atoms: C_8  and  N_9
REMARK    9  A    between atoms: N_9  and  C_10
REMARK   10  A    between atoms: C_10  and  C_11
REMARK   11  A    between atoms: C_14  and  C_15
REMARK   12  A    between atoms: C_15  and  N_16
REMARK   13  A    between atoms: C_17  and  C_19
REMARK                            x       y       z     vdW  Elec       q    Type
REMARK                         _______ _______ _______ _____ _____    ______ ____
ROOT
ATOM     11  C   UNL     1      49.186   8.028  15.969  0.00  0.00    +0.000 A 
ATOM     12  C   UNL     1      48.246   8.981  15.553  0.00  0.00    +0.000 A 
ATOM     13  C   UNL     1      47.717   8.943  14.264  0.00  0.00    +0.000 A 
ATOM     14  C   UNL     1      48.116   7.951  13.360  0.00  0.00    +0.000 A 
ATOM     29  C   UNL     1      49.090   7.026  13.763  0.00  0.00    +0.000 A 
ATOM     30  C   UNL     1      49.590   7.037  15.068  0.00  0.00    +0.000 A 
ENDROOT
BRANCH  11  10
ATOM     10  C   UNL     1      49.796   8.126  17.343  0.00  0.00    +0.000 C 
BRANCH  10   9
ATOM      9  N   UNL     1      48.815   8.560  18.330  0.00  0.00    +0.000 NA
ATOM     31  H   UNL     1      49.065   9.483  18.677  0.00  0.00    +0.000 HD
BRANCH   9   8
ATOM      8  C   UNL     1      48.772   7.625  19.444  0.00  0.00    +0.000 C 
BRANCH   8   7
ATOM      7  C   UNL     1      48.129   6.330  18.972  0.00  0.00    +0.000 C 
BRANCH   7   6
ATOM      6  C   UNL     1      49.118   5.186  19.124  0.00  0.00    +0.000 C 
BRANCH   6   5
ATOM      5  C   UNL     1      49.341   4.495  17.789  0.00  0.00    +0.000 C 
BRANCH   5   4
ATOM      4  C   UNL     1      48.659   3.135  17.787  0.00  0.00    +0.000 C 
BRANCH   4   3
ATOM      3  C   UNL     1      47.871   2.947  16.501  0.00  0.00    +0.000 C 
BRANCH   3   2
ATOM      1  C   UNL     1      46.993   4.274  14.576  0.00  0.00    +0.000 C 
ATOM      2  C   UNL     1      47.218   4.256  16.076  0.00  0.00    +0.000 C 
ENDBRANCH   3   2
ENDBRANCH   4   3
ENDBRANCH   5   4
ENDBRANCH   6   5
ENDBRANCH   7   6
ENDBRANCH   8   7
ENDBRANCH   9   8
ENDBRANCH  10   9
ENDBRANCH  11  10
BRANCH  14  15
ATOM     15  C   UNL     1      47.470   7.851  12.000  0.00  0.00    +0.000 C 
BRANCH  15  16
ATOM     16  N   UNL     1      46.773   6.607  11.797  0.00  0.00    +0.000 N 
ATOM     17  C   UNL     1      45.403   6.561  11.654  0.00  0.00    +0.000 C 
ATOM     18  O   UNL     1      44.706   7.575  11.658  0.00  0.00    +0.000 OA
ATOM     32  H   UNL     1      47.294   5.752  11.952  0.00  0.00    +0.000 HD
BRANCH  17  19
ATOM     19  C   UNL     1      44.828   5.227  11.449  0.00  0.00    +0.000 A 
ATOM     20  C   UNL     1      44.089   4.623  12.457  0.00  0.00    +0.000 A 
ATOM     21  S   UNL     1      43.489   3.081  12.035  0.00  0.00    +0.000 S 
ATOM     22  C   UNL     1      44.226   3.152  10.502  0.00  0.00    +0.000 A 
ATOM     23  N   UNL     1      44.120   2.118   9.622  0.00  0.00    +0.000 NA
ATOM     24  C   UNL     1      44.721   2.318   8.498  0.00  0.00    +0.000 A 
ATOM     25  N   UNL     1      45.415   3.449   8.168  0.00  0.00    +0.000 N 
ATOM     26  C   UNL     1      45.556   4.516   9.027  0.00  0.00    +0.000 A 
ATOM     27  O   UNL     1      46.168   5.522   8.693  0.00  0.00    +0.000 OA
ATOM     28  C   UNL     1      44.897   4.347  10.306  0.00  0.00    +0.000 A 
ATOM     33  H   UNL     1      45.850   3.557   7.265  0.00  0.00    +0.000 HD
ENDBRANCH  17  19
ENDBRANCH  15  16
ENDBRANCH  14  15
TORSDOF 12
ENDMDL
MODEL 8
REMARK VINA RESULT:    -6.068      4.010      9.367
REMARK INTER + INTRA:         -11.904
REMARK INTER:                  -9.456
REMARK INTRA:                  -2.448
REMARK UNBOUND:                -1.579
REMARK  Name = 
REMARK  13 active torsions:
REMARK  status: ('A' for Active; 'I' for Inactive)
REMARK    1  A    between atoms: C_1  and  C_2
REMARK    2  A    between atoms: C_2  and  C_3
REMARK    3  A    between atoms: C_3  and  C_4
REMARK    4  A    between atoms: C_4  and  C_5
REMARK    5  A    between atoms: C_5  and  C_6
REMARK    6  A    between atoms: C_6  and  C_7
REMARK    7  A    between atoms: C_7  and  C_8
REMARK    8  A    between atoms: C_8  and  N_9
REMARK    9  A    between atoms: N_9  and  C_10
REMARK   10  A    between atoms: C_10  and  C_11
REMARK   11  A    between atoms: C_14  and  C_15
REMARK   12  A    between atoms: C_15  and  N_16
REMARK   13  A    between atoms: C_17  and  C_19
REMARK                            x       y       z     vdW  Elec       q    Type
REMARK                         _______ _______ _______ _____ _____    ______ ____
ROOT
ATOM     11  C   UNL     1      51.362   2.913  17.799  0.00  0.00    +0.000 A 
ATOM     12  C   UNL     1      50.674   1.959  17.037  0.00  0.00    +0.000 A 
ATOM     13  C   UNL     1      49.313   2.106  16.774  0.00  0.00    +0.000 A 
ATOM     14  C   UNL     1      48.608   3.210  17.266  0.00  0.00    +0.000 A 
ATOM     29  C   UNL     1      49.288   4.141  18.065  0.00  0.00    +0.000 A 
ATOM     30  C   UNL     1      50.661   4.017  18.295  0.00  0.00    +0.000 A 
ENDROOT
BRANCH  11  10
ATOM     10  C   UNL     1      52.817   2.703  18.129  0.00  0.00    +0.000 C 
BRANCH  10   9
ATOM      9  N   UNL     1      53.139   3.215  19.456  0.00  0.00    +0.000 NA
ATOM     31  H   UNL     1      52.311   3.641  19.868  0.00  0.00    +0.000 HD
BRANCH   9   8
ATOM      8  C   UNL     1      54.196   4.209  19.370  0.00  0.00    +0.000 C 
BRANCH   8   7
ATOM      7  C   UNL     1      53.682   5.523  19.937  0.00  0.00    +0.000 C 
BRANCH   7   6
ATOM      6  C   UNL     1      53.167   6.399  18.806  0.00  0.00    +0.000 C 
BRANCH   6   5
ATOM      5  C   UNL     1      53.982   6.171  17.544  0.00  0.00    +0.000 C 
BRANCH   5   4
ATOM      4  C   UNL     1      53.079   6.245  16.322  0.00  0.00    +0.000 C 
BRANCH   4   3
ATOM      3  C   UNL     1      52.023   7.321  16.515  0.00  0.00    +0.000 C 
BRANCH   3   2
ATOM      1  C   UNL     1      49.535   7.408  16.706  0.00  0.00    +0.000 C 
ATOM      2  C   UNL     1      50.704   6.898  15.884  0.00  0.00    +0.000 C 
ENDBRANCH   3   2
ENDBRANCH   4   3
ENDBRANCH   5   4
ENDBRANCH   6   5
ENDBRANCH   7   6
ENDBRANCH   8   7
ENDBRANCH   9   8
ENDBRANCH  10   9
ENDBRANCH  11  10
BRANCH  14  15
ATOM     15  C   UNL     1      47.160   3.420  16.898  0.00  0.00    +0.000 C 
BRANCH  15  16
ATOM     16  N   UNL     1      46.971   4.460  15.919  0.00  0.00    +0.000 N 
ATOM     17  C   UNL     1      47.066   4.207  14.568  0.00  0.00    +0.000 C 
ATOM     18  O   UNL     1      47.283   3.081  14.123  0.00  0.00    +0.000 OA
ATOM     32  H   UNL     1      46.955   5.415  16.255  0.00  0.00    +0.000 HD
BRANCH  17  19
ATOM     19  C   UNL     1      46.846   5.359  13.687  0.00  0.00    +0.000 A 
ATOM     20  C   UNL     1      47.878   6.252  13.434  0.00  0.00    +0.000 A 
ATOM     21  S   UNL     1      47.442   7.520  12.377  0.00  0.00    +0.000 S 
ATOM     22  C   UNL     1      45.847   6.940  12.248  0.00  0.00    +0.000 A 
ATOM     23  N   UNL     1      44.921   7.590  11.491  0.00  0.00    +0.000 NA
ATOM     24  C   UNL     1      43.759   7.028  11.480  0.00  0.00    +0.000 A 
ATOM     25  N   UNL     1      43.435   5.881  12.150  0.00  0.00    +0.000 N 
ATOM     26  C   UNL     1      44.335   5.193  12.933  0.00  0.00    +0.000 A 
ATOM     27  O   UNL     1      44.017   4.158  13.504  0.00  0.00    +0.000 OA
ATOM     28  C   UNL     1      45.659   5.779  12.980  0.00  0.00    +0.000 A 
ATOM     33  H   UNL     1      42.513   5.477  12.089  0.00  0.00    +0.000 HD
ENDBRANCH  17  19
ENDBRANCH  15  16
ENDBRANCH  14  15
TORSDOF 12
ENDMDL
MODEL 9
REMARK VINA RESULT:    -5.907      3.064      4.072
REMARK INTER + INTRA:         -11.630
REMARK INTER:                  -8.652
REMARK INTRA:                  -2.977
REMARK UNBOUND:                -1.579
REMARK  Name = 
REMARK  13 active torsions:
REMARK  status: ('A' for Active; 'I' for Inactive)
REMARK    1  A    between atoms: C_1  and  C_2
REMARK    2  A    between atoms: C_2  and  C_3
REMARK    3  A    between atoms: C_3  and  C_4
REMARK    4  A    between atoms: C_4  and  C_5
REMARK    5  A    between atoms: C_5  and  C_6
REMARK    6  A    between atoms: C_6  and  C_7
REMARK    7  A    between atoms: C_7  and  C_8
REMARK    8  A    between atoms: C_8  and  N_9
REMARK    9  A    between atoms: N_9  and  C_10
REMARK   10  A    between atoms: C_10  and  C_11
REMARK   11  A    between atoms: C_14  and  C_15
REMARK   12  A    between atoms: C_15  and  N_16
REMARK   13  A    between atoms: C_17  and  C_19
REMARK                            x       y       z     vdW  Elec       q    Type
REMARK                         _______ _______ _______ _____ _____    ______ ____
ROOT
ATOM     11  C   UNL     1      45.887   7.725  12.103  0.00  0.00    +0.000 A 
ATOM     12  C   UNL     1      46.915   6.978  11.512  0.00  0.00    +0.000 A 
ATOM     13  C   UNL     1      48.205   7.001  12.039  0.00  0.00    +0.000 A 
ATOM     14  C   UNL     1      48.498   7.772  13.170  0.00  0.00    +0.000 A 
ATOM     29  C   UNL     1      47.479   8.554  13.734  0.00  0.00    +0.000 A 
ATOM     30  C   UNL     1      46.176   8.499  13.232  0.00  0.00    +0.000 A 
ENDROOT
BRANCH  11  10
ATOM     10  C   UNL     1      44.516   7.740  11.479  0.00  0.00    +0.000 C 
BRANCH  10   9
ATOM      9  N   UNL     1      44.223   6.478  10.810  0.00  0.00    +0.000 NA
ATOM     31  H   UNL     1      44.098   6.642   9.813  0.00  0.00    +0.000 HD
BRANCH   9   8
ATOM      8  C   UNL     1      43.011   5.888  11.354  0.00  0.00    +0.000 C 
BRANCH   8   7
ATOM      7  C   UNL     1      43.387   4.977  12.513  0.00  0.00    +0.000 C 
BRANCH   7   6
ATOM      6  C   UNL     1      43.875   3.643  11.974  0.00  0.00    +0.000 C 
BRANCH   6   5
ATOM      5  C   UNL     1      45.282   3.352  12.469  0.00  0.00    +0.000 C 
BRANCH   5   4
ATOM      4  C   UNL     1      45.681   4.368  13.529  0.00  0.00    +0.000 C 
BRANCH   4   3
ATOM      3  C   UNL     1      47.066   4.047  14.067  0.00  0.00    +0.000 C 
BRANCH   3   2
ATOM      1  C   UNL     1      47.528   3.612  16.482  0.00  0.00    +0.000 C 
ATOM      2  C   UNL     1      47.269   4.681  15.437  0.00  0.00    +0.000 C 
ENDBRANCH   3   2
ENDBRANCH   4   3
ENDBRANCH   5   4
ENDBRANCH   6   5
ENDBRANCH   7   6
ENDBRANCH   8   7
ENDBRANCH   9   8
ENDBRANCH  10   9
ENDBRANCH  11  10
BRANCH  14  15
ATOM     15  C   UNL     1      49.868   7.719  13.799  0.00  0.00    +0.000 C 
BRANCH  15  16
ATOM     16  N   UNL     1      49.916   6.897  14.981  0.00  0.00    +0.000 N 
ATOM     17  C   UNL     1      50.957   6.982  15.879  0.00  0.00    +0.000 C 
ATOM     18  O   UNL     1      51.883   7.780  15.740  0.00  0.00    +0.000 OA
ATOM     32  H   UNL     1      49.261   6.126  15.036  0.00  0.00    +0.000 HD
BRANCH  17  19
ATOM     19  C   UNL     1      50.873   6.088  17.039  0.00  0.00    +0.000 A 
ATOM     20  C   UNL     1      51.865   5.146  17.270  0.00  0.00    +0.000 A 
ATOM     21  S   UNL     1      51.604   4.206  18.671  0.00  0.00    +0.000 S 
ATOM     22  C   UNL     1      50.136   5.003  19.001  0.00  0.00    +0.000 A 
ATOM     23  N   UNL     1      49.375   4.659  20.076  0.00  0.00    +0.000 NA
ATOM     24  C   UNL     1      48.296   5.355  20.203  0.00  0.00    +0.000 A 
ATOM     25  N   UNL     1      47.906   6.361  19.363  0.00  0.00    +0.000 N 
ATOM     26  C   UNL     1      48.638   6.739  18.259  0.00  0.00    +0.000 A 
ATOM     27  O   UNL     1      48.270   7.656  17.537  0.00  0.00    +0.000 OA
ATOM     28  C   UNL     1      49.864   5.990  18.068  0.00  0.00    +0.000 A 
ATOM     33  H   UNL     1      47.059   6.885  19.523  0.00  0.00    +0.000 HD
ENDBRANCH  17  19
ENDBRANCH  15  16
ENDBRANCH  14  15
TORSDOF 12
ENDMDL
