MODEL 1
REMARK VINA RESULT:    -8.599      0.000      0.000
REMARK INTER + INTRA:         -12.436
REMARK INTER:                 -11.615
REMARK INTRA:                  -0.821
REMARK UNBOUND:                -0.821
REMARK  Name = 
REMARK  8 active torsions:
REMARK  status: ('A' for Active; 'I' for Inactive)
REMARK    1  A    between atoms: C_1  and  C_2
REMARK    2  A    between atoms: C_2  and  C_3
REMARK    3  A    between atoms: C_2  and  C_4
REMARK    4  A    between atoms: C_2  and  C_15
REMARK    5  A    between atoms: C_4  and  N_5
REMARK    6  A    between atoms: C_9  and  C_10
REMARK    7  A    between atoms: C_19  and  N_20
REMARK    8  A    between atoms: N_20  and  C_21
REMARK                            x       y       z     vdW  Elec       q    Type
REMARK                         _______ _______ _______ _____ _____    ______ ____
ROOT
ATOM      1  C   UNL     1      43.272   6.756  11.373  0.00  0.00    +0.000 C 
ATOM      2  C   UNL     1      43.667   5.415  12.041  0.00  0.00    +0.000 C 
ATOM      3  C   UNL     1      42.631   5.162  13.165  0.00  0.00    +0.000 C 
ENDROOT
BRANCH   2  15
ATOM     15  C   UNL     1      45.112   5.474  12.598  0.00  0.00    +0.000 A 
ATOM     16  C   UNL     1      46.087   6.305  12.020  0.00  0.00    +0.000 A 
ATOM     17  C   UNL     1      47.397   6.334  12.506  0.00  0.00    +0.000 A 
ATOM     18  C   UNL     1      47.778   5.503  13.559  0.00  0.00    +0.000 A 
ATOM     19  C   UNL     1      46.851   4.645  14.142  0.00  0.00    +0.000 A 
ATOM     25  C   UNL     1      45.528   4.650  13.665  0.00  0.00    +0.000 A 
BRANCH  19  20
ATOM     20  N   UNL     1      47.173   3.774  15.206  0.00  0.00    +0.000 N 
ATOM     29  H   UNL     1      46.374   3.176  15.415  0.00  0.00    +0.000 HD
BRANCH  20  21
ATOM     21  C   UNL     1      47.936   4.125  16.378  0.00  0.00    +0.000 C 
ATOM     22  C   UNL     1      48.436   2.884  17.146  0.00  0.00    +0.000 C 
ATOM     23  N   UNL     1      47.938   3.466  18.406  0.00  0.00    +0.000 NA
ATOM     24  C   UNL     1      47.127   4.438  17.647  0.00  0.00    +0.000 C 
ATOM     30  H   UNL     1      48.672   3.898  18.967  0.00  0.00    +0.000 HD
ENDBRANCH  20  21
ENDBRANCH  19  20
ENDBRANCH   2  15
BRANCH   2   4
ATOM      4  C   UNL     1      43.609   4.254  10.999  0.00  0.00    +0.000 C 
BRANCH   4   5
ATOM      5  N   UNL     1      43.982   4.687   9.654  0.00  0.00    +0.000 N 
ATOM      6  C   UNL     1      44.939   3.995   8.935  0.00  0.00    +0.000 A 
ATOM      7  C   UNL     1      45.110   2.616   9.010  0.00  0.00    +0.000 A 
ATOM      8  C   UNL     1      46.061   1.996   8.198  0.00  0.00    +0.000 A 
ATOM      9  C   UNL     1      46.816   2.753   7.304  0.00  0.00    +0.000 A 
ATOM     13  C   UNL     1      46.576   4.117   7.290  0.00  0.00    +0.000 A 
ATOM     14  N   UNL     1      45.665   4.745   8.086  0.00  0.00    +0.000 NA
ATOM     26  H   UNL     1      44.182   5.677   9.532  0.00  0.00    +0.000 HD
BRANCH   9  10
ATOM     10  C   UNL     1      47.806   2.067   6.439  0.00  0.00    +0.000 C 
ATOM     11  N   UNL     1      48.193   2.656   5.268  0.00  0.00    +0.000 N 
ATOM     12  O   UNL     1      48.276   0.980   6.756  0.00  0.00    +0.000 OA
ATOM     27  H   UNL     1      47.854   3.530   4.898  0.00  0.00    +0.000 HD
ATOM     28  H   UNL     1      48.860   2.139   4.707  0.00  0.00    +0.000 HD
ENDBRANCH   9  10
ENDBRANCH   4   5
ENDBRANCH   2   4
TORSDOF 6
ENDMDL
MODEL 2
REMARK VINA RESULT:    -8.139      3.086      4.765
REMARK INTER + INTRA:         -11.815
REMARK INTER:                 -11.061
REMARK INTRA:                  -0.754
REMARK UNBOUND:                -0.821
REMARK  Name = 
REMARK  8 active torsions:
REMARK  status: ('A' for Active; 'I' for Inactive)
REMARK    1  A    between atoms: C_1  and  C_2
REMARK    2  A    between atoms: C_2  and  C_3
REMARK    3  A    between atoms: C_2  and  C_4
REMARK    4  A    between atoms: C_2  and  C_15
REMARK    5  A    between atoms: C_4  and  N_5
REMARK    6  A    between atoms: C_9  and  C_10
REMARK    7  A    between atoms: C_19  and  N_20
REMARK    8  A    between atoms: N_20  and  C_21
REMARK                            x       y       z     vdW  Elec       q    Type
REMARK                         _______ _______ _______ _____ _____    ______ ____
ROOT
ATOM      1  C   UNL     1      43.418   4.642  13.449  0.00  0.00    +0.000 C 
ATOM      2  C   UNL     1      44.320   4.666  12.189  0.00  0.00    +0.000 C 
ATOM      3  C   UNL     1      45.241   3.425  12.285  0.00  0.00    +0.000 C 
ENDROOT
BRANCH   2  15
ATOM     15  C   UNL     1      45.137   5.981  12.114  0.00  0.00    +0.000 A 
ATOM     16  C   UNL     1      46.523   5.971  11.881  0.00  0.00    +0.000 A 
ATOM     17  C   UNL     1      47.261   7.157  11.844  0.00  0.00    +0.000 A 
ATOM     18  C   UNL     1      46.640   8.383  12.075  0.00  0.00    +0.000 A 
ATOM     19  C   UNL     1      45.275   8.436  12.336  0.00  0.00    +0.000 A 
ATOM     25  C   UNL     1      44.538   7.238  12.339  0.00  0.00    +0.000 A 
BRANCH  19  20
ATOM     20  N   UNL     1      44.586   9.644  12.585  0.00  0.00    +0.000 N 
ATOM     29  H   UNL     1      43.859   9.487  13.282  0.00  0.00    +0.000 HD
BRANCH  20  21
ATOM     21  C   UNL     1      44.213  10.619  11.590  0.00  0.00    +0.000 C 
ATOM     22  C   UNL     1      42.700  10.920  11.601  0.00  0.00    +0.000 C 
ATOM     23  N   UNL     1      42.657  10.745  10.138  0.00  0.00    +0.000 NA
ATOM     24  C   UNL     1      43.977  10.084  10.169  0.00  0.00    +0.000 C 
ATOM     30  H   UNL     1      42.655  11.627   9.627  0.00  0.00    +0.000 HD
ENDBRANCH  20  21
ENDBRANCH  19  20
ENDBRANCH   2  15
BRANCH   2   4
ATOM      4  C   UNL     1      43.447   4.578  10.897  0.00  0.00    +0.000 C 
BRANCH   4   5
ATOM      5  N   UNL     1      44.128   5.118   9.722  0.00  0.00    +0.000 N 
ATOM      6  C   UNL     1      44.971   4.320   8.972  0.00  0.00    +0.000 A 
ATOM      7  C   UNL     1      44.763   2.959   8.766  0.00  0.00    +0.000 A 
ATOM      8  C   UNL     1      45.634   2.247   7.941  0.00  0.00    +0.000 A 
ATOM      9  C   UNL     1      46.692   2.901   7.312  0.00  0.00    +0.000 A 
ATOM     13  C   UNL     1      46.822   4.256   7.568  0.00  0.00    +0.000 A 
ATOM     14  N   UNL     1      45.993   4.967   8.383  0.00  0.00    +0.000 NA
ATOM     26  H   UNL     1      44.596   6.014   9.837  0.00  0.00    +0.000 HD
BRANCH   9  10
ATOM     10  C   UNL     1      47.592   2.125   6.425  0.00  0.00    +0.000 C 
ATOM     11  N   UNL     1      48.167   2.743   5.351  0.00  0.00    +0.000 N 
ATOM     12  O   UNL     1      47.820   0.939   6.639  0.00  0.00    +0.000 OA
ATOM     27  H   UNL     1      48.030   3.699   5.067  0.00  0.00    +0.000 HD
ATOM     28  H   UNL     1      48.762   2.164   4.769  0.00  0.00    +0.000 HD
ENDBRANCH   9  10
ENDBRANCH   4   5
ENDBRANCH   2   4
TORSDOF 6
ENDMDL
MODEL 3
REMARK VINA RESULT:    -7.968      2.291      3.712
REMARK INTER + INTRA:         -11.584
REMARK INTER:                 -10.679
REMARK INTRA:                  -0.905
REMARK UNBOUND:                -0.821
REMARK  Name = 
REMARK  8 active torsions:
REMARK  status: ('A' for Active; 'I' for Inactive)
REMARK    1  A    between atoms: C_1  and  C_2
REMARK    2  A    between atoms: C_2  and  C_3
REMARK    3  A    between atoms: C_2  and  C_4
REMARK    4  A    between atoms: C_2  and  C_15
REMARK    5  A    between atoms: C_4  and  N_5
REMARK    6  A    between atoms: C_9  and  C_10
REMARK    7  A    between atoms: C_19  and  N_20
REMARK    8  A    between atoms: N_20  and  C_21
REMARK                            x       y       z     vdW  Elec       q    Type
REMARK                         _______ _______ _______ _____ _____    ______ ____
ROOT
ATOM      1  C   UNL     1      43.140   6.736  11.380  0.00  0.00    +0.000 C 
ATOM      2  C   UNL     1      43.636   5.410  12.010  0.00  0.00    +0.000 C 
ATOM      3  C   UNL     1      42.717   5.131  13.227  0.00  0.00    +0.000 C 
ENDROOT
BRANCH   2  15
ATOM     15  C   UNL     1      45.124   5.514  12.429  0.00  0.00    +0.000 A 
ATOM     16  C   UNL     1      45.669   4.676  13.417  0.00  0.00    +0.000 A 
ATOM     17  C   UNL     1      47.003   4.793  13.813  0.00  0.00    +0.000 A 
ATOM     18  C   UNL     1      47.821   5.775  13.257  0.00  0.00    +0.000 A 
ATOM     19  C   UNL     1      47.316   6.644  12.295  0.00  0.00    +0.000 A 
ATOM     25  C   UNL     1      45.980   6.494  11.882  0.00  0.00    +0.000 A 
BRANCH  19  20
ATOM     20  N   UNL     1      48.088   7.664  11.697  0.00  0.00    +0.000 N 
ATOM     29  H   UNL     1      48.910   7.256  11.252  0.00  0.00    +0.000 HD
BRANCH  20  21
ATOM     21  C   UNL     1      48.338   8.968  12.260  0.00  0.00    +0.000 C 
ATOM     22  C   UNL     1      47.101   9.886  12.183  0.00  0.00    +0.000 C 
ATOM     23  N   UNL     1      47.938  10.964  11.625  0.00  0.00    +0.000 NA
ATOM     24  C   UNL     1      49.009   9.991  11.329  0.00  0.00    +0.000 C 
ATOM     30  H   UNL     1      48.205  11.665  12.316  0.00  0.00    +0.000 HD
ENDBRANCH  20  21
ENDBRANCH  19  20
ENDBRANCH   2  15
BRANCH   2   4
ATOM      4  C   UNL     1      43.515   4.243  10.980  0.00  0.00    +0.000 C 
BRANCH   4   5
ATOM      5  N   UNL     1      43.899   4.645   9.629  0.00  0.00    +0.000 N 
ATOM      6  C   UNL     1      44.876   3.950   8.941  0.00  0.00    +0.000 A 
ATOM      7  C   UNL     1      45.069   2.576   9.056  0.00  0.00    +0.000 A 
ATOM      8  C   UNL     1      46.041   1.949   8.274  0.00  0.00    +0.000 A 
ATOM      9  C   UNL     1      46.795   2.694   7.370  0.00  0.00    +0.000 A 
ATOM     13  C   UNL     1      46.534   4.053   7.315  0.00  0.00    +0.000 A 
ATOM     14  N   UNL     1      45.602   4.687   8.081  0.00  0.00    +0.000 NA
ATOM     26  H   UNL     1      44.085   5.635   9.482  0.00  0.00    +0.000 HD
BRANCH   9  10
ATOM     10  C   UNL     1      47.808   2.001   6.537  0.00  0.00    +0.000 C 
ATOM     11  N   UNL     1      48.217   2.574   5.366  0.00  0.00    +0.000 N 
ATOM     12  O   UNL     1      48.276   0.920   6.881  0.00  0.00    +0.000 OA
ATOM     27  H   UNL     1      47.881   3.440   4.976  0.00  0.00    +0.000 HD
ATOM     28  H   UNL     1      48.899   2.052   4.828  0.00  0.00    +0.000 HD
ENDBRANCH   9  10
ENDBRANCH   4   5
ENDBRANCH   2   4
TORSDOF 6
ENDMDL
MODEL 4
REMARK VINA RESULT:    -7.803      2.956      8.288
REMARK INTER + INTRA:         -11.361
REMARK INTER:                 -10.696
REMARK INTRA:                  -0.665
REMARK UNBOUND:                -0.821
REMARK  Name = 
REMARK  8 active torsions:
REMARK  status: ('A' for Active; 'I' for Inactive)
REMARK    1  A    between atoms: C_1  and  C_2
REMARK    2  A    between atoms: C_2  and  C_3
REMARK    3  A    between atoms: C_2  and  C_4
REMARK    4  A    between atoms: C_2  and  C_15
REMARK    5  A    between atoms: C_4  and  N_5
REMARK    6  A    between atoms: C_9  and  C_10
REMARK    7  A    between atoms: C_19  and  N_20
REMARK    8  A    between atoms: N_20  and  C_21
REMARK                            x       y       z     vdW  Elec       q    Type
REMARK                         _______ _______ _______ _____ _____    ______ ____
ROOT
ATOM      1  C   UNL     1      44.411   7.034  11.508  0.00  0.00    +0.000 C 
ATOM      2  C   UNL     1      45.527   5.961  11.548  0.00  0.00    +0.000 C 
ATOM      3  C   UNL     1      46.817   6.649  11.037  0.00  0.00    +0.000 C 
ENDROOT
BRANCH   2  15
ATOM     15  C   UNL     1      45.151   4.732  10.682  0.00  0.00    +0.000 A 
ATOM     16  C   UNL     1      44.411   3.660  11.211  0.00  0.00    +0.000 A 
ATOM     17  C   UNL     1      44.099   2.541  10.436  0.00  0.00    +0.000 A 
ATOM     18  C   UNL     1      44.550   2.445   9.120  0.00  0.00    +0.000 A 
ATOM     19  C   UNL     1      45.308   3.471   8.565  0.00  0.00    +0.000 A 
ATOM     25  C   UNL     1      45.587   4.607   9.346  0.00  0.00    +0.000 A 
BRANCH  19  20
ATOM     20  N   UNL     1      45.801   3.435   7.242  0.00  0.00    +0.000 N 
ATOM     29  H   UNL     1      45.148   2.926   6.646  0.00  0.00    +0.000 HD
BRANCH  20  21
ATOM     21  C   UNL     1      47.178   3.242   6.863  0.00  0.00    +0.000 C 
ATOM     22  C   UNL     1      47.336   2.937   5.358  0.00  0.00    +0.000 C 
ATOM     23  N   UNL     1      48.209   1.795   5.683  0.00  0.00    +0.000 NA
ATOM     24  C   UNL     1      47.754   1.835   7.087  0.00  0.00    +0.000 C 
ATOM     30  H   UNL     1      49.202   2.003   5.571  0.00  0.00    +0.000 HD
ENDBRANCH  20  21
ENDBRANCH  19  20
ENDBRANCH   2  15
BRANCH   2   4
ATOM      4  C   UNL     1      45.742   5.459  13.012  0.00  0.00    +0.000 C 
BRANCH   4   5
ATOM      5  N   UNL     1      47.109   5.670  13.482  0.00  0.00    +0.000 N 
ATOM      6  C   UNL     1      47.491   5.243  14.741  0.00  0.00    +0.000 A 
ATOM      7  C   UNL     1      46.996   4.091  15.346  0.00  0.00    +0.000 A 
ATOM      8  C   UNL     1      47.488   3.704  16.593  0.00  0.00    +0.000 A 
ATOM      9  C   UNL     1      48.482   4.456  17.215  0.00  0.00    +0.000 A 
ATOM     13  C   UNL     1      48.922   5.582  16.540  0.00  0.00    +0.000 A 
ATOM     14  N   UNL     1      48.444   5.988  15.330  0.00  0.00    +0.000 NA
ATOM     26  H   UNL     1      47.496   6.603  13.359  0.00  0.00    +0.000 HD
BRANCH   9  10
ATOM     10  C   UNL     1      49.002   4.012  18.532  0.00  0.00    +0.000 C 
ATOM     11  N   UNL     1      48.266   3.139  19.281  0.00  0.00    +0.000 N 
ATOM     12  O   UNL     1      50.078   4.421  18.956  0.00  0.00    +0.000 OA
ATOM     27  H   UNL     1      47.362   2.762  19.044  0.00  0.00    +0.000 HD
ATOM     28  H   UNL     1      48.659   2.879  20.179  0.00  0.00    +0.000 HD
ENDBRANCH   9  10
ENDBRANCH   4   5
ENDBRANCH   2   4
TORSDOF 6
ENDMDL
MODEL 5
REMARK VINA RESULT:    -7.558      2.104      2.713
REMARK INTER + INTRA:         -11.030
REMARK INTER:                 -11.009
REMARK INTRA:                  -0.021
REMARK UNBOUND:                -0.821
REMARK  Name = 
REMARK  8 active torsions:
REMARK  status: ('A' for Active; 'I' for Inactive)
REMARK    1  A    between atoms: C_1  and  C_2
REMARK    2  A    between atoms: C_2  and  C_3
REMARK    3  A    between atoms: C_2  and  C_4
REMARK    4  A    between atoms: C_2  and  C_15
REMARK    5  A    between atoms: C_4  and  N_5
REMARK    6  A    between atoms: C_9  and  C_10
REMARK    7  A    between atoms: C_19  and  N_20
REMARK    8  A    between atoms: N_20  and  C_21
REMARK                            x       y       z     vdW  Elec       q    Type
REMARK                         _______ _______ _______ _____ _____    ______ ____
ROOT
ATOM      1  C   UNL     1      43.355   4.376  13.555  0.00  0.00    +0.000 C 
ATOM      2  C   UNL     1      44.166   4.483  12.239  0.00  0.00    +0.000 C 
ATOM      3  C   UNL     1      45.168   3.301  12.244  0.00  0.00    +0.000 C 
ENDROOT
BRANCH   2  15
ATOM     15  C   UNL     1      44.891   5.849  12.140  0.00  0.00    +0.000 A 
ATOM     16  C   UNL     1      44.216   7.009  11.722  0.00  0.00    +0.000 A 
ATOM     17  C   UNL     1      44.880   8.232  11.606  0.00  0.00    +0.000 A 
ATOM     18  C   UNL     1      46.246   8.323  11.869  0.00  0.00    +0.000 A 
ATOM     19  C   UNL     1      46.958   7.193  12.259  0.00  0.00    +0.000 A 
ATOM     25  C   UNL     1      46.271   5.975  12.404  0.00  0.00    +0.000 A 
BRANCH  19  20
ATOM     20  N   UNL     1      48.343   7.215  12.535  0.00  0.00    +0.000 N 
ATOM     29  H   UNL     1      48.778   6.365  12.176  0.00  0.00    +0.000 HD
BRANCH  20  21
ATOM     21  C   UNL     1      48.951   7.689  13.753  0.00  0.00    +0.000 C 
ATOM     22  C   UNL     1      48.705   6.735  14.941  0.00  0.00    +0.000 C 
ATOM     23  N   UNL     1      48.287   7.880  15.771  0.00  0.00    +0.000 NA
ATOM     24  C   UNL     1      48.140   8.714  14.562  0.00  0.00    +0.000 C 
ATOM     30  H   UNL     1      49.018   8.205  16.404  0.00  0.00    +0.000 HD
ENDBRANCH  20  21
ENDBRANCH  19  20
ENDBRANCH   2  15
BRANCH   2   4
ATOM      4  C   UNL     1      43.215   4.362  11.006  0.00  0.00    +0.000 C 
BRANCH   4   5
ATOM      5  N   UNL     1      43.829   4.851   9.774  0.00  0.00    +0.000 N 
ATOM      6  C   UNL     1      44.742   4.071   9.088  0.00  0.00    +0.000 A 
ATOM      7  C   UNL     1      44.668   2.683   9.015  0.00  0.00    +0.000 A 
ATOM      8  C   UNL     1      45.598   1.983   8.246  0.00  0.00    +0.000 A 
ATOM      9  C   UNL     1      46.581   2.675   7.540  0.00  0.00    +0.000 A 
ATOM     13  C   UNL     1      46.578   4.055   7.663  0.00  0.00    +0.000 A 
ATOM     14  N   UNL     1      45.690   4.756   8.422  0.00  0.00    +0.000 NA
ATOM     26  H   UNL     1      44.208   5.795   9.795  0.00  0.00    +0.000 HD
BRANCH   9  10
ATOM     10  C   UNL     1      47.546   1.909   6.714  0.00  0.00    +0.000 C 
ATOM     11  N   UNL     1      48.639   2.546   6.200  0.00  0.00    +0.000 N 
ATOM     12  O   UNL     1      47.373   0.717   6.484  0.00  0.00    +0.000 OA
ATOM     27  H   UNL     1      48.865   3.523   6.302  0.00  0.00    +0.000 HD
ATOM     28  H   UNL     1      49.259   1.981   5.631  0.00  0.00    +0.000 HD
ENDBRANCH   9  10
ENDBRANCH   4   5
ENDBRANCH   2   4
TORSDOF 6
ENDMDL
MODEL 6
REMARK VINA RESULT:    -7.131      3.130      8.291
REMARK INTER + INTRA:         -10.453
REMARK INTER:                  -9.825
REMARK INTRA:                  -0.627
REMARK UNBOUND:                -0.821
REMARK  Name = 
REMARK  8 active torsions:
REMARK  status: ('A' for Active; 'I' for Inactive)
REMARK    1  A    between atoms: C_1  and  C_2
REMARK    2  A    between atoms: C_2  and  C_3
REMARK    3  A    between atoms: C_2  and  C_4
REMARK    4  A    between atoms: C_2  and  C_15
REMARK    5  A    between atoms: C_4  and  N_5
REMARK    6  A    between atoms: C_9  and  C_10
REMARK    7  A    between atoms: C_19  and  N_20
REMARK    8  A    between atoms: N_20  and  C_21
REMARK                            x       y       z     vdW  Elec       q    Type
REMARK                         _______ _______ _______ _____ _____    ______ ____
ROOT
ATOM      1  C   UNL     1      46.041   7.815  13.134  0.00  0.00    +0.000 C 
ATOM      2  C   UNL     1      46.474   6.534  12.377  0.00  0.00    +0.000 C 
ATOM      3  C   UNL     1      47.227   7.007  11.108  0.00  0.00    +0.000 C 
ENDROOT
BRANCH   2  15
ATOM     15  C   UNL     1      45.248   5.655  12.022  0.00  0.00    +0.000 A 
ATOM     16  C   UNL     1      43.955   5.990  12.458  0.00  0.00    +0.000 A 
ATOM     17  C   UNL     1      42.856   5.180  12.162  0.00  0.00    +0.000 A 
ATOM     18  C   UNL     1      43.026   3.992  11.452  0.00  0.00    +0.000 A 
ATOM     19  C   UNL     1      44.293   3.608  11.025  0.00  0.00    +0.000 A 
ATOM     25  C   UNL     1      45.385   4.450  11.303  0.00  0.00    +0.000 A 
BRANCH  19  20
ATOM     20  N   UNL     1      44.536   2.416  10.309  0.00  0.00    +0.000 N 
ATOM     29  H   UNL     1      45.245   1.864  10.790  0.00  0.00    +0.000 HD
BRANCH  20  21
ATOM     21  C   UNL     1      44.605   2.297   8.874  0.00  0.00    +0.000 C 
ATOM     22  C   UNL     1      45.983   1.795   8.392  0.00  0.00    +0.000 C 
ATOM     23  N   UNL     1      46.029   2.883   7.399  0.00  0.00    +0.000 NA
ATOM     24  C   UNL     1      44.936   3.583   8.101  0.00  0.00    +0.000 C 
ATOM     30  H   UNL     1      45.780   2.579   6.457  0.00  0.00    +0.000 HD
ENDBRANCH  20  21
ENDBRANCH  19  20
ENDBRANCH   2  15
BRANCH   2   4
ATOM      4  C   UNL     1      47.429   5.677  13.268  0.00  0.00    +0.000 C 
BRANCH   4   5
ATOM      5  N   UNL     1      46.751   5.106  14.430  0.00  0.00    +0.000 N 
ATOM      6  C   UNL     1      47.420   4.958  15.630  0.00  0.00    +0.000 A 
ATOM      7  C   UNL     1      48.389   5.848  16.086  0.00  0.00    +0.000 A 
ATOM      8  C   UNL     1      48.967   5.652  17.341  0.00  0.00    +0.000 A 
ATOM      9  C   UNL     1      48.560   4.584  18.138  0.00  0.00    +0.000 A 
ATOM     13  C   UNL     1      47.587   3.752  17.609  0.00  0.00    +0.000 A 
ATOM     14  N   UNL     1      47.022   3.915  16.380  0.00  0.00    +0.000 NA
ATOM     26  H   UNL     1      46.228   4.247  14.277  0.00  0.00    +0.000 HD
BRANCH   9  10
ATOM     10  C   UNL     1      49.175   4.409  19.476  0.00  0.00    +0.000 C 
ATOM     11  N   UNL     1      48.547   3.630  20.405  0.00  0.00    +0.000 N 
ATOM     12  O   UNL     1      50.235   4.958  19.759  0.00  0.00    +0.000 OA
ATOM     27  H   UNL     1      47.665   3.156  20.290  0.00  0.00    +0.000 HD
ATOM     28  H   UNL     1      49.003   3.555  21.307  0.00  0.00    +0.000 HD
ENDBRANCH   9  10
ENDBRANCH   4   5
ENDBRANCH   2   4
TORSDOF 6
ENDMDL
MODEL 7
REMARK VINA RESULT:    -6.933      3.562      7.666
REMARK INTER + INTRA:         -10.186
REMARK INTER:                  -9.493
REMARK INTRA:                  -0.693
REMARK UNBOUND:                -0.821
REMARK  Name = 
REMARK  8 active torsions:
REMARK  status: ('A' for Active; 'I' for Inactive)
REMARK    1  A    between atoms: C_1  and  C_2
REMARK    2  A    between atoms: C_2  and  C_3
REMARK    3  A    between atoms: C_2  and  C_4
REMARK    4  A    between atoms: C_2  and  C_15
REMARK    5  A    between atoms: C_4  and  N_5
REMARK    6  A    between atoms: C_9  and  C_10
REMARK    7  A    between atoms: C_19  and  N_20
REMARK    8  A    between atoms: N_20  and  C_21
REMARK                            x       y       z     vdW  Elec       q    Type
REMARK                         _______ _______ _______ _____ _____    ______ ____
ROOT
ATOM      1  C   UNL     1      44.574   5.416  12.989  0.00  0.00    +0.000 C 
ATOM      2  C   UNL     1      44.382   5.782  11.496  0.00  0.00    +0.000 C 
ATOM      3  C   UNL     1      42.979   6.429  11.379  0.00  0.00    +0.000 C 
ENDROOT
BRANCH   2  15
ATOM     15  C   UNL     1      44.511   4.529  10.593  0.00  0.00    +0.000 A 
ATOM     16  C   UNL     1      43.953   3.295  10.967  0.00  0.00    +0.000 A 
ATOM     17  C   UNL     1      44.097   2.160  10.165  0.00  0.00    +0.000 A 
ATOM     18  C   UNL     1      44.835   2.219   8.984  0.00  0.00    +0.000 A 
ATOM     19  C   UNL     1      45.428   3.414   8.589  0.00  0.00    +0.000 A 
ATOM     25  C   UNL     1      45.247   4.556   9.390  0.00  0.00    +0.000 A 
BRANCH  19  20
ATOM     20  N   UNL     1      46.193   3.540   7.409  0.00  0.00    +0.000 N 
ATOM     29  H   UNL     1      45.904   4.375   6.900  0.00  0.00    +0.000 HD
BRANCH  20  21
ATOM     21  C   UNL     1      46.586   2.458   6.542  0.00  0.00    +0.000 C 
ATOM     22  C   UNL     1      47.934   1.833   6.957  0.00  0.00    +0.000 C 
ATOM     23  N   UNL     1      48.401   1.919   5.562  0.00  0.00    +0.000 NA
ATOM     24  C   UNL     1      47.304   2.855   5.243  0.00  0.00    +0.000 C 
ATOM     30  H   UNL     1      48.339   1.033   5.061  0.00  0.00    +0.000 HD
ENDBRANCH  20  21
ENDBRANCH  19  20
ENDBRANCH   2  15
BRANCH   2   4
ATOM      4  C   UNL     1      45.473   6.804  11.045  0.00  0.00    +0.000 C 
BRANCH   4   5
ATOM      5  N   UNL     1      45.871   7.711  12.119  0.00  0.00    +0.000 N 
ATOM      6  C   UNL     1      47.184   7.756  12.549  0.00  0.00    +0.000 A 
ATOM      7  C   UNL     1      48.277   7.577  11.706  0.00  0.00    +0.000 A 
ATOM      8  C   UNL     1      49.569   7.702  12.218  0.00  0.00    +0.000 A 
ATOM      9  C   UNL     1      49.759   8.027  13.560  0.00  0.00    +0.000 A 
ATOM     13  C   UNL     1      48.617   8.194  14.325  0.00  0.00    +0.000 A 
ATOM     14  N   UNL     1      47.347   8.059  13.850  0.00  0.00    +0.000 NA
ATOM     26  H   UNL     1      45.288   7.714  12.954  0.00  0.00    +0.000 HD
BRANCH   9  10
ATOM     10  C   UNL     1      51.142   8.174  14.074  0.00  0.00    +0.000 C 
ATOM     11  N   UNL     1      51.587   7.327  15.049  0.00  0.00    +0.000 N 
ATOM     12  O   UNL     1      51.887   9.047  13.642  0.00  0.00    +0.000 OA
ATOM     27  H   UNL     1      51.056   6.595  15.493  0.00  0.00    +0.000 HD
ATOM     28  H   UNL     1      52.535   7.479  15.375  0.00  0.00    +0.000 HD
ENDBRANCH   9  10
ENDBRANCH   4   5
ENDBRANCH   2   4
TORSDOF 6
ENDMDL
MODEL 8
REMARK VINA RESULT:    -6.776      3.538      7.800
REMARK INTER + INTRA:          -9.974
REMARK INTER:                  -8.888
REMARK INTRA:                  -1.085
REMARK UNBOUND:                -0.821
REMARK  Name = 
REMARK  8 active torsions:
REMARK  status: ('A' for Active; 'I' for Inactive)
REMARK    1  A    between atoms: C_1  and  C_2
REMARK    2  A    between atoms: C_2  and  C_3
REMARK    3  A    between atoms: C_2  and  C_4
REMARK    4  A    between atoms: C_2  and  C_15
REMARK    5  A    between atoms: C_4  and  N_5
REMARK    6  A    between atoms: C_9  and  C_10
REMARK    7  A    between atoms: C_19  and  N_20
REMARK    8  A    between atoms: N_20  and  C_21
REMARK                            x       y       z     vdW  Elec       q    Type
REMARK                         _______ _______ _______ _____ _____    ______ ____
ROOT
ATOM      1  C   UNL     1      49.372   9.754  11.658  0.00  0.00    +0.000 C 
ATOM      2  C   UNL     1      48.970   8.439  12.372  0.00  0.00    +0.000 C 
ATOM      3  C   UNL     1      49.924   7.341  11.838  0.00  0.00    +0.000 C 
ENDROOT
BRANCH   2  15
ATOM     15  C   UNL     1      47.485   8.089  12.101  0.00  0.00    +0.000 A 
ATOM     16  C   UNL     1      46.465   9.041  12.268  0.00  0.00    +0.000 A 
ATOM     17  C   UNL     1      45.124   8.714  12.052  0.00  0.00    +0.000 A 
ATOM     18  C   UNL     1      44.762   7.415  11.698  0.00  0.00    +0.000 A 
ATOM     19  C   UNL     1      45.738   6.434  11.548  0.00  0.00    +0.000 A 
ATOM     25  C   UNL     1      47.086   6.786  11.737  0.00  0.00    +0.000 A 
BRANCH  19  20
ATOM     20  N   UNL     1      45.439   5.099  11.197  0.00  0.00    +0.000 N 
ATOM     29  H   UNL     1      46.172   4.731  10.591  0.00  0.00    +0.000 HD
BRANCH  20  21
ATOM     21  C   UNL     1      44.130   4.587  10.877  0.00  0.00    +0.000 C 
ATOM     22  C   UNL     1      43.349   4.147  12.133  0.00  0.00    +0.000 C 
ATOM     23  N   UNL     1      43.016   2.870  11.475  0.00  0.00    +0.000 NA
ATOM     24  C   UNL     1      44.062   3.109  10.462  0.00  0.00    +0.000 C 
ATOM     30  H   UNL     1      42.072   2.850  11.090  0.00  0.00    +0.000 HD
ENDBRANCH  20  21
ENDBRANCH  19  20
ENDBRANCH   2  15
BRANCH   2   4
ATOM      4  C   UNL     1      49.147   8.586  13.916  0.00  0.00    +0.000 C 
BRANCH   4   5
ATOM      5  N   UNL     1      49.931   7.499  14.497  0.00  0.00    +0.000 N 
ATOM      6  C   UNL     1      49.330   6.556  15.310  0.00  0.00    +0.000 A 
ATOM      7  C   UNL     1      48.026   6.101  15.128  0.00  0.00    +0.000 A 
ATOM      8  C   UNL     1      47.524   5.100  15.960  0.00  0.00    +0.000 A 
ATOM      9  C   UNL     1      48.332   4.547  16.952  0.00  0.00    +0.000 A 
ATOM     13  C   UNL     1      49.617   5.053  17.059  0.00  0.00    +0.000 A 
ATOM     14  N   UNL     1      50.121   6.042  16.269  0.00  0.00    +0.000 NA
ATOM     26  H   UNL     1      50.807   7.757  14.946  0.00  0.00    +0.000 HD
BRANCH   9  10
ATOM     10  C   UNL     1      47.780   3.471  17.810  0.00  0.00    +0.000 C 
ATOM     11  N   UNL     1      48.436   3.130  18.959  0.00  0.00    +0.000 N 
ATOM     12  O   UNL     1      46.751   2.881  17.500  0.00  0.00    +0.000 OA
ATOM     27  H   UNL     1      49.298   3.527  19.296  0.00  0.00    +0.000 HD
ATOM     28  H   UNL     1      48.025   2.378  19.502  0.00  0.00    +0.000 HD
ENDBRANCH   9  10
ENDBRANCH   4   5
ENDBRANCH   2   4
TORSDOF 6
ENDMDL
MODEL 9
REMARK VINA RESULT:    -6.657      3.282      5.412
REMARK INTER + INTRA:          -9.813
REMARK INTER:                  -8.668
REMARK INTRA:                  -1.146
REMARK UNBOUND:                -0.821
REMARK  Name = 
REMARK  8 active torsions:
REMARK  status: ('A' for Active; 'I' for Inactive)
REMARK    1  A    between atoms: C_1  and  C_2
REMARK    2  A    between atoms: C_2  and  C_3
REMARK    3  A    between atoms: C_2  and  C_4
REMARK    4  A    between atoms: C_2  and  C_15
REMARK    5  A    between atoms: C_4  and  N_5
REMARK    6  A    between atoms: C_9  and  C_10
REMARK    7  A    between atoms: C_19  and  N_20
REMARK    8  A    between atoms: N_20  and  C_21
REMARK                            x       y       z     vdW  Elec       q    Type
REMARK                         _______ _______ _______ _____ _____    ______ ____
ROOT
ATOM      1  C   UNL     1      50.838   8.932  13.793  0.00  0.00    +0.000 C 
ATOM      2  C   UNL     1      49.369   8.451  13.907  0.00  0.00    +0.000 C 
ATOM      3  C   UNL     1      48.484   9.624  13.418  0.00  0.00    +0.000 C 
ENDROOT
BRANCH   2  15
ATOM     15  C   UNL     1      49.028   8.045  15.363  0.00  0.00    +0.000 A 
ATOM     16  C   UNL     1      48.544   8.982  16.292  0.00  0.00    +0.000 A 
ATOM     17  C   UNL     1      48.265   8.619  17.612  0.00  0.00    +0.000 A 
ATOM     18  C   UNL     1      48.497   7.316  18.050  0.00  0.00    +0.000 A 
ATOM     19  C   UNL     1      49.000   6.362  17.170  0.00  0.00    +0.000 A 
ATOM     25  C   UNL     1      49.245   6.734  15.836  0.00  0.00    +0.000 A 
BRANCH  19  20
ATOM     20  N   UNL     1      49.263   5.028  17.550  0.00  0.00    +0.000 N 
ATOM     29  H   UNL     1      50.269   4.881  17.617  0.00  0.00    +0.000 HD
BRANCH  20  21
ATOM     21  C   UNL     1      48.553   3.864  17.079  0.00  0.00    +0.000 C 
ATOM     22  C   UNL     1      47.046   4.135  16.886  0.00  0.00    +0.000 C 
ATOM     23  N   UNL     1      46.731   2.906  17.636  0.00  0.00    +0.000 NA
ATOM     24  C   UNL     1      48.113   2.857  18.153  0.00  0.00    +0.000 C 
ATOM     30  H   UNL     1      46.492   2.117  17.035  0.00  0.00    +0.000 HD
ENDBRANCH  20  21
ENDBRANCH  19  20
ENDBRANCH   2  15
BRANCH   2   4
ATOM      4  C   UNL     1      49.137   7.201  13.001  0.00  0.00    +0.000 C 
BRANCH   4   5
ATOM      5  N   UNL     1      47.962   7.340  12.144  0.00  0.00    +0.000 N 
ATOM      6  C   UNL     1      46.986   6.360  12.127  0.00  0.00    +0.000 A 
ATOM      7  C   UNL     1      46.622   5.617  13.247  0.00  0.00    +0.000 A 
ATOM      8  C   UNL     1      45.582   4.692  13.150  0.00  0.00    +0.000 A 
ATOM      9  C   UNL     1      44.900   4.532  11.945  0.00  0.00    +0.000 A 
ATOM     13  C   UNL     1      45.323   5.316  10.885  0.00  0.00    +0.000 A 
ATOM     14  N   UNL     1      46.347   6.212  10.953  0.00  0.00    +0.000 NA
ATOM     26  H   UNL     1      48.131   7.602  11.175  0.00  0.00    +0.000 HD
BRANCH   9  10
ATOM     10  C   UNL     1      43.785   3.557  11.875  0.00  0.00    +0.000 C 
ATOM     11  N   UNL     1      43.882   2.378  12.558  0.00  0.00    +0.000 N 
ATOM     12  O   UNL     1      42.782   3.792  11.208  0.00  0.00    +0.000 OA
ATOM     27  H   UNL     1      44.666   2.072  13.112  0.00  0.00    +0.000 HD
ATOM     28  H   UNL     1      43.099   1.741  12.464  0.00  0.00    +0.000 HD
ENDBRANCH   9  10
ENDBRANCH   4   5
ENDBRANCH   2   4
TORSDOF 6
ENDMDL
