MODEL 1
REMARK VINA RESULT:    -7.391      0.000      0.000
REMARK INTER + INTRA:         -16.808
REMARK INTER:                 -14.304
REMARK INTRA:                  -2.504
REMARK UNBOUND:                -2.504
REMARK  Name = 
REMARK  17 active torsions:
REMARK  status: ('A' for Active; 'I' for Inactive)
REMARK    1  A    between atoms: C_1  and  C_2
REMARK    2  A    between atoms: C_2  and  C_3
REMARK    3  A    between atoms: C_3  and  C_4
REMARK    4  A    between atoms: C_4  and  C_5
REMARK    5  A    between atoms: C_5  and  C_6
REMARK    6  A    between atoms: C_6  and  C_7
REMARK    7  A    between atoms: C_7  and  C_8
REMARK    8  A    between atoms: C_8  and  N_9
REMARK    9  A    between atoms: N_9  and  C_10
REMARK   10  A    between atoms: C_10  and  C_11
REMARK   11  A    between atoms: C_14  and  C_15
REMARK   12  A    between atoms: C_15  and  N_16
REMARK   13  A    between atoms: C_17  and  C_19
REMARK   14  A    between atoms: C_26  and  O_27
REMARK   15  A    between atoms: O_27  and  C_28
REMARK   16  A    between atoms: C_28  and  C_29
REMARK   17  A    between atoms: C_32  and  N_33
REMARK                            x       y       z     vdW  Elec       q    Type
REMARK                         _______ _______ _______ _____ _____    ______ ____
ROOT
ATOM     16  N   UNL     1      49.284   7.923  14.513  0.00  0.00    +0.000 N 
ATOM     17  C   UNL     1      49.766   7.470  15.711  0.00  0.00    +0.000 C 
ATOM     18  O   UNL     1      50.069   6.300  15.909  0.00  0.00    +0.000 OA
ATOM     42  H   UNL     1      48.857   8.836  14.491  0.00  0.00    +0.000 HD
ENDROOT
BRANCH  17  19
ATOM     19  C   UNL     1      49.966   8.512  16.724  0.00  0.00    +0.000 A 
ATOM     20  C   UNL     1      51.018   9.408  16.599  0.00  0.00    +0.000 A 
ATOM     21  S   UNL     1      51.032  10.600  17.817  0.00  0.00    +0.000 S 
ATOM     22  C   UNL     1      49.668   9.921  18.572  0.00  0.00    +0.000 A 
ATOM     23  N   UNL     1      49.163  10.481  19.685  0.00  0.00    +0.000 NA
ATOM     24  C   UNL     1      48.098   9.828  20.153  0.00  0.00    +0.000 A 
ATOM     25  N   UNL     1      47.535   8.721  19.651  0.00  0.00    +0.000 NA
ATOM     26  C   UNL     1      48.087   8.191  18.546  0.00  0.00    +0.000 A 
ATOM     38  C   UNL     1      49.187   8.795  17.920  0.00  0.00    +0.000 A 
BRANCH  26  27
ATOM     27  O   UNL     1      47.479   7.099  17.965  0.00  0.00    +0.000 OA
BRANCH  27  28
ATOM     28  C   UNL     1      47.364   5.948  18.798  0.00  0.00    +0.000 C 
BRANCH  28  29
ATOM     29  C   UNL     1      48.079   4.764  18.189  0.00  0.00    +0.000 A 
ATOM     30  C   UNL     1      47.414   3.954  17.261  0.00  0.00    +0.000 A 
ATOM     31  C   UNL     1      48.065   2.874  16.661  0.00  0.00    +0.000 A 
ATOM     32  C   UNL     1      49.401   2.578  16.965  0.00  0.00    +0.000 A 
ATOM     36  C   UNL     1      50.046   3.363  17.929  0.00  0.00    +0.000 A 
ATOM     37  C   UNL     1      49.395   4.443  18.540  0.00  0.00    +0.000 A 
BRANCH  32  33
ATOM     33  N   UNL     1      50.112   1.505  16.399  0.00  0.00    +0.000 NA
ATOM     34  N   UNL     1      51.161   1.194  17.000  0.00  0.00    +0.000 NA
ATOM     35  N   UNL     1      52.125   0.910  17.536  0.00  0.00    +0.000 NA
ENDBRANCH  32  33
ENDBRANCH  28  29
ENDBRANCH  27  28
ENDBRANCH  26  27
ENDBRANCH  17  19
BRANCH  16  15
ATOM     15  C   UNL     1      49.012   7.079  13.384  0.00  0.00    +0.000 C 
BRANCH  15  14
ATOM     11  C   UNL     1      44.986   5.472  13.235  0.00  0.00    +0.000 A 
ATOM     12  C   UNL     1      45.232   6.764  12.754  0.00  0.00    +0.000 A 
ATOM     13  C   UNL     1      46.518   7.305  12.801  0.00  0.00    +0.000 A 
ATOM     14  C   UNL     1      47.584   6.579  13.353  0.00  0.00    +0.000 A 
ATOM     39  C   UNL     1      47.321   5.305  13.873  0.00  0.00    +0.000 A 
ATOM     40  C   UNL     1      46.040   4.754  13.808  0.00  0.00    +0.000 A 
BRANCH  11  10
ATOM     10  C   UNL     1      43.616   4.857  13.107  0.00  0.00    +0.000 C 
BRANCH  10   9
ATOM      9  N   UNL     1      43.711   3.400  13.078  0.00  0.00    +0.000 NA
ATOM     41  H   UNL     1      44.647   3.114  13.358  0.00  0.00    +0.000 HD
BRANCH   9   8
ATOM      8  C   UNL     1      43.420   2.879  11.751  0.00  0.00    +0.000 C 
BRANCH   8   7
ATOM      7  C   UNL     1      43.450   4.035  10.758  0.00  0.00    +0.000 C 
BRANCH   7   6
ATOM      6  C   UNL     1      44.608   3.859   9.785  0.00  0.00    +0.000 C 
BRANCH   6   5
ATOM      5  C   UNL     1      44.574   2.475   9.148  0.00  0.00    +0.000 C 
BRANCH   5   4
ATOM      4  C   UNL     1      45.798   2.268   8.265  0.00  0.00    +0.000 C 
BRANCH   4   3
ATOM      3  C   UNL     1      45.870   3.340   7.185  0.00  0.00    +0.000 C 
BRANCH   3   2
ATOM      1  C   UNL     1      47.893   2.003   6.550  0.00  0.00    +0.000 C 
ATOM      2  C   UNL     1      46.780   2.901   6.042  0.00  0.00    +0.000 C 
ENDBRANCH   3   2
ENDBRANCH   4   3
ENDBRANCH   5   4
ENDBRANCH   6   5
ENDBRANCH   7   6
ENDBRANCH   8   7
ENDBRANCH   9   8
ENDBRANCH  10   9
ENDBRANCH  11  10
ENDBRANCH  15  14
ENDBRANCH  16  15
TORSDOF 16
ENDMDL
MODEL 2
REMARK VINA RESULT:    -7.188      3.292      4.867
REMARK INTER + INTRA:         -16.416
REMARK INTER:                 -12.810
REMARK INTRA:                  -3.606
REMARK UNBOUND:                -2.504
REMARK  Name = 
REMARK  17 active torsions:
REMARK  status: ('A' for Active; 'I' for Inactive)
REMARK    1  A    between atoms: C_1  and  C_2
REMARK    2  A    between atoms: C_2  and  C_3
REMARK    3  A    between atoms: C_3  and  C_4
REMARK    4  A    between atoms: C_4  and  C_5
REMARK    5  A    between atoms: C_5  and  C_6
REMARK    6  A    between atoms: C_6  and  C_7
REMARK    7  A    between atoms: C_7  and  C_8
REMARK    8  A    between atoms: C_8  and  N_9
REMARK    9  A    between atoms: N_9  and  C_10
REMARK   10  A    between atoms: C_10  and  C_11
REMARK   11  A    between atoms: C_14  and  C_15
REMARK   12  A    between atoms: C_15  and  N_16
REMARK   13  A    between atoms: C_17  and  C_19
REMARK   14  A    between atoms: C_26  and  O_27
REMARK   15  A    between atoms: O_27  and  C_28
REMARK   16  A    between atoms: C_28  and  C_29
REMARK   17  A    between atoms: C_32  and  N_33
REMARK                            x       y       z     vdW  Elec       q    Type
REMARK                         _______ _______ _______ _____ _____    ______ ____
ROOT
ATOM     16  N   UNL     1      49.910   8.847  11.767  0.00  0.00    +0.000 N 
ATOM     17  C   UNL     1      51.036   9.537  11.411  0.00  0.00    +0.000 C 
ATOM     18  O   UNL     1      51.043  10.745  11.208  0.00  0.00    +0.000 OA
ATOM     42  H   UNL     1      49.933   7.841  11.705  0.00  0.00    +0.000 HD
ENDROOT
BRANCH  17  19
ATOM     19  C   UNL     1      52.260   8.729  11.366  0.00  0.00    +0.000 A 
ATOM     20  C   UNL     1      52.801   8.359  10.144  0.00  0.00    +0.000 A 
ATOM     21  S   UNL     1      54.271   7.507  10.291  0.00  0.00    +0.000 S 
ATOM     22  C   UNL     1      54.196   7.566  11.989  0.00  0.00    +0.000 A 
ATOM     23  N   UNL     1      55.172   7.009  12.728  0.00  0.00    +0.000 NA
ATOM     24  C   UNL     1      54.962   7.138  14.039  0.00  0.00    +0.000 A 
ATOM     25  N   UNL     1      53.919   7.721  14.645  0.00  0.00    +0.000 NA
ATOM     26  C   UNL     1      52.963   8.248  13.861  0.00  0.00    +0.000 A 
ATOM     38  C   UNL     1      53.071   8.223  12.464  0.00  0.00    +0.000 A 
BRANCH  26  27
ATOM     27  O   UNL     1      51.920   8.923  14.459  0.00  0.00    +0.000 OA
BRANCH  27  28
ATOM     28  C   UNL     1      51.659   8.567  15.815  0.00  0.00    +0.000 C 
BRANCH  28  29
ATOM     29  C   UNL     1      50.582   7.511  15.900  0.00  0.00    +0.000 A 
ATOM     30  C   UNL     1      50.710   6.461  16.817  0.00  0.00    +0.000 A 
ATOM     31  C   UNL     1      49.712   5.491  16.935  0.00  0.00    +0.000 A 
ATOM     32  C   UNL     1      48.554   5.548  16.147  0.00  0.00    +0.000 A 
ATOM     36  C   UNL     1      48.453   6.574  15.199  0.00  0.00    +0.000 A 
ATOM     37  C   UNL     1      49.455   7.545  15.070  0.00  0.00    +0.000 A 
BRANCH  32  33
ATOM     33  N   UNL     1      47.515   4.603  16.215  0.00  0.00    +0.000 NA
ATOM     34  N   UNL     1      47.421   3.852  15.223  0.00  0.00    +0.000 NA
ATOM     35  N   UNL     1      47.321   3.169  14.318  0.00  0.00    +0.000 NA
ENDBRANCH  32  33
ENDBRANCH  28  29
ENDBRANCH  27  28
ENDBRANCH  26  27
ENDBRANCH  17  19
BRANCH  16  15
ATOM     15  C   UNL     1      48.604   9.436  11.872  0.00  0.00    +0.000 C 
BRANCH  15  14
ATOM     11  C   UNL     1      45.420   6.565  12.530  0.00  0.00    +0.000 A 
ATOM     12  C   UNL     1      46.623   6.142  11.950  0.00  0.00    +0.000 A 
ATOM     13  C   UNL     1      47.657   7.050  11.721  0.00  0.00    +0.000 A 
ATOM     14  C   UNL     1      47.507   8.408  12.040  0.00  0.00    +0.000 A 
ATOM     39  C   UNL     1      46.284   8.832  12.577  0.00  0.00    +0.000 A 
ATOM     40  C   UNL     1      45.256   7.921  12.828  0.00  0.00    +0.000 A 
BRANCH  11  10
ATOM     10  C   UNL     1      44.337   5.569  12.856  0.00  0.00    +0.000 C 
BRANCH  10   9
ATOM      9  N   UNL     1      44.914   4.255  13.122  0.00  0.00    +0.000 NA
ATOM     41  H   UNL     1      45.929   4.312  13.071  0.00  0.00    +0.000 HD
BRANCH   9   8
ATOM      8  C   UNL     1      44.433   3.266  12.170  0.00  0.00    +0.000 C 
BRANCH   8   7
ATOM      7  C   UNL     1      43.602   3.977  11.108  0.00  0.00    +0.000 C 
BRANCH   7   6
ATOM      6  C   UNL     1      44.258   3.828   9.742  0.00  0.00    +0.000 C 
BRANCH   6   5
ATOM      5  C   UNL     1      44.469   2.359   9.401  0.00  0.00    +0.000 C 
BRANCH   5   4
ATOM      4  C   UNL     1      45.727   2.187   8.558  0.00  0.00    +0.000 C 
BRANCH   4   3
ATOM      3  C   UNL     1      45.903   3.364   7.606  0.00  0.00    +0.000 C 
BRANCH   3   2
ATOM      1  C   UNL     1      47.711   1.894   6.680  0.00  0.00    +0.000 C 
ATOM      2  C   UNL     1      46.662   2.941   6.353  0.00  0.00    +0.000 C 
ENDBRANCH   3   2
ENDBRANCH   4   3
ENDBRANCH   5   4
ENDBRANCH   6   5
ENDBRANCH   7   6
ENDBRANCH   8   7
ENDBRANCH   9   8
ENDBRANCH  10   9
ENDBRANCH  11  10
ENDBRANCH  15  14
ENDBRANCH  16  15
TORSDOF 16
ENDMDL
MODEL 3
REMARK VINA RESULT:    -7.055      3.141      8.612
REMARK INTER + INTRA:         -16.158
REMARK INTER:                 -12.278
REMARK INTRA:                  -3.879
REMARK UNBOUND:                -2.504
REMARK  Name = 
REMARK  17 active torsions:
REMARK  status: ('A' for Active; 'I' for Inactive)
REMARK    1  A    between atoms: C_1  and  C_2
REMARK    2  A    between atoms: C_2  and  C_3
REMARK    3  A    between atoms: C_3  and  C_4
REMARK    4  A    between atoms: C_4  and  C_5
REMARK    5  A    between atoms: C_5  and  C_6
REMARK    6  A    between atoms: C_6  and  C_7
REMARK    7  A    between atoms: C_7  and  C_8
REMARK    8  A    between atoms: C_8  and  N_9
REMARK    9  A    between atoms: N_9  and  C_10
REMARK   10  A    between atoms: C_10  and  C_11
REMARK   11  A    between atoms: C_14  and  C_15
REMARK   12  A    between atoms: C_15  and  N_16
REMARK   13  A    between atoms: C_17  and  C_19
REMARK   14  A    between atoms: C_26  and  O_27
REMARK   15  A    between atoms: O_27  and  C_28
REMARK   16  A    between atoms: C_28  and  C_29
REMARK   17  A    between atoms: C_32  and  N_33
REMARK                            x       y       z     vdW  Elec       q    Type
REMARK                         _______ _______ _______ _____ _____    ______ ____
ROOT
ATOM     16  N   UNL     1      46.735   5.392  14.276  0.00  0.00    +0.000 N 
ATOM     17  C   UNL     1      47.586   6.064  13.443  0.00  0.00    +0.000 C 
ATOM     18  O   UNL     1      48.603   5.561  12.981  0.00  0.00    +0.000 OA
ATOM     42  H   UNL     1      46.047   5.929  14.783  0.00  0.00    +0.000 HD
ENDROOT
BRANCH  17  19
ATOM     19  C   UNL     1      47.148   7.417  13.080  0.00  0.00    +0.000 A 
ATOM     20  C   UNL     1      47.930   8.512  13.416  0.00  0.00    +0.000 A 
ATOM     21  S   UNL     1      47.307   9.986  12.829  0.00  0.00    +0.000 S 
ATOM     22  C   UNL     1      45.953   9.207  12.157  0.00  0.00    +0.000 A 
ATOM     23  N   UNL     1      45.020   9.920  11.501  0.00  0.00    +0.000 NA
ATOM     24  C   UNL     1      44.024   9.163  11.039  0.00  0.00    +0.000 A 
ATOM     25  N   UNL     1      43.873   7.839  11.179  0.00  0.00    +0.000 NA
ATOM     26  C   UNL     1      44.825   7.176  11.857  0.00  0.00    +0.000 A 
ATOM     38  C   UNL     1      45.952   7.836  12.365  0.00  0.00    +0.000 A 
BRANCH  26  27
ATOM     27  O   UNL     1      44.733   5.803  11.946  0.00  0.00    +0.000 OA
BRANCH  27  28
ATOM     28  C   UNL     1      43.840   5.188  11.021  0.00  0.00    +0.000 C 
BRANCH  28  29
ATOM     29  C   UNL     1      44.591   4.320  10.038  0.00  0.00    +0.000 A 
ATOM     30  C   UNL     1      44.461   2.928  10.101  0.00  0.00    +0.000 A 
ATOM     31  C   UNL     1      45.120   2.107   9.183  0.00  0.00    +0.000 A 
ATOM     32  C   UNL     1      45.921   2.655   8.172  0.00  0.00    +0.000 A 
ATOM     36  C   UNL     1      46.084   4.046   8.142  0.00  0.00    +0.000 A 
ATOM     37  C   UNL     1      45.432   4.873   9.066  0.00  0.00    +0.000 A 
BRANCH  32  33
ATOM     33  N   UNL     1      46.612   1.885   7.219  0.00  0.00    +0.000 NA
ATOM     34  N   UNL     1      46.754   0.682   7.517  0.00  0.00    +0.000 NA
ATOM     35  N   UNL     1      46.897  -0.416   7.786  0.00  0.00    +0.000 NA
ENDBRANCH  32  33
ENDBRANCH  28  29
ENDBRANCH  27  28
ENDBRANCH  26  27
ENDBRANCH  17  19
BRANCH  16  15
ATOM     15  C   UNL     1      46.965   4.060  14.760  0.00  0.00    +0.000 C 
BRANCH  15  14
ATOM     11  C   UNL     1      48.413   4.164  18.848  0.00  0.00    +0.000 A 
ATOM     12  C   UNL     1      48.733   3.074  18.028  0.00  0.00    +0.000 A 
ATOM     13  C   UNL     1      48.271   3.016  16.713  0.00  0.00    +0.000 A 
ATOM     14  C   UNL     1      47.454   4.030  16.191  0.00  0.00    +0.000 A 
ATOM     39  C   UNL     1      47.100   5.095  17.032  0.00  0.00    +0.000 A 
ATOM     40  C   UNL     1      47.580   5.165  18.340  0.00  0.00    +0.000 A 
BRANCH  11  10
ATOM     10  C   UNL     1      48.982   4.268  20.239  0.00  0.00    +0.000 C 
BRANCH  10   9
ATOM      9  N   UNL     1      49.796   5.473  20.369  0.00  0.00    +0.000 NA
ATOM     41  H   UNL     1      49.295   6.266  19.974  0.00  0.00    +0.000 HD
BRANCH   9   8
ATOM      8  C   UNL     1      51.076   5.320  19.694  0.00  0.00    +0.000 C 
BRANCH   8   7
ATOM      7  C   UNL     1      51.615   6.704  19.354  0.00  0.00    +0.000 C 
BRANCH   7   6
ATOM      6  C   UNL     1      51.932   6.793  17.868  0.00  0.00    +0.000 C 
BRANCH   6   5
ATOM      5  C   UNL     1      50.962   5.945  17.057  0.00  0.00    +0.000 C 
BRANCH   5   4
ATOM      4  C   UNL     1      50.263   6.798  16.006  0.00  0.00    +0.000 C 
BRANCH   4   3
ATOM      3  C   UNL     1      50.076   8.225  16.507  0.00  0.00    +0.000 C 
BRANCH   3   2
ATOM      1  C   UNL     1      48.613   8.761  18.471  0.00  0.00    +0.000 C 
ATOM      2  C   UNL     1      48.646   8.451  16.986  0.00  0.00    +0.000 C 
ENDBRANCH   3   2
ENDBRANCH   4   3
ENDBRANCH   5   4
ENDBRANCH   6   5
ENDBRANCH   7   6
ENDBRANCH   8   7
ENDBRANCH   9   8
ENDBRANCH  10   9
ENDBRANCH  11  10
ENDBRANCH  15  14
ENDBRANCH  16  15
TORSDOF 16
ENDMDL
MODEL 4
REMARK VINA RESULT:    -7.030      3.357      8.853
REMARK INTER + INTRA:         -16.111
REMARK INTER:                 -13.381
REMARK INTRA:                  -2.729
REMARK UNBOUND:                -2.504
REMARK  Name = 
REMARK  17 active torsions:
REMARK  status: ('A' for Active; 'I' for Inactive)
REMARK    1  A    between atoms: C_1  and  C_2
REMARK    2  A    between atoms: C_2  and  C_3
REMARK    3  A    between atoms: C_3  and  C_4
REMARK    4  A    between atoms: C_4  and  C_5
REMARK    5  A    between atoms: C_5  and  C_6
REMARK    6  A    between atoms: C_6  and  C_7
REMARK    7  A    between atoms: C_7  and  C_8
REMARK    8  A    between atoms: C_8  and  N_9
REMARK    9  A    between atoms: N_9  and  C_10
REMARK   10  A    between atoms: C_10  and  C_11
REMARK   11  A    between atoms: C_14  and  C_15
REMARK   12  A    between atoms: C_15  and  N_16
REMARK   13  A    between atoms: C_17  and  C_19
REMARK   14  A    between atoms: C_26  and  O_27
REMARK   15  A    between atoms: O_27  and  C_28
REMARK   16  A    between atoms: C_28  and  C_29
REMARK   17  A    between atoms: C_32  and  N_33
REMARK                            x       y       z     vdW  Elec       q    Type
REMARK                         _______ _______ _______ _____ _____    ______ ____
ROOT
ATOM     16  N   UNL     1      46.748   5.494  14.149  0.00  0.00    +0.000 N 
ATOM     17  C   UNL     1      47.514   6.229  13.288  0.00  0.00    +0.000 C 
ATOM     18  O   UNL     1      48.582   5.831  12.838  0.00  0.00    +0.000 OA
ATOM     42  H   UNL     1      46.004   5.967  14.640  0.00  0.00    +0.000 HD
ENDROOT
BRANCH  17  19
ATOM     19  C   UNL     1      46.922   7.507  12.877  0.00  0.00    +0.000 A 
ATOM     20  C   UNL     1      47.577   8.697  13.158  0.00  0.00    +0.000 A 
ATOM     21  S   UNL     1      46.785  10.066  12.522  0.00  0.00    +0.000 S 
ATOM     22  C   UNL     1      45.522   9.112  11.902  0.00  0.00    +0.000 A 
ATOM     23  N   UNL     1      44.507   9.687  11.231  0.00  0.00    +0.000 NA
ATOM     24  C   UNL     1      43.599   8.803  10.815  0.00  0.00    +0.000 A 
ATOM     25  N   UNL     1      43.601   7.478  11.009  0.00  0.00    +0.000 NA
ATOM     26  C   UNL     1      44.629   6.955  11.699  0.00  0.00    +0.000 A 
ATOM     38  C   UNL     1      45.679   7.759  12.163  0.00  0.00    +0.000 A 
BRANCH  26  27
ATOM     27  O   UNL     1      44.695   5.585  11.844  0.00  0.00    +0.000 OA
BRANCH  27  28
ATOM     28  C   UNL     1      43.800   4.839  11.022  0.00  0.00    +0.000 C 
BRANCH  28  29
ATOM     29  C   UNL     1      44.554   4.041   9.985  0.00  0.00    +0.000 A 
ATOM     30  C   UNL     1      45.316   4.705   9.016  0.00  0.00    +0.000 A 
ATOM     31  C   UNL     1      46.047   3.987   8.067  0.00  0.00    +0.000 A 
ATOM     32  C   UNL     1      46.044   2.586   8.064  0.00  0.00    +0.000 A 
ATOM     36  C   UNL     1      45.244   1.928   9.007  0.00  0.00    +0.000 A 
ATOM     37  C   UNL     1      44.501   2.643   9.956  0.00  0.00    +0.000 A 
BRANCH  32  33
ATOM     33  N   UNL     1      46.756   1.805   7.137  0.00  0.00    +0.000 NA
ATOM     34  N   UNL     1      46.869   0.600   7.442  0.00  0.00    +0.000 NA
ATOM     35  N   UNL     1      46.986  -0.499   7.716  0.00  0.00    +0.000 NA
ENDBRANCH  32  33
ENDBRANCH  28  29
ENDBRANCH  27  28
ENDBRANCH  26  27
ENDBRANCH  17  19
BRANCH  16  15
ATOM     15  C   UNL     1      47.132   4.217  14.681  0.00  0.00    +0.000 C 
BRANCH  15  14
ATOM     11  C   UNL     1      48.396   4.477  18.822  0.00  0.00    +0.000 A 
ATOM     12  C   UNL     1      47.773   3.310  18.361  0.00  0.00    +0.000 A 
ATOM     13  C   UNL     1      47.351   3.208  17.036  0.00  0.00    +0.000 A 
ATOM     14  C   UNL     1      47.514   4.279  16.143  0.00  0.00    +0.000 A 
ATOM     39  C   UNL     1      48.096   5.460  16.624  0.00  0.00    +0.000 A 
ATOM     40  C   UNL     1      48.539   5.556  17.944  0.00  0.00    +0.000 A 
BRANCH  11  10
ATOM     10  C   UNL     1      48.928   4.556  20.230  0.00  0.00    +0.000 C 
BRANCH  10   9
ATOM      9  N   UNL     1      50.020   5.521  20.309  0.00  0.00    +0.000 NA
ATOM     41  H   UNL     1      50.327   5.767  19.371  0.00  0.00    +0.000 HD
BRANCH   9   8
ATOM      8  C   UNL     1      51.143   4.985  21.065  0.00  0.00    +0.000 C 
BRANCH   8   7
ATOM      7  C   UNL     1      52.435   5.362  20.349  0.00  0.00    +0.000 C 
BRANCH   7   6
ATOM      6  C   UNL     1      52.164   5.600  18.869  0.00  0.00    +0.000 C 
BRANCH   6   5
ATOM      5  C   UNL     1      53.142   4.813  18.007  0.00  0.00    +0.000 C 
BRANCH   5   4
ATOM      4  C   UNL     1      52.760   3.339  17.984  0.00  0.00    +0.000 C 
BRANCH   4   3
ATOM      3  C   UNL     1      51.322   3.162  17.514  0.00  0.00    +0.000 C 
BRANCH   3   2
ATOM      1  C   UNL     1      52.179   0.810  17.655  0.00  0.00    +0.000 C 
ATOM      2  C   UNL     1      51.013   1.692  17.247  0.00  0.00    +0.000 C 
ENDBRANCH   3   2
ENDBRANCH   4   3
ENDBRANCH   5   4
ENDBRANCH   6   5
ENDBRANCH   7   6
ENDBRANCH   8   7
ENDBRANCH   9   8
ENDBRANCH  10   9
ENDBRANCH  11  10
ENDBRANCH  15  14
ENDBRANCH  16  15
TORSDOF 16
ENDMDL
MODEL 5
REMARK VINA RESULT:    -6.903      1.537      2.303
REMARK INTER + INTRA:         -15.864
REMARK INTER:                 -14.025
REMARK INTRA:                  -1.839
REMARK UNBOUND:                -2.504
REMARK  Name = 
REMARK  17 active torsions:
REMARK  status: ('A' for Active; 'I' for Inactive)
REMARK    1  A    between atoms: C_1  and  C_2
REMARK    2  A    between atoms: C_2  and  C_3
REMARK    3  A    between atoms: C_3  and  C_4
REMARK    4  A    between atoms: C_4  and  C_5
REMARK    5  A    between atoms: C_5  and  C_6
REMARK    6  A    between atoms: C_6  and  C_7
REMARK    7  A    between atoms: C_7  and  C_8
REMARK    8  A    between atoms: C_8  and  N_9
REMARK    9  A    between atoms: N_9  and  C_10
REMARK   10  A    between atoms: C_10  and  C_11
REMARK   11  A    between atoms: C_14  and  C_15
REMARK   12  A    between atoms: C_15  and  N_16
REMARK   13  A    between atoms: C_17  and  C_19
REMARK   14  A    between atoms: C_26  and  O_27
REMARK   15  A    between atoms: O_27  and  C_28
REMARK   16  A    between atoms: C_28  and  C_29
REMARK   17  A    between atoms: C_32  and  N_33
REMARK                            x       y       z     vdW  Elec       q    Type
REMARK                         _______ _______ _______ _____ _____    ______ ____
ROOT
ATOM     16  N   UNL     1      48.026   7.551  14.978  0.00  0.00    +0.000 N 
ATOM     17  C   UNL     1      49.165   7.754  15.708  0.00  0.00    +0.000 C 
ATOM     18  O   UNL     1      50.289   7.684  15.225  0.00  0.00    +0.000 OA
ATOM     42  H   UNL     1      47.162   7.411  15.480  0.00  0.00    +0.000 HD
ENDROOT
BRANCH  17  19
ATOM     19  C   UNL     1      48.937   8.140  17.105  0.00  0.00    +0.000 A 
ATOM     20  C   UNL     1      49.207   9.437  17.519  0.00  0.00    +0.000 A 
ATOM     21  S   UNL     1      48.792   9.722  19.147  0.00  0.00    +0.000 S 
ATOM     22  C   UNL     1      48.292   8.110  19.357  0.00  0.00    +0.000 A 
ATOM     23  N   UNL     1      47.817   7.699  20.546  0.00  0.00    +0.000 NA
ATOM     24  C   UNL     1      47.472   6.410  20.546  0.00  0.00    +0.000 A 
ATOM     25  N   UNL     1      47.568   5.541  19.531  0.00  0.00    +0.000 NA
ATOM     26  C   UNL     1      48.064   5.998  18.368  0.00  0.00    +0.000 A 
ATOM     38  C   UNL     1      48.430   7.342  18.211  0.00  0.00    +0.000 A 
BRANCH  26  27
ATOM     27  O   UNL     1      48.098   5.143  17.287  0.00  0.00    +0.000 OA
BRANCH  27  28
ATOM     28  C   UNL     1      48.170   3.755  17.606  0.00  0.00    +0.000 C 
BRANCH  28  29
ATOM     29  C   UNL     1      49.605   3.286  17.665  0.00  0.00    +0.000 A 
ATOM     30  C   UNL     1      49.928   1.986  17.260  0.00  0.00    +0.000 A 
ATOM     31  C   UNL     1      51.252   1.541  17.276  0.00  0.00    +0.000 A 
ATOM     32  C   UNL     1      52.291   2.386  17.688  0.00  0.00    +0.000 A 
ATOM     36  C   UNL     1      51.957   3.670  18.136  0.00  0.00    +0.000 A 
ATOM     37  C   UNL     1      50.629   4.119  18.131  0.00  0.00    +0.000 A 
BRANCH  32  33
ATOM     33  N   UNL     1      53.643   2.000  17.730  0.00  0.00    +0.000 NA
ATOM     34  N   UNL     1      53.895   1.052  18.500  0.00  0.00    +0.000 NA
ATOM     35  N   UNL     1      54.138   0.194  19.209  0.00  0.00    +0.000 NA
ENDBRANCH  32  33
ENDBRANCH  28  29
ENDBRANCH  27  28
ENDBRANCH  26  27
ENDBRANCH  17  19
BRANCH  16  15
ATOM     15  C   UNL     1      48.013   7.165  13.596  0.00  0.00    +0.000 C 
BRANCH  15  14
ATOM     11  C   UNL     1      44.674   4.549  12.693  0.00  0.00    +0.000 A 
ATOM     12  C   UNL     1      45.792   4.036  13.363  0.00  0.00    +0.000 A 
ATOM     13  C   UNL     1      46.881   4.858  13.656  0.00  0.00    +0.000 A 
ATOM     14  C   UNL     1      46.893   6.205  13.263  0.00  0.00    +0.000 A 
ATOM     39  C   UNL     1      45.791   6.698  12.551  0.00  0.00    +0.000 A 
ATOM     40  C   UNL     1      44.691   5.884  12.277  0.00  0.00    +0.000 A 
BRANCH  11  10
ATOM     10  C   UNL     1      43.463   3.684  12.452  0.00  0.00    +0.000 C 
BRANCH  10   9
ATOM      9  N   UNL     1      43.369   3.318  11.042  0.00  0.00    +0.000 NA
ATOM     41  H   UNL     1      42.668   2.590  10.925  0.00  0.00    +0.000 HD
BRANCH   9   8
ATOM      8  C   UNL     1      44.649   2.847  10.534  0.00  0.00    +0.000 C 
BRANCH   8   7
ATOM      7  C   UNL     1      44.426   2.217   9.164  0.00  0.00    +0.000 C 
BRANCH   7   6
ATOM      6  C   UNL     1      44.533   3.277   8.076  0.00  0.00    +0.000 C 
BRANCH   6   5
ATOM      5  C   UNL     1      45.579   4.322   8.440  0.00  0.00    +0.000 C 
BRANCH   5   4
ATOM      4  C   UNL     1      46.774   4.225   7.500  0.00  0.00    +0.000 C 
BRANCH   4   3
ATOM      3  C   UNL     1      46.531   3.170   6.427  0.00  0.00    +0.000 C 
BRANCH   3   2
ATOM      1  C   UNL     1      47.262   0.926   7.275  0.00  0.00    +0.000 C 
ATOM      2  C   UNL     1      47.644   2.127   6.429  0.00  0.00    +0.000 C 
ENDBRANCH   3   2
ENDBRANCH   4   3
ENDBRANCH   5   4
ENDBRANCH   6   5
ENDBRANCH   7   6
ENDBRANCH   8   7
ENDBRANCH   9   8
ENDBRANCH  10   9
ENDBRANCH  11  10
ENDBRANCH  15  14
ENDBRANCH  16  15
TORSDOF 16
ENDMDL
MODEL 6
REMARK VINA RESULT:    -6.897      2.234      3.008
REMARK INTER + INTRA:         -15.853
REMARK INTER:                 -12.682
REMARK INTRA:                  -3.171
REMARK UNBOUND:                -2.504
REMARK  Name = 
REMARK  17 active torsions:
REMARK  status: ('A' for Active; 'I' for Inactive)
REMARK    1  A    between atoms: C_1  and  C_2
REMARK    2  A    between atoms: C_2  and  C_3
REMARK    3  A    between atoms: C_3  and  C_4
REMARK    4  A    between atoms: C_4  and  C_5
REMARK    5  A    between atoms: C_5  and  C_6
REMARK    6  A    between atoms: C_6  and  C_7
REMARK    7  A    between atoms: C_7  and  C_8
REMARK    8  A    between atoms: C_8  and  N_9
REMARK    9  A    between atoms: N_9  and  C_10
REMARK   10  A    between atoms: C_10  and  C_11
REMARK   11  A    between atoms: C_14  and  C_15
REMARK   12  A    between atoms: C_15  and  N_16
REMARK   13  A    between atoms: C_17  and  C_19
REMARK   14  A    between atoms: C_26  and  O_27
REMARK   15  A    between atoms: O_27  and  C_28
REMARK   16  A    between atoms: C_28  and  C_29
REMARK   17  A    between atoms: C_32  and  N_33
REMARK                            x       y       z     vdW  Elec       q    Type
REMARK                         _______ _______ _______ _____ _____    ______ ____
ROOT
ATOM     16  N   UNL     1      50.341   8.615  13.165  0.00  0.00    +0.000 N 
ATOM     17  C   UNL     1      50.940   9.324  14.169  0.00  0.00    +0.000 C 
ATOM     18  O   UNL     1      50.590  10.453  14.490  0.00  0.00    +0.000 OA
ATOM     42  H   UNL     1      50.815   7.795  12.817  0.00  0.00    +0.000 HD
ENDROOT
BRANCH  17  19
ATOM     19  C   UNL     1      51.990   8.596  14.891  0.00  0.00    +0.000 A 
ATOM     20  C   UNL     1      53.092   8.108  14.205  0.00  0.00    +0.000 A 
ATOM     21  S   UNL     1      54.247   7.376  15.224  0.00  0.00    +0.000 S 
ATOM     22  C   UNL     1      53.282   7.646  16.598  0.00  0.00    +0.000 A 
ATOM     23  N   UNL     1      53.709   7.251  17.811  0.00  0.00    +0.000 NA
ATOM     24  C   UNL     1      52.838   7.533  18.781  0.00  0.00    +0.000 A 
ATOM     25  N   UNL     1      51.641   8.122  18.656  0.00  0.00    +0.000 NA
ATOM     26  C   UNL     1      51.254   8.483  17.420  0.00  0.00    +0.000 A 
ATOM     38  C   UNL     1      52.087   8.286  16.310  0.00  0.00    +0.000 A 
BRANCH  26  27
ATOM     27  O   UNL     1      50.062   9.161  17.276  0.00  0.00    +0.000 OA
BRANCH  27  28
ATOM     28  C   UNL     1      48.941   8.574  17.932  0.00  0.00    +0.000 C 
BRANCH  28  29
ATOM     29  C   UNL     1      48.636   7.207  17.366  0.00  0.00    +0.000 A 
ATOM     30  C   UNL     1      48.355   6.144  18.232  0.00  0.00    +0.000 A 
ATOM     31  C   UNL     1      48.039   4.879  17.730  0.00  0.00    +0.000 A 
ATOM     32  C   UNL     1      47.987   4.644  16.350  0.00  0.00    +0.000 A 
ATOM     36  C   UNL     1      48.314   5.700  15.489  0.00  0.00    +0.000 A 
ATOM     37  C   UNL     1      48.640   6.968  15.987  0.00  0.00    +0.000 A 
BRANCH  32  33
ATOM     33  N   UNL     1      47.677   3.396  15.781  0.00  0.00    +0.000 NA
ATOM     34  N   UNL     1      48.582   2.540  15.867  0.00  0.00    +0.000 NA
ATOM     35  N   UNL     1      49.405   1.756  15.932  0.00  0.00    +0.000 NA
ENDBRANCH  32  33
ENDBRANCH  28  29
ENDBRANCH  27  28
ENDBRANCH  26  27
ENDBRANCH  17  19
BRANCH  16  15
ATOM     15  C   UNL     1      49.294   9.130  12.329  0.00  0.00    +0.000 C 
BRANCH  15  14
ATOM     11  C   UNL     1      45.656   6.784  12.615  0.00  0.00    +0.000 A 
ATOM     12  C   UNL     1      46.828   6.187  12.133  0.00  0.00    +0.000 A 
ATOM     13  C   UNL     1      48.007   6.925  12.025  0.00  0.00    +0.000 A 
ATOM     14  C   UNL     1      48.040   8.285  12.368  0.00  0.00    +0.000 A 
ATOM     39  C   UNL     1      46.852   8.888  12.805  0.00  0.00    +0.000 A 
ATOM     40  C   UNL     1      45.677   8.145  12.935  0.00  0.00    +0.000 A 
BRANCH  11  10
ATOM     10  C   UNL     1      44.406   5.967  12.813  0.00  0.00    +0.000 C 
BRANCH  10   9
ATOM      9  N   UNL     1      44.736   4.549  12.921  0.00  0.00    +0.000 NA
ATOM     41  H   UNL     1      45.713   4.406  12.677  0.00  0.00    +0.000 HD
BRANCH   9   8
ATOM      8  C   UNL     1      43.894   3.744  12.048  0.00  0.00    +0.000 C 
BRANCH   8   7
ATOM      7  C   UNL     1      43.500   4.587  10.841  0.00  0.00    +0.000 C 
BRANCH   7   6
ATOM      6  C   UNL     1      44.163   4.042   9.583  0.00  0.00    +0.000 C 
BRANCH   6   5
ATOM      5  C   UNL     1      44.656   2.619   9.805  0.00  0.00    +0.000 C 
BRANCH   5   4
ATOM      4  C   UNL     1      45.622   2.214   8.698  0.00  0.00    +0.000 C 
BRANCH   4   3
ATOM      3  C   UNL     1      45.888   3.386   7.761  0.00  0.00    +0.000 C 
BRANCH   3   2
ATOM      1  C   UNL     1      47.382   1.577   6.876  0.00  0.00    +0.000 C 
ATOM      2  C   UNL     1      46.920   3.013   6.702  0.00  0.00    +0.000 C 
ENDBRANCH   3   2
ENDBRANCH   4   3
ENDBRANCH   5   4
ENDBRANCH   6   5
ENDBRANCH   7   6
ENDBRANCH   8   7
ENDBRANCH   9   8
ENDBRANCH  10   9
ENDBRANCH  11  10
ENDBRANCH  15  14
ENDBRANCH  16  15
TORSDOF 16
ENDMDL
MODEL 7
REMARK VINA RESULT:    -6.796      2.594      4.334
REMARK INTER + INTRA:         -15.656
REMARK INTER:                 -12.889
REMARK INTRA:                  -2.767
REMARK UNBOUND:                -2.504
REMARK  Name = 
REMARK  17 active torsions:
REMARK  status: ('A' for Active; 'I' for Inactive)
REMARK    1  A    between atoms: C_1  and  C_2
REMARK    2  A    between atoms: C_2  and  C_3
REMARK    3  A    between atoms: C_3  and  C_4
REMARK    4  A    between atoms: C_4  and  C_5
REMARK    5  A    between atoms: C_5  and  C_6
REMARK    6  A    between atoms: C_6  and  C_7
REMARK    7  A    between atoms: C_7  and  C_8
REMARK    8  A    between atoms: C_8  and  N_9
REMARK    9  A    between atoms: N_9  and  C_10
REMARK   10  A    between atoms: C_10  and  C_11
REMARK   11  A    between atoms: C_14  and  C_15
REMARK   12  A    between atoms: C_15  and  N_16
REMARK   13  A    between atoms: C_17  and  C_19
REMARK   14  A    between atoms: C_26  and  O_27
REMARK   15  A    between atoms: O_27  and  C_28
REMARK   16  A    between atoms: C_28  and  C_29
REMARK   17  A    between atoms: C_32  and  N_33
REMARK                            x       y       z     vdW  Elec       q    Type
REMARK                         _______ _______ _______ _____ _____    ______ ____
ROOT
ATOM     16  N   UNL     1      48.119   6.540  15.432  0.00  0.00    +0.000 N 
ATOM     17  C   UNL     1      49.039   6.337  16.423  0.00  0.00    +0.000 C 
ATOM     18  O   UNL     1      50.135   5.828  16.223  0.00  0.00    +0.000 OA
ATOM     42  H   UNL     1      47.172   6.758  15.704  0.00  0.00    +0.000 HD
ENDROOT
BRANCH  17  19
ATOM     19  C   UNL     1      48.644   6.849  17.740  0.00  0.00    +0.000 A 
ATOM     20  C   UNL     1      48.691   6.017  18.850  0.00  0.00    +0.000 A 
ATOM     21  S   UNL     1      48.287   6.813  20.303  0.00  0.00    +0.000 S 
ATOM     22  C   UNL     1      47.989   8.272  19.482  0.00  0.00    +0.000 A 
ATOM     23  N   UNL     1      47.605   9.365  20.165  0.00  0.00    +0.000 NA
ATOM     24  C   UNL     1      47.409  10.423  19.377  0.00  0.00    +0.000 A 
ATOM     25  N   UNL     1      47.537  10.483  18.044  0.00  0.00    +0.000 NA
ATOM     26  C   UNL     1      47.908   9.359  17.407  0.00  0.00    +0.000 A 
ATOM     38  C   UNL     1      48.188   8.180  18.113  0.00  0.00    +0.000 A 
BRANCH  26  27
ATOM     27  O   UNL     1      48.124   9.414  16.047  0.00  0.00    +0.000 OA
BRANCH  27  28
ATOM     28  C   UNL     1      49.293  10.123  15.641  0.00  0.00    +0.000 C 
BRANCH  28  29
ATOM     29  C   UNL     1      49.853   9.555  14.358  0.00  0.00    +0.000 A 
ATOM     30  C   UNL     1      49.113   9.653  13.174  0.00  0.00    +0.000 A 
ATOM     31  C   UNL     1      49.625   9.164  11.970  0.00  0.00    +0.000 A 
ATOM     32  C   UNL     1      50.894   8.571  11.914  0.00  0.00    +0.000 A 
ATOM     36  C   UNL     1      51.610   8.435  13.110  0.00  0.00    +0.000 A 
ATOM     37  C   UNL     1      51.097   8.916  14.322  0.00  0.00    +0.000 A 
BRANCH  32  33
ATOM     33  N   UNL     1      51.465   8.058  10.736  0.00  0.00    +0.000 NA
ATOM     34  N   UNL     1      52.643   7.661  10.853  0.00  0.00    +0.000 NA
ATOM     35  N   UNL     1      53.721   7.306  10.948  0.00  0.00    +0.000 NA
ENDBRANCH  32  33
ENDBRANCH  28  29
ENDBRANCH  27  28
ENDBRANCH  26  27
ENDBRANCH  17  19
BRANCH  16  15
ATOM     15  C   UNL     1      48.295   6.120  14.071  0.00  0.00    +0.000 C 
BRANCH  15  14
ATOM     11  C   UNL     1      44.568   5.764  11.880  0.00  0.00    +0.000 A 
ATOM     12  C   UNL     1      45.566   6.629  11.411  0.00  0.00    +0.000 A 
ATOM     13  C   UNL     1      46.768   6.766  12.105  0.00  0.00    +0.000 A 
ATOM     14  C   UNL     1      46.996   6.063  13.298  0.00  0.00    +0.000 A 
ATOM     39  C   UNL     1      45.975   5.235  13.785  0.00  0.00    +0.000 A 
ATOM     40  C   UNL     1      44.780   5.080  13.080  0.00  0.00    +0.000 A 
BRANCH  11  10
ATOM     10  C   UNL     1      43.305   5.552  11.086  0.00  0.00    +0.000 C 
BRANCH  10   9
ATOM      9  N   UNL     1      43.575   4.736   9.905  0.00  0.00    +0.000 NA
ATOM     41  H   UNL     1      42.742   4.692   9.323  0.00  0.00    +0.000 HD
BRANCH   9   8
ATOM      8  C   UNL     1      43.980   3.389  10.278  0.00  0.00    +0.000 C 
BRANCH   8   7
ATOM      7  C   UNL     1      44.625   2.723   9.068  0.00  0.00    +0.000 C 
BRANCH   7   6
ATOM      6  C   UNL     1      44.886   3.755   7.979  0.00  0.00    +0.000 C 
BRANCH   6   5
ATOM      5  C   UNL     1      46.345   3.723   7.543  0.00  0.00    +0.000 C 
BRANCH   5   4
ATOM      4  C   UNL     1      46.455   3.254   6.097  0.00  0.00    +0.000 C 
BRANCH   4   3
ATOM      3  C   UNL     1      47.428   2.086   5.983  0.00  0.00    +0.000 C 
BRANCH   3   2
ATOM      1  C   UNL     1      46.795   0.165   7.464  0.00  0.00    +0.000 C 
ATOM      2  C   UNL     1      47.639   1.419   7.339  0.00  0.00    +0.000 C 
ENDBRANCH   3   2
ENDBRANCH   4   3
ENDBRANCH   5   4
ENDBRANCH   6   5
ENDBRANCH   7   6
ENDBRANCH   8   7
ENDBRANCH   9   8
ENDBRANCH  10   9
ENDBRANCH  11  10
ENDBRANCH  15  14
ENDBRANCH  16  15
TORSDOF 16
ENDMDL
MODEL 8
REMARK VINA RESULT:    -6.563      2.866      5.705
REMARK INTER + INTRA:         -15.205
REMARK INTER:                 -12.111
REMARK INTRA:                  -3.094
REMARK UNBOUND:                -2.504
REMARK  Name = 
REMARK  17 active torsions:
REMARK  status: ('A' for Active; 'I' for Inactive)
REMARK    1  A    between atoms: C_1  and  C_2
REMARK    2  A    between atoms: C_2  and  C_3
REMARK    3  A    between atoms: C_3  and  C_4
REMARK    4  A    between atoms: C_4  and  C_5
REMARK    5  A    between atoms: C_5  and  C_6
REMARK    6  A    between atoms: C_6  and  C_7
REMARK    7  A    between atoms: C_7  and  C_8
REMARK    8  A    between atoms: C_8  and  N_9
REMARK    9  A    between atoms: N_9  and  C_10
REMARK   10  A    between atoms: C_10  and  C_11
REMARK   11  A    between atoms: C_14  and  C_15
REMARK   12  A    between atoms: C_15  and  N_16
REMARK   13  A    between atoms: C_17  and  C_19
REMARK   14  A    between atoms: C_26  and  O_27
REMARK   15  A    between atoms: O_27  and  C_28
REMARK   16  A    between atoms: C_28  and  C_29
REMARK   17  A    between atoms: C_32  and  N_33
REMARK                            x       y       z     vdW  Elec       q    Type
REMARK                         _______ _______ _______ _____ _____    ______ ____
ROOT
ATOM     16  N   UNL     1      49.213   3.028  17.616  0.00  0.00    +0.000 N 
ATOM     17  C   UNL     1      50.074   2.219  16.926  0.00  0.00    +0.000 C 
ATOM     18  O   UNL     1      49.753   1.619  15.907  0.00  0.00    +0.000 OA
ATOM     42  H   UNL     1      49.476   3.310  18.549  0.00  0.00    +0.000 HD
ENDROOT
BRANCH  17  19
ATOM     19  C   UNL     1      51.441   2.184  17.456  0.00  0.00    +0.000 A 
ATOM     20  C   UNL     1      52.067   0.967  17.680  0.00  0.00    +0.000 A 
ATOM     21  S   UNL     1      53.681   1.128  18.206  0.00  0.00    +0.000 S 
ATOM     22  C   UNL     1      53.569   2.825  18.198  0.00  0.00    +0.000 A 
ATOM     23  N   UNL     1      54.629   3.574  18.551  0.00  0.00    +0.000 NA
ATOM     24  C   UNL     1      54.377   4.882  18.495  0.00  0.00    +0.000 A 
ATOM     25  N   UNL     1      53.226   5.478  18.156  0.00  0.00    +0.000 NA
ATOM     26  C   UNL     1      52.192   4.684  17.827  0.00  0.00    +0.000 A 
ATOM     38  C   UNL     1      52.323   3.289  17.802  0.00  0.00    +0.000 A 
BRANCH  26  27
ATOM     27  O   UNL     1      51.021   5.273  17.399  0.00  0.00    +0.000 OA
BRANCH  27  28
ATOM     28  C   UNL     1      50.816   6.615  17.835  0.00  0.00    +0.000 C 
BRANCH  28  29
ATOM     29  C   UNL     1      50.446   7.511  16.677  0.00  0.00    +0.000 A 
ATOM     30  C   UNL     1      51.090   7.354  15.444  0.00  0.00    +0.000 A 
ATOM     31  C   UNL     1      50.741   8.150  14.350  0.00  0.00    +0.000 A 
ATOM     32  C   UNL     1      49.735   9.119  14.455  0.00  0.00    +0.000 A 
ATOM     36  C   UNL     1      49.127   9.304  15.704  0.00  0.00    +0.000 A 
ATOM     37  C   UNL     1      49.479   8.514  16.807  0.00  0.00    +0.000 A 
BRANCH  32  33
ATOM     33  N   UNL     1      49.339   9.953  13.395  0.00  0.00    +0.000 NA
ATOM     34  N   UNL     1      48.169   9.778  12.997  0.00  0.00    +0.000 NA
ATOM     35  N   UNL     1      47.106   9.619  12.621  0.00  0.00    +0.000 NA
ENDBRANCH  32  33
ENDBRANCH  28  29
ENDBRANCH  27  28
ENDBRANCH  26  27
ENDBRANCH  17  19
BRANCH  16  15
ATOM     15  C   UNL     1      47.831   3.210  17.276  0.00  0.00    +0.000 C 
BRANCH  15  14
ATOM     11  C   UNL     1      47.197   5.373  13.570  0.00  0.00    +0.000 A 
ATOM     12  C   UNL     1      46.925   4.000  13.624  0.00  0.00    +0.000 A 
ATOM     13  C   UNL     1      47.130   3.283  14.803  0.00  0.00    +0.000 A 
ATOM     14  C   UNL     1      47.638   3.912  15.950  0.00  0.00    +0.000 A 
ATOM     39  C   UNL     1      47.951   5.276  15.875  0.00  0.00    +0.000 A 
ATOM     40  C   UNL     1      47.726   6.000  14.702  0.00  0.00    +0.000 A 
BRANCH  11  10
ATOM     10  C   UNL     1      46.895   6.164  12.323  0.00  0.00    +0.000 C 
BRANCH  10   9
ATOM      9  N   UNL     1      45.526   6.669  12.358  0.00  0.00    +0.000 NA
ATOM     41  H   UNL     1      45.026   6.245  13.137  0.00  0.00    +0.000 HD
BRANCH   9   8
ATOM      8  C   UNL     1      44.827   6.381  11.115  0.00  0.00    +0.000 C 
BRANCH   8   7
ATOM      7  C   UNL     1      44.162   5.015  11.236  0.00  0.00    +0.000 C 
BRANCH   7   6
ATOM      6  C   UNL     1      43.991   4.391   9.857  0.00  0.00    +0.000 C 
BRANCH   6   5
ATOM      5  C   UNL     1      45.294   4.453   9.071  0.00  0.00    +0.000 C 
BRANCH   5   4
ATOM      4  C   UNL     1      45.244   3.494   7.888  0.00  0.00    +0.000 C 
BRANCH   4   3
ATOM      3  C   UNL     1      45.999   2.208   8.204  0.00  0.00    +0.000 C 
BRANCH   3   2
ATOM      1  C   UNL     1      46.828   2.737   5.898  0.00  0.00    +0.000 C 
ATOM      2  C   UNL     1      47.088   1.948   7.168  0.00  0.00    +0.000 C 
ENDBRANCH   3   2
ENDBRANCH   4   3
ENDBRANCH   5   4
ENDBRANCH   6   5
ENDBRANCH   7   6
ENDBRANCH   8   7
ENDBRANCH   9   8
ENDBRANCH  10   9
ENDBRANCH  11  10
ENDBRANCH  15  14
ENDBRANCH  16  15
TORSDOF 16
ENDMDL
MODEL 9
REMARK VINA RESULT:    -6.422      3.659      8.434
REMARK INTER + INTRA:         -14.933
REMARK INTER:                  -9.622
REMARK INTRA:                  -5.311
REMARK UNBOUND:                -2.504
REMARK  Name = 
REMARK  17 active torsions:
REMARK  status: ('A' for Active; 'I' for Inactive)
REMARK    1  A    between atoms: C_1  and  C_2
REMARK    2  A    between atoms: C_2  and  C_3
REMARK    3  A    between atoms: C_3  and  C_4
REMARK    4  A    between atoms: C_4  and  C_5
REMARK    5  A    between atoms: C_5  and  C_6
REMARK    6  A    between atoms: C_6  and  C_7
REMARK    7  A    between atoms: C_7  and  C_8
REMARK    8  A    between atoms: C_8  and  N_9
REMARK    9  A    between atoms: N_9  and  C_10
REMARK   10  A    between atoms: C_10  and  C_11
REMARK   11  A    between atoms: C_14  and  C_15
REMARK   12  A    between atoms: C_15  and  N_16
REMARK   13  A    between atoms: C_17  and  C_19
REMARK   14  A    between atoms: C_26  and  O_27
REMARK   15  A    between atoms: O_27  and  C_28
REMARK   16  A    between atoms: C_28  and  C_29
REMARK   17  A    between atoms: C_32  and  N_33
REMARK                            x       y       z     vdW  Elec       q    Type
REMARK                         _______ _______ _______ _____ _____    ______ ____
ROOT
ATOM     16  N   UNL     1      46.751   4.382  15.502  0.00  0.00    +0.000 N 
ATOM     17  C   UNL     1      46.688   4.098  14.166  0.00  0.00    +0.000 C 
ATOM     18  O   UNL     1      47.213   3.109  13.667  0.00  0.00    +0.000 OA
ATOM     42  H   UNL     1      46.488   5.308  15.801  0.00  0.00    +0.000 HD
ENDROOT
BRANCH  17  19
ATOM     19  C   UNL     1      45.875   5.032  13.378  0.00  0.00    +0.000 A 
ATOM     20  C   UNL     1      44.671   4.612  12.832  0.00  0.00    +0.000 A 
ATOM     21  S   UNL     1      43.825   5.858  12.034  0.00  0.00    +0.000 S 
ATOM     22  C   UNL     1      45.067   6.976  12.352  0.00  0.00    +0.000 A 
ATOM     23  N   UNL     1      44.955   8.248  11.929  0.00  0.00    +0.000 NA
ATOM     24  C   UNL     1      46.012   8.994  12.255  0.00  0.00    +0.000 A 
ATOM     25  N   UNL     1      47.114   8.605  12.911  0.00  0.00    +0.000 NA
ATOM     26  C   UNL     1      47.183   7.319  13.297  0.00  0.00    +0.000 A 
ATOM     38  C   UNL     1      46.127   6.429  13.058  0.00  0.00    +0.000 A 
BRANCH  26  27
ATOM     27  O   UNL     1      48.271   6.914  14.041  0.00  0.00    +0.000 OA
BRANCH  27  28
ATOM     28  C   UNL     1      49.532   7.412  13.602  0.00  0.00    +0.000 C 
BRANCH  28  29
ATOM     29  C   UNL     1      50.275   8.081  14.734  0.00  0.00    +0.000 A 
ATOM     30  C   UNL     1      49.727   9.210  15.354  0.00  0.00    +0.000 A 
ATOM     31  C   UNL     1      50.380   9.826  16.423  0.00  0.00    +0.000 A 
ATOM     32  C   UNL     1      51.596   9.326  16.910  0.00  0.00    +0.000 A 
ATOM     36  C   UNL     1      52.162   8.224  16.257  0.00  0.00    +0.000 A 
ATOM     37  C   UNL     1      51.515   7.607  15.178  0.00  0.00    +0.000 A 
BRANCH  32  33
ATOM     33  N   UNL     1      52.305   9.899  17.980  0.00  0.00    +0.000 NA
ATOM     34  N   UNL     1      51.622  10.131  18.998  0.00  0.00    +0.000 NA
ATOM     35  N   UNL     1      51.005  10.357  19.929  0.00  0.00    +0.000 NA
ENDBRANCH  32  33
ENDBRANCH  28  29
ENDBRANCH  27  28
ENDBRANCH  26  27
ENDBRANCH  17  19
BRANCH  16  15
ATOM     15  C   UNL     1      47.490   3.605  16.457  0.00  0.00    +0.000 C 
BRANCH  15  14
ATOM     11  C   UNL     1      49.594   6.091  19.321  0.00  0.00    +0.000 A 
ATOM     12  C   UNL     1      49.108   4.839  19.719  0.00  0.00    +0.000 A 
ATOM     13  C   UNL     1      48.421   4.027  18.816  0.00  0.00    +0.000 A 
ATOM     14  C   UNL     1      48.177   4.455  17.502  0.00  0.00    +0.000 A 
ATOM     39  C   UNL     1      48.626   5.728  17.126  0.00  0.00    +0.000 A 
ATOM     40  C   UNL     1      49.333   6.533  18.021  0.00  0.00    +0.000 A 
BRANCH  11  10
ATOM     10  C   UNL     1      50.410   6.931  20.270  0.00  0.00    +0.000 C 
BRANCH  10   9
ATOM      9  N   UNL     1      51.747   7.157  19.731  0.00  0.00    +0.000 NA
ATOM     41  H   UNL     1      51.685   7.348  18.733  0.00  0.00    +0.000 HD
BRANCH   9   8
ATOM      8  C   UNL     1      52.607   6.004  19.953  0.00  0.00    +0.000 C 
BRANCH   8   7
ATOM      7  C   UNL     1      53.382   5.721  18.672  0.00  0.00    +0.000 C 
BRANCH   7   6
ATOM      6  C   UNL     1      52.548   4.859  17.734  0.00  0.00    +0.000 C 
BRANCH   6   5
ATOM      5  C   UNL     1      52.312   3.480  18.334  0.00  0.00    +0.000 C 
BRANCH   5   4
ATOM      4  C   UNL     1      51.431   2.645  17.412  0.00  0.00    +0.000 C 
BRANCH   4   3
ATOM      3  C   UNL     1      51.762   1.164  17.547  0.00  0.00    +0.000 C 
BRANCH   3   2
ATOM      1  C   UNL     1      54.071   0.427  16.904  0.00  0.00    +0.000 C 
ATOM      2  C   UNL     1      53.198   0.968  18.022  0.00  0.00    +0.000 C 
ENDBRANCH   3   2
ENDBRANCH   4   3
ENDBRANCH   5   4
ENDBRANCH   6   5
ENDBRANCH   7   6
ENDBRANCH   8   7
ENDBRANCH   9   8
ENDBRANCH  10   9
ENDBRANCH  11  10
ENDBRANCH  15  14
ENDBRANCH  16  15
TORSDOF 16
ENDMDL
