MODEL 1
REMARK VINA RESULT:    -7.650      0.000      0.000
REMARK INTER + INTRA:         -10.305
REMARK INTER:                  -9.887
REMARK INTRA:                  -0.419
REMARK UNBOUND:                -0.419
REMARK  Name = 
REMARK  6 active torsions:
REMARK  status: ('A' for Active; 'I' for Inactive)
REMARK    1  A    between atoms: C_1  and  N_2
REMARK    2  A    between atoms: N_2  and  C_21
REMARK    3  A    between atoms: C_3  and  C_5
REMARK    4  A    between atoms: C_5  and  N_6
REMARK    5  A    between atoms: C_7  and  C_8
REMARK    6  A    between atoms: C_14  and  C_15
REMARK                            x       y       z     vdW  Elec       q    Type
REMARK                         _______ _______ _______ _____ _____    ______ ____
ROOT
ATOM      6  N   UNL     1      44.614   4.898  10.228  0.00  0.00    +0.000 N 
ATOM      7  C   UNL     1      43.935   3.879  10.898  0.00  0.00    +0.000 A 
ATOM     11  C   UNL     1      44.270   2.700  10.289  0.00  0.00    +0.000 A 
ATOM     12  C   UNL     1      45.133   2.960   9.219  0.00  0.00    +0.000 A 
ATOM     13  C   UNL     1      45.751   2.185   8.234  0.00  0.00    +0.000 A 
ATOM     14  C   UNL     1      46.584   2.820   7.312  0.00  0.00    +0.000 A 
ATOM     18  C   UNL     1      46.782   4.195   7.446  0.00  0.00    +0.000 A 
ATOM     19  N   UNL     1      46.229   5.000   8.397  0.00  0.00    +0.000 NA
ATOM     20  C   UNL     1      45.391   4.333   9.222  0.00  0.00    +0.000 A 
ENDROOT
BRANCH  14  15
ATOM     15  C   UNL     1      47.268   2.090   6.219  0.00  0.00    +0.000 C 
ATOM     16  N   UNL     1      47.911   2.812   5.246  0.00  0.00    +0.000 N 
ATOM     17  O   UNL     1      47.263   0.866   6.171  0.00  0.00    +0.000 OA
ATOM     29  H   UNL     1      47.987   3.816   5.211  0.00  0.00    +0.000 HD
ATOM     30  H   UNL     1      48.369   2.286   4.513  0.00  0.00    +0.000 HD
ENDBRANCH  14  15
BRANCH   7   8
ATOM      8  C   UNL     1      42.989   3.932  12.101  0.00  0.00    +0.000 C 
ATOM      9  C   UNL     1      42.637   5.308  12.621  0.00  0.00    +0.000 C 
ATOM     10  C   UNL     1      43.408   4.375  13.502  0.00  0.00    +0.000 C 
ENDBRANCH   7   8
BRANCH   6   5
ATOM      5  C   UNL     1      44.690   6.296  10.613  0.00  0.00    +0.000 C 
BRANCH   5   3
ATOM      1  C   UNL     1      44.889   9.044  11.515  0.00  0.00    +0.000 C 
ATOM      2  N   UNL     1      45.925   8.062  11.839  0.00  0.00    +0.000 N 
ATOM      3  C   UNL     1      45.891   6.707  11.445  0.00  0.00    +0.000 C 
ATOM      4  O   UNL     1      46.798   5.931  11.754  0.00  0.00    +0.000 OA
BRANCH   2  21
ATOM     21  C   UNL     1      47.170   8.548  12.470  0.00  0.00    +0.000 C 
ATOM     22  C   UNL     1      47.170   8.506  14.015  0.00  0.00    +0.000 C 
ATOM     23  C   UNL     1      48.347   9.278  14.627  0.00  0.00    +0.000 C 
ATOM     24  C   UNL     1      49.698   8.824  14.085  0.00  0.00    +0.000 C 
ATOM     25  C   UNL     1      49.921   9.687  12.840  0.00  0.00    +0.000 C 
ATOM     26  C   UNL     1      48.687  10.586  12.767  0.00  0.00    +0.000 C 
ATOM     27  C   UNL     1      47.539   9.961  11.960  0.00  0.00    +0.000 C 
ATOM     28  N   UNL     1      48.288  10.675  14.176  0.00  0.00    +0.000 NA
ATOM     31  H   UNL     1      47.347  11.054  14.265  0.00  0.00    +0.000 HD
ENDBRANCH   2  21
ENDBRANCH   5   3
ENDBRANCH   6   5
TORSDOF 5
ENDMDL
MODEL 2
REMARK VINA RESULT:    -6.796      3.798      8.301
REMARK INTER + INTRA:          -9.202
REMARK INTER:                  -8.296
REMARK INTRA:                  -0.905
REMARK UNBOUND:                -0.419
REMARK  Name = 
REMARK  6 active torsions:
REMARK  status: ('A' for Active; 'I' for Inactive)
REMARK    1  A    between atoms: C_1  and  N_2
REMARK    2  A    between atoms: N_2  and  C_21
REMARK    3  A    between atoms: C_3  and  C_5
REMARK    4  A    between atoms: C_5  and  N_6
REMARK    5  A    between atoms: C_7  and  C_8
REMARK    6  A    between atoms: C_14  and  C_15
REMARK                            x       y       z     vdW  Elec       q    Type
REMARK                         _______ _______ _______ _____ _____    ______ ____
ROOT
ATOM      6  N   UNL     1      49.051   6.686  15.366  0.00  0.00    +0.000 N 
ATOM      7  C   UNL     1      49.011   5.896  16.516  0.00  0.00    +0.000 A 
ATOM     11  C   UNL     1      50.274   5.885  17.044  0.00  0.00    +0.000 A 
ATOM     12  C   UNL     1      51.125   6.636  16.226  0.00  0.00    +0.000 A 
ATOM     13  C   UNL     1      52.489   6.936  16.228  0.00  0.00    +0.000 A 
ATOM     14  C   UNL     1      52.991   7.760  15.219  0.00  0.00    +0.000 A 
ATOM     18  C   UNL     1      52.093   8.267  14.280  0.00  0.00    +0.000 A 
ATOM     19  N   UNL     1      50.751   8.031  14.239  0.00  0.00    +0.000 NA
ATOM     20  C   UNL     1      50.340   7.184  15.208  0.00  0.00    +0.000 A 
ENDROOT
BRANCH  14  15
ATOM     15  C   UNL     1      54.425   8.119  15.123  0.00  0.00    +0.000 C 
ATOM     16  N   UNL     1      55.088   7.875  13.947  0.00  0.00    +0.000 N 
ATOM     17  O   UNL     1      55.021   8.622  16.068  0.00  0.00    +0.000 OA
ATOM     29  H   UNL     1      54.681   7.486  13.111  0.00  0.00    +0.000 HD
ATOM     30  H   UNL     1      56.066   8.132  13.911  0.00  0.00    +0.000 HD
ENDBRANCH  14  15
BRANCH   7   8
ATOM      8  C   UNL     1      47.848   5.150  17.175  0.00  0.00    +0.000 C 
ATOM      9  C   UNL     1      48.212   3.956  18.030  0.00  0.00    +0.000 C 
ATOM     10  C   UNL     1      47.405   3.739  16.788  0.00  0.00    +0.000 C 
ENDBRANCH   7   8
BRANCH   6   5
ATOM      5  C   UNL     1      47.921   7.114  14.561  0.00  0.00    +0.000 C 
BRANCH   5   3
ATOM      1  C   UNL     1      45.663   7.867  12.906  0.00  0.00    +0.000 C 
ATOM      2  N   UNL     1      46.214   6.511  12.867  0.00  0.00    +0.000 N 
ATOM      3  C   UNL     1      47.316   6.076  13.633  0.00  0.00    +0.000 C 
ATOM      4  O   UNL     1      47.732   4.918  13.551  0.00  0.00    +0.000 OA
BRANCH   2  21
ATOM     21  C   UNL     1      45.471   5.481  12.110  0.00  0.00    +0.000 C 
ATOM     22  C   UNL     1      45.728   5.491  10.585  0.00  0.00    +0.000 C 
ATOM     23  C   UNL     1      44.733   4.612   9.815  0.00  0.00    +0.000 C 
ATOM     24  C   UNL     1      44.683   3.179  10.335  0.00  0.00    +0.000 C 
ATOM     25  C   UNL     1      43.628   3.210  11.443  0.00  0.00    +0.000 C 
ATOM     26  C   UNL     1      43.136   4.658  11.468  0.00  0.00    +0.000 C 
ATOM     27  C   UNL     1      43.956   5.550  12.412  0.00  0.00    +0.000 C 
ATOM     28  N   UNL     1      43.369   5.085  10.084  0.00  0.00    +0.000 NA
ATOM     31  H   UNL     1      43.303   6.098  10.000  0.00  0.00    +0.000 HD
ENDBRANCH   2  21
ENDBRANCH   5   3
ENDBRANCH   6   5
TORSDOF 5
ENDMDL
MODEL 3
REMARK VINA RESULT:    -6.774      3.973      8.602
REMARK INTER + INTRA:          -9.173
REMARK INTER:                  -8.225
REMARK INTRA:                  -0.947
REMARK UNBOUND:                -0.419
REMARK  Name = 
REMARK  6 active torsions:
REMARK  status: ('A' for Active; 'I' for Inactive)
REMARK    1  A    between atoms: C_1  and  N_2
REMARK    2  A    between atoms: N_2  and  C_21
REMARK    3  A    between atoms: C_3  and  C_5
REMARK    4  A    between atoms: C_5  and  N_6
REMARK    5  A    between atoms: C_7  and  C_8
REMARK    6  A    between atoms: C_14  and  C_15
REMARK                            x       y       z     vdW  Elec       q    Type
REMARK                         _______ _______ _______ _____ _____    ______ ____
ROOT
ATOM      6  N   UNL     1      46.948   5.549  14.583  0.00  0.00    +0.000 N 
ATOM      7  C   UNL     1      47.831   6.492  14.056  0.00  0.00    +0.000 A 
ATOM     11  C   UNL     1      48.848   6.645  14.960  0.00  0.00    +0.000 A 
ATOM     12  C   UNL     1      48.606   5.830  16.071  0.00  0.00    +0.000 A 
ATOM     13  C   UNL     1      49.247   5.605  17.291  0.00  0.00    +0.000 A 
ATOM     14  C   UNL     1      48.696   4.673  18.171  0.00  0.00    +0.000 A 
ATOM     18  C   UNL     1      47.548   3.991  17.768  0.00  0.00    +0.000 A 
ATOM     19  N   UNL     1      46.891   4.147  16.584  0.00  0.00    +0.000 NA
ATOM     20  C   UNL     1      47.444   5.102  15.803  0.00  0.00    +0.000 A 
ENDROOT
BRANCH  14  15
ATOM     15  C   UNL     1      49.290   4.379  19.497  0.00  0.00    +0.000 C 
ATOM     16  N   UNL     1      48.550   3.665  20.406  0.00  0.00    +0.000 N 
ATOM     17  O   UNL     1      50.416   4.762  19.790  0.00  0.00    +0.000 OA
ATOM     29  H   UNL     1      47.627   3.291  20.251  0.00  0.00    +0.000 HD
ATOM     30  H   UNL     1      48.982   3.479  21.302  0.00  0.00    +0.000 HD
ENDBRANCH  14  15
BRANCH   7   8
ATOM      8  C   UNL     1      47.796   7.264  12.733  0.00  0.00    +0.000 C 
ATOM      9  C   UNL     1      48.492   8.606  12.719  0.00  0.00    +0.000 C 
ATOM     10  C   UNL     1      47.010   8.556  12.515  0.00  0.00    +0.000 C 
ENDBRANCH   7   8
BRANCH   6   5
ATOM      5  C   UNL     1      45.806   4.952  13.914  0.00  0.00    +0.000 C 
BRANCH   5   3
ATOM      1  C   UNL     1      44.686   5.884  11.407  0.00  0.00    +0.000 C 
ATOM      2  N   UNL     1      45.507   4.674  11.468  0.00  0.00    +0.000 N 
ATOM      3  C   UNL     1      46.095   4.167  12.647  0.00  0.00    +0.000 C 
ATOM      4  O   UNL     1      46.779   3.142  12.629  0.00  0.00    +0.000 OA
BRANCH   2  21
ATOM     21  C   UNL     1      45.593   3.829  10.257  0.00  0.00    +0.000 C 
ATOM     22  C   UNL     1      45.652   4.614   8.927  0.00  0.00    +0.000 C 
ATOM     23  C   UNL     1      45.449   3.711   7.701  0.00  0.00    +0.000 C 
ATOM     24  C   UNL     1      46.418   2.535   7.666  0.00  0.00    +0.000 C 
ATOM     25  C   UNL     1      45.710   1.432   8.457  0.00  0.00    +0.000 C 
ATOM     26  C   UNL     1      44.377   2.052   8.877  0.00  0.00    +0.000 C 
ATOM     27  C   UNL     1      44.456   2.781  10.227  0.00  0.00    +0.000 C 
ATOM     28  N   UNL     1      44.149   3.038   7.814  0.00  0.00    +0.000 NA
ATOM     31  H   UNL     1      43.413   3.691   8.076  0.00  0.00    +0.000 HD
ENDBRANCH   2  21
ENDBRANCH   5   3
ENDBRANCH   6   5
TORSDOF 5
ENDMDL
MODEL 4
REMARK VINA RESULT:    -6.717      3.885      8.957
REMARK INTER + INTRA:          -9.099
REMARK INTER:                  -8.263
REMARK INTRA:                  -0.836
REMARK UNBOUND:                -0.419
REMARK  Name = 
REMARK  6 active torsions:
REMARK  status: ('A' for Active; 'I' for Inactive)
REMARK    1  A    between atoms: C_1  and  N_2
REMARK    2  A    between atoms: N_2  and  C_21
REMARK    3  A    between atoms: C_3  and  C_5
REMARK    4  A    between atoms: C_5  and  N_6
REMARK    5  A    between atoms: C_7  and  C_8
REMARK    6  A    between atoms: C_14  and  C_15
REMARK                            x       y       z     vdW  Elec       q    Type
REMARK                         _______ _______ _______ _____ _____    ______ ____
ROOT
ATOM      6  N   UNL     1      49.236   7.444  15.079  0.00  0.00    +0.000 N 
ATOM      7  C   UNL     1      50.586   7.636  14.783  0.00  0.00    +0.000 A 
ATOM     11  C   UNL     1      51.308   7.026  15.773  0.00  0.00    +0.000 A 
ATOM     12  C   UNL     1      50.432   6.472  16.712  0.00  0.00    +0.000 A 
ATOM     13  C   UNL     1      50.579   5.790  17.922  0.00  0.00    +0.000 A 
ATOM     14  C   UNL     1      49.430   5.365  18.592  0.00  0.00    +0.000 A 
ATOM     18  C   UNL     1      48.194   5.617  17.996  0.00  0.00    +0.000 A 
ATOM     19  N   UNL     1      47.986   6.253  16.809  0.00  0.00    +0.000 NA
ATOM     20  C   UNL     1      49.134   6.687  16.241  0.00  0.00    +0.000 A 
ENDROOT
BRANCH  14  15
ATOM     15  C   UNL     1      49.481   4.654  19.890  0.00  0.00    +0.000 C 
ATOM     16  N   UNL     1      48.586   3.640  20.121  0.00  0.00    +0.000 N 
ATOM     17  O   UNL     1      50.299   4.956  20.751  0.00  0.00    +0.000 OA
ATOM     29  H   UNL     1      47.893   3.306  19.470  0.00  0.00    +0.000 HD
ATOM     30  H   UNL     1      48.646   3.171  21.017  0.00  0.00    +0.000 HD
ENDBRANCH  14  15
BRANCH   7   8
ATOM      8  C   UNL     1      51.260   8.351  13.608  0.00  0.00    +0.000 C 
ATOM      9  C   UNL     1      52.559   9.064  13.910  0.00  0.00    +0.000 C 
ATOM     10  C   UNL     1      51.372   9.869  13.480  0.00  0.00    +0.000 C 
ENDBRANCH   7   8
BRANCH   6   5
ATOM      5  C   UNL     1      48.101   7.777  14.236  0.00  0.00    +0.000 C 
BRANCH   5   3
ATOM      1  C   UNL     1      45.590   8.222  12.858  0.00  0.00    +0.000 C 
ATOM      2  N   UNL     1      46.277   6.932  12.785  0.00  0.00    +0.000 N 
ATOM      3  C   UNL     1      47.506   6.646  13.418  0.00  0.00    +0.000 C 
ATOM      4  O   UNL     1      48.033   5.536  13.314  0.00  0.00    +0.000 OA
BRANCH   2  21
ATOM     21  C   UNL     1      45.566   5.800  12.154  0.00  0.00    +0.000 C 
ATOM     22  C   UNL     1      45.732   5.709  10.620  0.00  0.00    +0.000 C 
ATOM     23  C   UNL     1      44.758   4.709   9.980  0.00  0.00    +0.000 C 
ATOM     24  C   UNL     1      44.839   3.321  10.605  0.00  0.00    +0.000 C 
ATOM     25  C   UNL     1      43.850   3.368  11.773  0.00  0.00    +0.000 C 
ATOM     26  C   UNL     1      43.261   4.779  11.723  0.00  0.00    +0.000 C 
ATOM     27  C   UNL     1      44.070   5.793  12.545  0.00  0.00    +0.000 C 
ATOM     28  N   UNL     1      43.382   5.112  10.299  0.00  0.00    +0.000 NA
ATOM     31  H   UNL     1      43.242   6.109  10.146  0.00  0.00    +0.000 HD
ENDBRANCH   2  21
ENDBRANCH   5   3
ENDBRANCH   6   5
TORSDOF 5
ENDMDL
MODEL 5
REMARK VINA RESULT:    -6.655      3.242      8.508
REMARK INTER + INTRA:          -9.020
REMARK INTER:                  -7.937
REMARK INTRA:                  -1.083
REMARK UNBOUND:                -0.419
REMARK  Name = 
REMARK  6 active torsions:
REMARK  status: ('A' for Active; 'I' for Inactive)
REMARK    1  A    between atoms: C_1  and  N_2
REMARK    2  A    between atoms: N_2  and  C_21
REMARK    3  A    between atoms: C_3  and  C_5
REMARK    4  A    between atoms: C_5  and  N_6
REMARK    5  A    between atoms: C_7  and  C_8
REMARK    6  A    between atoms: C_14  and  C_15
REMARK                            x       y       z     vdW  Elec       q    Type
REMARK                         _______ _______ _______ _____ _____    ______ ____
ROOT
ATOM      6  N   UNL     1      49.010   7.851  13.930  0.00  0.00    +0.000 N 
ATOM      7  C   UNL     1      49.616   8.572  12.900  0.00  0.00    +0.000 A 
ATOM     11  C   UNL     1      50.964   8.567  13.140  0.00  0.00    +0.000 A 
ATOM     12  C   UNL     1      51.220   7.873  14.328  0.00  0.00    +0.000 A 
ATOM     13  C   UNL     1      52.361   7.588  15.081  0.00  0.00    +0.000 A 
ATOM     14  C   UNL     1      52.220   6.830  16.244  0.00  0.00    +0.000 A 
ATOM     18  C   UNL     1      50.945   6.369  16.575  0.00  0.00    +0.000 A 
ATOM     19  N   UNL     1      49.800   6.592  15.870  0.00  0.00    +0.000 NA
ATOM     20  C   UNL     1      49.997   7.378  14.788  0.00  0.00    +0.000 A 
ENDROOT
BRANCH  14  15
ATOM     15  C   UNL     1      53.366   6.493  17.121  0.00  0.00    +0.000 C 
ATOM     16  N   UNL     1      53.952   5.259  16.992  0.00  0.00    +0.000 N 
ATOM     17  O   UNL     1      53.789   7.288  17.950  0.00  0.00    +0.000 OA
ATOM     29  H   UNL     1      53.689   4.548  16.328  0.00  0.00    +0.000 HD
ATOM     30  H   UNL     1      54.733   5.057  17.603  0.00  0.00    +0.000 HD
ENDBRANCH  14  15
BRANCH   7   8
ATOM      8  C   UNL     1      49.011   9.267  11.677  0.00  0.00    +0.000 C 
ATOM      9  C   UNL     1      49.572  10.628  11.330  0.00  0.00    +0.000 C 
ATOM     10  C   UNL     1      48.138  10.519  11.746  0.00  0.00    +0.000 C 
ENDBRANCH   7   8
BRANCH   6   5
ATOM      5  C   UNL     1      47.615   7.459  14.017  0.00  0.00    +0.000 C 
BRANCH   5   3
ATOM      1  C   UNL     1      45.495   7.904  12.090  0.00  0.00    +0.000 C 
ATOM      2  N   UNL     1      46.133   6.593  12.228  0.00  0.00    +0.000 N 
ATOM      3  C   UNL     1      47.177   6.305  13.133  0.00  0.00    +0.000 C 
ATOM      4  O   UNL     1      47.672   5.178  13.197  0.00  0.00    +0.000 OA
BRANCH   2  21
ATOM     21  C   UNL     1      45.540   5.452  11.499  0.00  0.00    +0.000 C 
ATOM     22  C   UNL     1      45.833   5.434   9.981  0.00  0.00    +0.000 C 
ATOM     23  C   UNL     1      44.971   4.410   9.227  0.00  0.00    +0.000 C 
ATOM     24  C   UNL     1      45.082   3.004   9.805  0.00  0.00    +0.000 C 
ATOM     25  C   UNL     1      44.002   2.949  10.889  0.00  0.00    +0.000 C 
ATOM     26  C   UNL     1      43.339   4.326  10.844  0.00  0.00    +0.000 C 
ATOM     27  C   UNL     1      44.021   5.348  11.766  0.00  0.00    +0.000 C 
ATOM     28  N   UNL     1      43.554   4.724   9.448  0.00  0.00    +0.000 NA
ATOM     31  H   UNL     1      43.369   5.717   9.321  0.00  0.00    +0.000 HD
ENDBRANCH   2  21
ENDBRANCH   5   3
ENDBRANCH   6   5
TORSDOF 5
ENDMDL
MODEL 6
REMARK VINA RESULT:    -6.640      3.392      5.016
REMARK INTER + INTRA:          -8.999
REMARK INTER:                  -8.056
REMARK INTRA:                  -0.943
REMARK UNBOUND:                -0.419
REMARK  Name = 
REMARK  6 active torsions:
REMARK  status: ('A' for Active; 'I' for Inactive)
REMARK    1  A    between atoms: C_1  and  N_2
REMARK    2  A    between atoms: N_2  and  C_21
REMARK    3  A    between atoms: C_3  and  C_5
REMARK    4  A    between atoms: C_5  and  N_6
REMARK    5  A    between atoms: C_7  and  C_8
REMARK    6  A    between atoms: C_14  and  C_15
REMARK                            x       y       z     vdW  Elec       q    Type
REMARK                         _______ _______ _______ _____ _____    ______ ____
ROOT
ATOM      6  N   UNL     1      47.276   6.171  14.085  0.00  0.00    +0.000 N 
ATOM      7  C   UNL     1      47.465   5.118  14.981  0.00  0.00    +0.000 A 
ATOM     11  C   UNL     1      46.874   4.010  14.435  0.00  0.00    +0.000 A 
ATOM     12  C   UNL     1      46.285   4.354  13.214  0.00  0.00    +0.000 A 
ATOM     13  C   UNL     1      45.524   3.678  12.257  0.00  0.00    +0.000 A 
ATOM     14  C   UNL     1      45.111   4.375  11.120  0.00  0.00    +0.000 A 
ATOM     18  C   UNL     1      45.511   5.705  10.986  0.00  0.00    +0.000 A 
ATOM     19  N   UNL     1      46.271   6.411  11.870  0.00  0.00    +0.000 NA
ATOM     20  C   UNL     1      46.589   5.696  12.972  0.00  0.00    +0.000 A 
ENDROOT
BRANCH  14  15
ATOM     15  C   UNL     1      44.285   3.753  10.059  0.00  0.00    +0.000 C 
ATOM     16  N   UNL     1      44.106   4.432   8.880  0.00  0.00    +0.000 N 
ATOM     17  O   UNL     1      43.763   2.656  10.219  0.00  0.00    +0.000 OA
ATOM     29  H   UNL     1      44.509   5.326   8.648  0.00  0.00    +0.000 HD
ATOM     30  H   UNL     1      43.538   3.982   8.174  0.00  0.00    +0.000 HD
ENDBRANCH  14  15
BRANCH   7   8
ATOM      8  C   UNL     1      48.188   5.072  16.330  0.00  0.00    +0.000 C 
ATOM      9  C   UNL     1      48.162   3.749  17.062  0.00  0.00    +0.000 C 
ATOM     10  C   UNL     1      47.480   4.932  17.677  0.00  0.00    +0.000 C 
ENDBRANCH   7   8
BRANCH   6   5
ATOM      5  C   UNL     1      47.858   7.499  14.162  0.00  0.00    +0.000 C 
BRANCH   5   3
ATOM      1  C   UNL     1      48.506   9.138  11.860  0.00  0.00    +0.000 C 
ATOM      2  N   UNL     1      49.549   8.433  12.608  0.00  0.00    +0.000 N 
ATOM      3  C   UNL     1      49.311   7.629  13.743  0.00  0.00    +0.000 C 
ATOM      4  O   UNL     1      50.237   7.064  14.329  0.00  0.00    +0.000 OA
BRANCH   2  21
ATOM     21  C   UNL     1      50.917   8.419  12.048  0.00  0.00    +0.000 C 
ATOM     22  C   UNL     1      51.489   9.814  11.708  0.00  0.00    +0.000 C 
ATOM     23  C   UNL     1      52.775   9.736  10.872  0.00  0.00    +0.000 C 
ATOM     24  C   UNL     1      53.848   8.866  11.518  0.00  0.00    +0.000 C 
ATOM     25  C   UNL     1      53.559   7.455  11.002  0.00  0.00    +0.000 C 
ATOM     26  C   UNL     1      52.347   7.619  10.084  0.00  0.00    +0.000 C 
ATOM     27  C   UNL     1      51.010   7.475  10.827  0.00  0.00    +0.000 C 
ATOM     28  N   UNL     1      52.494   9.007   9.629  0.00  0.00    +0.000 NA
ATOM     31  H   UNL     1      51.636   9.338   9.190  0.00  0.00    +0.000 HD
ENDBRANCH   2  21
ENDBRANCH   5   3
ENDBRANCH   6   5
TORSDOF 5
ENDMDL
MODEL 7
REMARK VINA RESULT:    -6.421      3.008      7.720
REMARK INTER + INTRA:          -8.717
REMARK INTER:                  -7.733
REMARK INTRA:                  -0.984
REMARK UNBOUND:                -0.419
REMARK  Name = 
REMARK  6 active torsions:
REMARK  status: ('A' for Active; 'I' for Inactive)
REMARK    1  A    between atoms: C_1  and  N_2
REMARK    2  A    between atoms: N_2  and  C_21
REMARK    3  A    between atoms: C_3  and  C_5
REMARK    4  A    between atoms: C_5  and  N_6
REMARK    5  A    between atoms: C_7  and  C_8
REMARK    6  A    between atoms: C_14  and  C_15
REMARK                            x       y       z     vdW  Elec       q    Type
REMARK                         _______ _______ _______ _____ _____    ______ ____
ROOT
ATOM      6  N   UNL     1      49.379   7.566  14.394  0.00  0.00    +0.000 N 
ATOM      7  C   UNL     1      50.252   7.293  15.448  0.00  0.00    +0.000 A 
ATOM     11  C   UNL     1      51.497   7.711  15.061  0.00  0.00    +0.000 A 
ATOM     12  C   UNL     1      51.431   8.221  13.760  0.00  0.00    +0.000 A 
ATOM     13  C   UNL     1      52.358   8.734  12.850  0.00  0.00    +0.000 A 
ATOM     14  C   UNL     1      51.899   9.174  11.608  0.00  0.00    +0.000 A 
ATOM     18  C   UNL     1      50.529   9.107  11.355  0.00  0.00    +0.000 A 
ATOM     19  N   UNL     1      49.573   8.642  12.208  0.00  0.00    +0.000 NA
ATOM     20  C   UNL     1      50.090   8.181  13.369  0.00  0.00    +0.000 A 
ENDROOT
BRANCH  14  15
ATOM     15  C   UNL     1      52.806   9.714  10.568  0.00  0.00    +0.000 C 
ATOM     16  N   UNL     1      52.367  10.754   9.787  0.00  0.00    +0.000 N 
ATOM     17  O   UNL     1      53.926   9.249  10.395  0.00  0.00    +0.000 OA
ATOM     29  H   UNL     1      51.475  11.215   9.867  0.00  0.00    +0.000 HD
ATOM     30  H   UNL     1      53.009  11.102   9.086  0.00  0.00    +0.000 HD
ENDBRANCH  14  15
BRANCH   7   8
ATOM      8  C   UNL     1      49.994   6.670  16.823  0.00  0.00    +0.000 C 
ATOM      9  C   UNL     1      50.901   5.528  17.225  0.00  0.00    +0.000 C 
ATOM     10  C   UNL     1      49.440   5.261  17.035  0.00  0.00    +0.000 C 
ENDBRANCH   7   8
BRANCH   6   5
ATOM      5  C   UNL     1      47.932   7.439  14.403  0.00  0.00    +0.000 C 
BRANCH   5   3
ATOM      1  C   UNL     1      45.622   8.035  12.756  0.00  0.00    +0.000 C 
ATOM      2  N   UNL     1      46.212   6.696  12.780  0.00  0.00    +0.000 N 
ATOM      3  C   UNL     1      47.341   6.335  13.546  0.00  0.00    +0.000 C 
ATOM      4  O   UNL     1      47.789   5.187  13.518  0.00  0.00    +0.000 OA
BRANCH   2  21
ATOM     21  C   UNL     1      45.486   5.605  12.095  0.00  0.00    +0.000 C 
ATOM     22  C   UNL     1      45.683   5.562  10.562  0.00  0.00    +0.000 C 
ATOM     23  C   UNL     1      44.698   4.610   9.869  0.00  0.00    +0.000 C 
ATOM     24  C   UNL     1      44.731   3.199  10.447  0.00  0.00    +0.000 C 
ATOM     25  C   UNL     1      43.720   3.232  11.595  0.00  0.00    +0.000 C 
ATOM     26  C   UNL     1      43.166   4.658  11.583  0.00  0.00    +0.000 C 
ATOM     27  C   UNL     1      43.983   5.622  12.456  0.00  0.00    +0.000 C 
ATOM     28  N   UNL     1      43.326   5.036  10.174  0.00  0.00    +0.000 NA
ATOM     31  H   UNL     1      43.213   6.041  10.053  0.00  0.00    +0.000 HD
ENDBRANCH   2  21
ENDBRANCH   5   3
ENDBRANCH   6   5
TORSDOF 5
ENDMDL
MODEL 8
REMARK VINA RESULT:    -6.406      3.745      6.325
REMARK INTER + INTRA:          -8.698
REMARK INTER:                  -8.156
REMARK INTRA:                  -0.542
REMARK UNBOUND:                -0.419
REMARK  Name = 
REMARK  6 active torsions:
REMARK  status: ('A' for Active; 'I' for Inactive)
REMARK    1  A    between atoms: C_1  and  N_2
REMARK    2  A    between atoms: N_2  and  C_21
REMARK    3  A    between atoms: C_3  and  C_5
REMARK    4  A    between atoms: C_5  and  N_6
REMARK    5  A    between atoms: C_7  and  C_8
REMARK    6  A    between atoms: C_14  and  C_15
REMARK                            x       y       z     vdW  Elec       q    Type
REMARK                         _______ _______ _______ _____ _____    ______ ____
ROOT
ATOM      6  N   UNL     1      47.694   7.145  13.288  0.00  0.00    +0.000 N 
ATOM      7  C   UNL     1      47.168   8.338  12.790  0.00  0.00    +0.000 A 
ATOM     11  C   UNL     1      45.954   8.043  12.231  0.00  0.00    +0.000 A 
ATOM     12  C   UNL     1      45.713   6.670  12.342  0.00  0.00    +0.000 A 
ATOM     13  C   UNL     1      44.697   5.806  11.927  0.00  0.00    +0.000 A 
ATOM     14  C   UNL     1      44.803   4.451  12.246  0.00  0.00    +0.000 A 
ATOM     18  C   UNL     1      45.907   4.038  12.992  0.00  0.00    +0.000 A 
ATOM     19  N   UNL     1      46.916   4.834  13.446  0.00  0.00    +0.000 NA
ATOM     20  C   UNL     1      46.781   6.121  13.057  0.00  0.00    +0.000 A 
ENDROOT
BRANCH  14  15
ATOM     15  C   UNL     1      43.789   3.453  11.833  0.00  0.00    +0.000 C 
ATOM     16  N   UNL     1      43.734   2.256  12.500  0.00  0.00    +0.000 N 
ATOM     17  O   UNL     1      43.010   3.679  10.915  0.00  0.00    +0.000 OA
ATOM     29  H   UNL     1      44.315   1.987  13.278  0.00  0.00    +0.000 HD
ATOM     30  H   UNL     1      43.030   1.594  12.196  0.00  0.00    +0.000 HD
ENDBRANCH  14  15
BRANCH   7   8
ATOM      8  C   UNL     1      47.727   9.764  12.816  0.00  0.00    +0.000 C 
ATOM      9  C   UNL     1      47.218  10.705  11.748  0.00  0.00    +0.000 C 
ATOM     10  C   UNL     1      48.668  10.334  11.755  0.00  0.00    +0.000 C 
ENDBRANCH   7   8
BRANCH   6   5
ATOM      5  C   UNL     1      48.888   6.989  14.100  0.00  0.00    +0.000 C 
BRANCH   5   3
ATOM      1  C   UNL     1      48.740   9.044  16.140  0.00  0.00    +0.000 C 
ATOM      2  N   UNL     1      48.627   7.625  16.482  0.00  0.00    +0.000 N 
ATOM      3  C   UNL     1      48.677   6.571  15.544  0.00  0.00    +0.000 C 
ATOM      4  O   UNL     1      48.573   5.396  15.900  0.00  0.00    +0.000 OA
BRANCH   2  21
ATOM     21  C   UNL     1      48.630   7.253  17.913  0.00  0.00    +0.000 C 
ATOM     22  C   UNL     1      47.679   8.090  18.799  0.00  0.00    +0.000 C 
ATOM     23  C   UNL     1      47.926   7.870  20.299  0.00  0.00    +0.000 C 
ATOM     24  C   UNL     1      47.867   6.399  20.699  0.00  0.00    +0.000 C 
ATOM     25  C   UNL     1      49.297   5.891  20.502  0.00  0.00    +0.000 C 
ATOM     26  C   UNL     1      50.078   7.113  20.017  0.00  0.00    +0.000 C 
ATOM     27  C   UNL     1      50.066   7.262  18.488  0.00  0.00    +0.000 C 
ATOM     28  N   UNL     1      49.318   8.219  20.611  0.00  0.00    +0.000 NA
ATOM     31  H   UNL     1      49.581   9.108  20.190  0.00  0.00    +0.000 HD
ENDBRANCH   2  21
ENDBRANCH   5   3
ENDBRANCH   6   5
TORSDOF 5
ENDMDL
MODEL 9
REMARK VINA RESULT:    -6.372      4.434      6.960
REMARK INTER + INTRA:          -8.654
REMARK INTER:                  -7.617
REMARK INTRA:                  -1.036
REMARK UNBOUND:                -0.419
REMARK  Name = 
REMARK  6 active torsions:
REMARK  status: ('A' for Active; 'I' for Inactive)
REMARK    1  A    between atoms: C_1  and  N_2
REMARK    2  A    between atoms: N_2  and  C_21
REMARK    3  A    between atoms: C_3  and  C_5
REMARK    4  A    between atoms: C_5  and  N_6
REMARK    5  A    between atoms: C_7  and  C_8
REMARK    6  A    between atoms: C_14  and  C_15
REMARK                            x       y       z     vdW  Elec       q    Type
REMARK                         _______ _______ _______ _____ _____    ______ ____
ROOT
ATOM      6  N   UNL     1      47.958   7.318  13.947  0.00  0.00    +0.000 N 
ATOM      7  C   UNL     1      48.097   8.210  12.883  0.00  0.00    +0.000 A 
ATOM     11  C   UNL     1      47.362   7.713  11.840  0.00  0.00    +0.000 A 
ATOM     12  C   UNL     1      46.780   6.499  12.220  0.00  0.00    +0.000 A 
ATOM     13  C   UNL     1      45.989   5.539  11.585  0.00  0.00    +0.000 A 
ATOM     14  C   UNL     1      45.574   4.426  12.319  0.00  0.00    +0.000 A 
ATOM     18  C   UNL     1      45.948   4.350  13.661  0.00  0.00    +0.000 A 
ATOM     19  N   UNL     1      46.696   5.263  14.342  0.00  0.00    +0.000 NA
ATOM     20  C   UNL     1      47.110   6.286  13.561  0.00  0.00    +0.000 A 
ENDROOT
BRANCH  14  15
ATOM     15  C   UNL     1      44.751   3.344  11.730  0.00  0.00    +0.000 C 
ATOM     16  N   UNL     1      43.980   2.575  12.564  0.00  0.00    +0.000 N 
ATOM     17  O   UNL     1      44.752   3.127  10.525  0.00  0.00    +0.000 OA
ATOM     29  H   UNL     1      43.897   2.689  13.562  0.00  0.00    +0.000 HD
ATOM     30  H   UNL     1      43.427   1.845  12.134  0.00  0.00    +0.000 HD
ENDBRANCH  14  15
BRANCH   7   8
ATOM      8  C   UNL     1      48.871   9.527  12.777  0.00  0.00    +0.000 C 
ATOM      9  C   UNL     1      49.223   9.990  11.381  0.00  0.00    +0.000 C 
ATOM     10  C   UNL     1      50.327   9.631  12.325  0.00  0.00    +0.000 C 
ENDBRANCH   7   8
BRANCH   6   5
ATOM      5  C   UNL     1      48.429   7.504  15.308  0.00  0.00    +0.000 C 
BRANCH   5   3
ATOM      1  C   UNL     1      48.390   5.644  17.532  0.00  0.00    +0.000 C 
ATOM      2  N   UNL     1      49.621   5.909  16.785  0.00  0.00    +0.000 N 
ATOM      3  C   UNL     1      49.714   6.790  15.686  0.00  0.00    +0.000 C 
ATOM      4  O   UNL     1      50.783   6.965  15.099  0.00  0.00    +0.000 OA
BRANCH   2  21
ATOM     21  C   UNL     1      50.886   5.354  17.312  0.00  0.00    +0.000 C 
ATOM     22  C   UNL     1      50.889   3.819  17.499  0.00  0.00    +0.000 C 
ATOM     23  C   UNL     1      52.098   3.327  18.308  0.00  0.00    +0.000 C 
ATOM     24  C   UNL     1      53.428   3.793  17.727  0.00  0.00    +0.000 C 
ATOM     25  C   UNL     1      53.680   5.151  18.386  0.00  0.00    +0.000 C 
ATOM     26  C   UNL     1      52.481   5.360  19.311  0.00  0.00    +0.000 C 
ATOM     27  C   UNL     1      51.307   6.067  18.617  0.00  0.00    +0.000 C 
ATOM     28  N   UNL     1      52.090   3.980  19.624  0.00  0.00    +0.000 NA
ATOM     31  H   UNL     1      51.165   3.952  20.048  0.00  0.00    +0.000 HD
ENDBRANCH   2  21
ENDBRANCH   5   3
ENDBRANCH   6   5
TORSDOF 5
ENDMDL
