MODEL 1
REMARK VINA RESULT:    -7.979      0.000      0.000
REMARK INTER + INTRA:         -12.615
REMARK INTER:                 -11.244
REMARK INTRA:                  -1.371
REMARK UNBOUND:                -1.371
REMARK  Name = 
REMARK  8 active torsions:
REMARK  status: ('A' for Active; 'I' for Inactive)
REMARK    1  A    between atoms: C_1  and  C_2
REMARK    2  A    between atoms: C_2  and  N_3
REMARK    3  A    between atoms: N_3  and  C_4
REMARK    4  A    between atoms: N_3  and  C_25
REMARK    5  A    between atoms: C_4  and  C_5
REMARK    6  A    between atoms: C_8  and  C_9
REMARK    7  A    between atoms: C_9  and  N_10
REMARK    8  A    between atoms: C_11  and  C_13
REMARK                            x       y       z     vdW  Elec       q    Type
REMARK                         _______ _______ _______ _____ _____    ______ ____
ROOT
ATOM      5  C   UNL     1      44.810   5.686  10.575  0.00  0.00    +0.000 A 
ATOM      6  C   UNL     1      44.158   6.238  11.691  0.00  0.00    +0.000 A 
ATOM      7  C   UNL     1      44.859   7.039  12.619  0.00  0.00    +0.000 A 
ATOM      8  C   UNL     1      46.241   7.230  12.489  0.00  0.00    +0.000 A 
ATOM     23  C   UNL     1      46.894   6.627  11.410  0.00  0.00    +0.000 A 
ATOM     24  C   UNL     1      46.179   5.941  10.430  0.00  0.00    +0.000 A 
ENDROOT
BRANCH   5   4
ATOM      4  C   UNL     1      44.109   4.733   9.613  0.00  0.00    +0.000 C 
BRANCH   4   3
ATOM      3  N   UNL     1      44.436   3.284   9.694  0.00  0.00    +0.000 NA
BRANCH   3  25
ATOM     25  C   UNL     1      45.680   2.952   8.869  0.00  0.00    +0.000 C 
ATOM     26  C   UNL     1      45.813   3.790   7.565  0.00  0.00    +0.000 C 
ATOM     27  C   UNL     1      46.927   3.340   6.612  0.00  0.00    +0.000 C 
ATOM     28  C   UNL     1      46.819   1.861   6.285  0.00  0.00    +0.000 C 
ATOM     29  C   UNL     1      46.898   1.058   7.568  0.00  0.00    +0.000 C 
ATOM     30  C   UNL     1      45.766   1.433   8.521  0.00  0.00    +0.000 C 
ENDBRANCH   3  25
BRANCH   3   2
ATOM      1  C   UNL     1      43.461   2.546  12.023  0.00  0.00    +0.000 C 
ATOM      2  C   UNL     1      44.636   2.793  11.080  0.00  0.00    +0.000 C 
ENDBRANCH   3   2
ENDBRANCH   4   3
ENDBRANCH   5   4
BRANCH   8   9
ATOM      9  C   UNL     1      47.062   8.076  13.436  0.00  0.00    +0.000 C 
BRANCH   9  10
ATOM     10  N   UNL     1      47.522   7.317  14.569  0.00  0.00    +0.000 N 
ATOM     11  C   UNL     1      48.797   6.826  14.643  0.00  0.00    +0.000 C 
ATOM     12  O   UNL     1      49.637   7.002  13.764  0.00  0.00    +0.000 OA
ATOM     31  H   UNL     1      46.800   6.860  15.116  0.00  0.00    +0.000 HD
BRANCH  11  13
ATOM     13  C   UNL     1      49.121   6.139  15.893  0.00  0.00    +0.000 A 
ATOM     14  C   UNL     1      50.192   6.567  16.670  0.00  0.00    +0.000 A 
ATOM     15  S   UNL     1      50.357   5.700  18.131  0.00  0.00    +0.000 S 
ATOM     16  C   UNL     1      49.036   4.696  17.754  0.00  0.00    +0.000 A 
ATOM     17  N   UNL     1      48.636   3.696  18.598  0.00  0.00    +0.000 NA
ATOM     18  C   UNL     1      47.621   3.032  18.187  0.00  0.00    +0.000 A 
ATOM     19  N   UNL     1      46.955   3.242  17.017  0.00  0.00    +0.000 N 
ATOM     20  C   UNL     1      47.321   4.226  16.123  0.00  0.00    +0.000 A 
ATOM     21  O   UNL     1      46.705   4.395  15.072  0.00  0.00    +0.000 OA
ATOM     22  C   UNL     1      48.472   5.032  16.539  0.00  0.00    +0.000 A 
ATOM     32  H   UNL     1      46.170   2.679  16.746  0.00  0.00    +0.000 HD
ENDBRANCH  11  13
ENDBRANCH   9  10
ENDBRANCH   8   9
TORSDOF 7
ENDMDL
MODEL 2
REMARK VINA RESULT:    -7.664      2.433      3.154
REMARK INTER + INTRA:         -12.171
REMARK INTER:                 -10.986
REMARK INTRA:                  -1.185
REMARK UNBOUND:                -1.371
REMARK  Name = 
REMARK  8 active torsions:
REMARK  status: ('A' for Active; 'I' for Inactive)
REMARK    1  A    between atoms: C_1  and  C_2
REMARK    2  A    between atoms: C_2  and  N_3
REMARK    3  A    between atoms: N_3  and  C_4
REMARK    4  A    between atoms: N_3  and  C_25
REMARK    5  A    between atoms: C_4  and  C_5
REMARK    6  A    between atoms: C_8  and  C_9
REMARK    7  A    between atoms: C_9  and  N_10
REMARK    8  A    between atoms: C_11  and  C_13
REMARK                            x       y       z     vdW  Elec       q    Type
REMARK                         _______ _______ _______ _____ _____    ______ ____
ROOT
ATOM      5  C   UNL     1      46.081   4.900  12.851  0.00  0.00    +0.000 A 
ATOM      6  C   UNL     1      46.504   4.354  14.074  0.00  0.00    +0.000 A 
ATOM      7  C   UNL     1      47.381   5.065  14.923  0.00  0.00    +0.000 A 
ATOM      8  C   UNL     1      47.913   6.297  14.520  0.00  0.00    +0.000 A 
ATOM     23  C   UNL     1      47.536   6.806  13.275  0.00  0.00    +0.000 A 
ATOM     24  C   UNL     1      46.576   6.161  12.495  0.00  0.00    +0.000 A 
ENDROOT
BRANCH   5   4
ATOM      4  C   UNL     1      45.220   4.117  11.865  0.00  0.00    +0.000 C 
BRANCH   4   3
ATOM      3  N   UNL     1      44.700   4.827  10.666  0.00  0.00    +0.000 NA
BRANCH   3  25
ATOM     25  C   UNL     1      44.796   3.948   9.418  0.00  0.00    +0.000 C 
ATOM     26  C   UNL     1      45.084   2.450   9.724  0.00  0.00    +0.000 C 
ATOM     27  C   UNL     1      45.396   1.583   8.499  0.00  0.00    +0.000 C 
ATOM     28  C   UNL     1      46.515   2.179   7.663  0.00  0.00    +0.000 C 
ATOM     29  C   UNL     1      46.114   3.568   7.209  0.00  0.00    +0.000 C 
ATOM     30  C   UNL     1      45.854   4.483   8.403  0.00  0.00    +0.000 C 
ENDBRANCH   3  25
BRANCH   3   2
ATOM      1  C   UNL     1      42.575   5.261  12.154  0.00  0.00    +0.000 C 
ATOM      2  C   UNL     1      43.301   5.299  10.812  0.00  0.00    +0.000 C 
ENDBRANCH   3   2
ENDBRANCH   4   3
ENDBRANCH   5   4
BRANCH   8   9
ATOM      9  C   UNL     1      48.853   7.121  15.371  0.00  0.00    +0.000 C 
BRANCH   9  10
ATOM     10  N   UNL     1      49.937   6.330  15.890  0.00  0.00    +0.000 N 
ATOM     11  C   UNL     1      49.948   5.873  17.179  0.00  0.00    +0.000 C 
ATOM     12  O   UNL     1      49.040   6.092  17.978  0.00  0.00    +0.000 OA
ATOM     31  H   UNL     1      50.825   6.430  15.411  0.00  0.00    +0.000 HD
BRANCH  11  13
ATOM     13  C   UNL     1      51.089   5.025  17.524  0.00  0.00    +0.000 A 
ATOM     14  C   UNL     1      52.269   5.593  17.989  0.00  0.00    +0.000 A 
ATOM     15  S   UNL     1      53.451   4.440  18.422  0.00  0.00    +0.000 S 
ATOM     16  C   UNL     1      52.445   3.148  17.959  0.00  0.00    +0.000 A 
ATOM     17  N   UNL     1      52.863   1.849  18.058  0.00  0.00    +0.000 NA
ATOM     18  C   UNL     1      51.995   0.985  17.684  0.00  0.00    +0.000 A 
ATOM     19  N   UNL     1      50.748   1.265  17.209  0.00  0.00    +0.000 N 
ATOM     20  C   UNL     1      50.280   2.555  17.075  0.00  0.00    +0.000 A 
ATOM     21  O   UNL     1      49.152   2.783  16.642  0.00  0.00    +0.000 OA
ATOM     22  C   UNL     1      51.223   3.594  17.497  0.00  0.00    +0.000 A 
ATOM     32  H   UNL     1      50.115   0.541  16.922  0.00  0.00    +0.000 HD
ENDBRANCH  11  13
ENDBRANCH   9  10
ENDBRANCH   8   9
TORSDOF 7
ENDMDL
MODEL 3
REMARK VINA RESULT:    -7.277      4.485      9.281
REMARK INTER + INTRA:         -11.627
REMARK INTER:                 -10.408
REMARK INTRA:                  -1.219
REMARK UNBOUND:                -1.371
REMARK  Name = 
REMARK  8 active torsions:
REMARK  status: ('A' for Active; 'I' for Inactive)
REMARK    1  A    between atoms: C_1  and  C_2
REMARK    2  A    between atoms: C_2  and  N_3
REMARK    3  A    between atoms: N_3  and  C_4
REMARK    4  A    between atoms: N_3  and  C_25
REMARK    5  A    between atoms: C_4  and  C_5
REMARK    6  A    between atoms: C_8  and  C_9
REMARK    7  A    between atoms: C_9  and  N_10
REMARK    8  A    between atoms: C_11  and  C_13
REMARK                            x       y       z     vdW  Elec       q    Type
REMARK                         _______ _______ _______ _____ _____    ______ ____
ROOT
ATOM      5  C   UNL     1      51.441   3.087  17.684  0.00  0.00    +0.000 A 
ATOM      6  C   UNL     1      50.754   4.284  17.948  0.00  0.00    +0.000 A 
ATOM      7  C   UNL     1      49.366   4.393  17.710  0.00  0.00    +0.000 A 
ATOM      8  C   UNL     1      48.661   3.333  17.126  0.00  0.00    +0.000 A 
ATOM     23  C   UNL     1      49.363   2.166  16.810  0.00  0.00    +0.000 A 
ATOM     24  C   UNL     1      50.705   2.017  17.159  0.00  0.00    +0.000 A 
ENDROOT
BRANCH   5   4
ATOM      4  C   UNL     1      52.954   2.968  17.831  0.00  0.00    +0.000 C 
BRANCH   4   3
ATOM      3  N   UNL     1      53.491   2.062  18.881  0.00  0.00    +0.000 NA
BRANCH   3  25
ATOM     25  C   UNL     1      54.472   1.050  18.289  0.00  0.00    +0.000 C 
ATOM     26  C   UNL     1      54.909   1.375  16.832  0.00  0.00    +0.000 C 
ATOM     27  C   UNL     1      55.719   0.276  16.134  0.00  0.00    +0.000 C 
ATOM     28  C   UNL     1      55.007  -1.064  16.189  0.00  0.00    +0.000 C 
ATOM     29  C   UNL     1      54.777  -1.449  17.636  0.00  0.00    +0.000 C 
ATOM     30  C   UNL     1      53.919  -0.409  18.352  0.00  0.00    +0.000 C 
ENDBRANCH   3  25
BRANCH   3   2
ATOM      1  C   UNL     1      53.447   3.870  20.791  0.00  0.00    +0.000 C 
ATOM      2  C   UNL     1      54.156   2.774  20.000  0.00  0.00    +0.000 C 
ENDBRANCH   3   2
ENDBRANCH   4   3
ENDBRANCH   5   4
BRANCH   8   9
ATOM      9  C   UNL     1      47.177   3.369  16.844  0.00  0.00    +0.000 C 
BRANCH   9  10
ATOM     10  N   UNL     1      46.842   4.374  15.870  0.00  0.00    +0.000 N 
ATOM     11  C   UNL     1      46.887   4.125  14.526  0.00  0.00    +0.000 C 
ATOM     12  O   UNL     1      47.204   3.036  14.054  0.00  0.00    +0.000 OA
ATOM     31  H   UNL     1      46.927   5.336  16.182  0.00  0.00    +0.000 HD
BRANCH  11  13
ATOM     13  C   UNL     1      46.448   5.233  13.678  0.00  0.00    +0.000 A 
ATOM     14  C   UNL     1      47.286   6.320  13.455  0.00  0.00    +0.000 A 
ATOM     15  S   UNL     1      46.633   7.465  12.370  0.00  0.00    +0.000 S 
ATOM     16  C   UNL     1      45.195   6.573  12.199  0.00  0.00    +0.000 A 
ATOM     17  N   UNL     1      44.174   7.013  11.401  0.00  0.00    +0.000 NA
ATOM     18  C   UNL     1      43.160   6.231  11.362  0.00  0.00    +0.000 A 
ATOM     19  N   UNL     1      43.038   5.054  12.039  0.00  0.00    +0.000 N 
ATOM     20  C   UNL     1      44.028   4.570  12.867  0.00  0.00    +0.000 A 
ATOM     21  O   UNL     1      43.893   3.506  13.469  0.00  0.00    +0.000 OA
ATOM     22  C   UNL     1      45.223   5.413  12.948  0.00  0.00    +0.000 A 
ATOM     32  H   UNL     1      42.210   4.490  11.974  0.00  0.00    +0.000 HD
ENDBRANCH  11  13
ENDBRANCH   9  10
ENDBRANCH   8   9
TORSDOF 7
ENDMDL
MODEL 4
REMARK VINA RESULT:    -6.997      1.260      2.014
REMARK INTER + INTRA:         -11.232
REMARK INTER:                  -9.796
REMARK INTRA:                  -1.436
REMARK UNBOUND:                -1.371
REMARK  Name = 
REMARK  8 active torsions:
REMARK  status: ('A' for Active; 'I' for Inactive)
REMARK    1  A    between atoms: C_1  and  C_2
REMARK    2  A    between atoms: C_2  and  N_3
REMARK    3  A    between atoms: N_3  and  C_4
REMARK    4  A    between atoms: N_3  and  C_25
REMARK    5  A    between atoms: C_4  and  C_5
REMARK    6  A    between atoms: C_8  and  C_9
REMARK    7  A    between atoms: C_9  and  N_10
REMARK    8  A    between atoms: C_11  and  C_13
REMARK                            x       y       z     vdW  Elec       q    Type
REMARK                         _______ _______ _______ _____ _____    ______ ____
ROOT
ATOM      5  C   UNL     1      45.786   6.809  11.424  0.00  0.00    +0.000 A 
ATOM      6  C   UNL     1      47.144   6.521  11.639  0.00  0.00    +0.000 A 
ATOM      7  C   UNL     1      47.873   7.171  12.659  0.00  0.00    +0.000 A 
ATOM      8  C   UNL     1      47.274   8.180  13.425  0.00  0.00    +0.000 A 
ATOM     23  C   UNL     1      45.940   8.504  13.165  0.00  0.00    +0.000 A 
ATOM     24  C   UNL     1      45.189   7.776  12.242  0.00  0.00    +0.000 A 
ENDROOT
BRANCH   5   4
ATOM      4  C   UNL     1      44.999   6.204  10.267  0.00  0.00    +0.000 C 
BRANCH   4   3
ATOM      3  N   UNL     1      44.251   4.940  10.507  0.00  0.00    +0.000 NA
BRANCH   3  25
ATOM     25  C   UNL     1      44.465   3.946   9.365  0.00  0.00    +0.000 C 
ATOM     26  C   UNL     1      44.745   2.492   9.841  0.00  0.00    +0.000 C 
ATOM     27  C   UNL     1      45.171   1.516   8.738  0.00  0.00    +0.000 C 
ATOM     28  C   UNL     1      46.350   2.051   7.944  0.00  0.00    +0.000 C 
ATOM     29  C   UNL     1      45.971   3.381   7.323  0.00  0.00    +0.000 C 
ATOM     30  C   UNL     1      45.599   4.402   8.394  0.00  0.00    +0.000 C 
ENDBRANCH   3  25
BRANCH   3   2
ATOM      1  C   UNL     1      43.623   4.242  12.964  0.00  0.00    +0.000 C 
ATOM      2  C   UNL     1      44.596   4.278  11.789  0.00  0.00    +0.000 C 
ENDBRANCH   3   2
ENDBRANCH   4   3
ENDBRANCH   5   4
BRANCH   8   9
ATOM      9  C   UNL     1      47.983   8.919  14.537  0.00  0.00    +0.000 C 
BRANCH   9  10
ATOM     10  N   UNL     1      48.270   8.058  15.653  0.00  0.00    +0.000 N 
ATOM     11  C   UNL     1      49.547   7.683  15.970  0.00  0.00    +0.000 C 
ATOM     12  O   UNL     1      50.533   8.055  15.339  0.00  0.00    +0.000 OA
ATOM     31  H   UNL     1      47.507   7.464  15.960  0.00  0.00    +0.000 HD
BRANCH  11  13
ATOM     13  C   UNL     1      49.668   6.863  17.176  0.00  0.00    +0.000 A 
ATOM     14  C   UNL     1      50.387   7.330  18.271  0.00  0.00    +0.000 A 
ATOM     15  S   UNL     1      50.339   6.274  19.611  0.00  0.00    +0.000 S 
ATOM     16  C   UNL     1      49.398   5.141  18.761  0.00  0.00    +0.000 A 
ATOM     17  N   UNL     1      49.007   3.964  19.337  0.00  0.00    +0.000 NA
ATOM     18  C   UNL     1      48.293   3.216  18.581  0.00  0.00    +0.000 A 
ATOM     19  N   UNL     1      47.926   3.502  17.299  0.00  0.00    +0.000 N 
ATOM     20  C   UNL     1      48.303   4.666  16.664  0.00  0.00    +0.000 A 
ATOM     21  O   UNL     1      47.962   4.900  15.506  0.00  0.00    +0.000 OA
ATOM     22  C   UNL     1      49.114   5.573  17.480  0.00  0.00    +0.000 A 
ATOM     32  H   UNL     1      47.372   2.868  16.753  0.00  0.00    +0.000 HD
ENDBRANCH  11  13
ENDBRANCH   9  10
ENDBRANCH   8   9
TORSDOF 7
ENDMDL
MODEL 5
REMARK VINA RESULT:    -6.905      3.101      7.912
REMARK INTER + INTRA:         -11.101
REMARK INTER:                  -9.662
REMARK INTRA:                  -1.439
REMARK UNBOUND:                -1.371
REMARK  Name = 
REMARK  8 active torsions:
REMARK  status: ('A' for Active; 'I' for Inactive)
REMARK    1  A    between atoms: C_1  and  C_2
REMARK    2  A    between atoms: C_2  and  N_3
REMARK    3  A    between atoms: N_3  and  C_4
REMARK    4  A    between atoms: N_3  and  C_25
REMARK    5  A    between atoms: C_4  and  C_5
REMARK    6  A    between atoms: C_8  and  C_9
REMARK    7  A    between atoms: C_9  and  N_10
REMARK    8  A    between atoms: C_11  and  C_13
REMARK                            x       y       z     vdW  Elec       q    Type
REMARK                         _______ _______ _______ _____ _____    ______ ____
ROOT
ATOM      5  C   UNL     1      48.891   7.498  16.229  0.00  0.00    +0.000 A 
ATOM      6  C   UNL     1      48.645   8.799  15.759  0.00  0.00    +0.000 A 
ATOM      7  C   UNL     1      48.353   9.037  14.398  0.00  0.00    +0.000 A 
ATOM      8  C   UNL     1      48.388   7.987  13.471  0.00  0.00    +0.000 A 
ATOM     23  C   UNL     1      48.694   6.704  13.935  0.00  0.00    +0.000 A 
ATOM     24  C   UNL     1      48.860   6.453  15.297  0.00  0.00    +0.000 A 
ENDROOT
BRANCH   5   4
ATOM      4  C   UNL     1      49.311   7.219  17.668  0.00  0.00    +0.000 C 
BRANCH   4   3
ATOM      3  N   UNL     1      48.314   6.605  18.586  0.00  0.00    +0.000 NA
BRANCH   3  25
ATOM     25  C   UNL     1      48.387   5.078  18.539  0.00  0.00    +0.000 C 
ATOM     26  C   UNL     1      49.749   4.528  18.028  0.00  0.00    +0.000 C 
ATOM     27  C   UNL     1      49.786   3.018  17.767  0.00  0.00    +0.000 C 
ATOM     28  C   UNL     1      48.658   2.583  16.848  0.00  0.00    +0.000 C 
ATOM     29  C   UNL     1      47.330   2.954  17.475  0.00  0.00    +0.000 C 
ATOM     30  C   UNL     1      47.228   4.461  17.694  0.00  0.00    +0.000 C 
ENDBRANCH   3  25
BRANCH   3   2
ATOM      1  C   UNL     1      47.425   6.666  21.061  0.00  0.00    +0.000 C 
ATOM      2  C   UNL     1      48.449   7.047  19.996  0.00  0.00    +0.000 C 
ENDBRANCH   3   2
ENDBRANCH   4   3
ENDBRANCH   5   4
BRANCH   8   9
ATOM      9  C   UNL     1      48.084   8.158  12.000  0.00  0.00    +0.000 C 
BRANCH   9  10
ATOM     10  N   UNL     1      47.395   7.017  11.460  0.00  0.00    +0.000 N 
ATOM     11  C   UNL     1      46.030   6.960  11.392  0.00  0.00    +0.000 C 
ATOM     12  O   UNL     1      45.299   7.871  11.772  0.00  0.00    +0.000 OA
ATOM     31  H   UNL     1      47.910   6.143  11.474  0.00  0.00    +0.000 HD
BRANCH  11  13
ATOM     13  C   UNL     1      45.493   5.759  10.750  0.00  0.00    +0.000 A 
ATOM     14  C   UNL     1      45.734   5.518   9.402  0.00  0.00    +0.000 A 
ATOM     15  S   UNL     1      45.105   4.027   8.859  0.00  0.00    +0.000 S 
ATOM     16  C   UNL     1      44.452   3.677  10.390  0.00  0.00    +0.000 A 
ATOM     17  N   UNL     1      43.750   2.525  10.619  0.00  0.00    +0.000 NA
ATOM     18  C   UNL     1      43.330   2.392  11.821  0.00  0.00    +0.000 A 
ATOM     19  N   UNL     1      43.520   3.286  12.833  0.00  0.00    +0.000 N 
ATOM     20  C   UNL     1      44.207   4.468  12.656  0.00  0.00    +0.000 A 
ATOM     21  O   UNL     1      44.364   5.260  13.583  0.00  0.00    +0.000 OA
ATOM     22  C   UNL     1      44.725   4.677  11.302  0.00  0.00    +0.000 A 
ATOM     32  H   UNL     1      43.155   3.129  13.754  0.00  0.00    +0.000 HD
ENDBRANCH  11  13
ENDBRANCH   9  10
ENDBRANCH   8   9
TORSDOF 7
ENDMDL
MODEL 6
REMARK VINA RESULT:    -6.808      4.401      9.292
REMARK INTER + INTRA:         -10.965
REMARK INTER:                  -9.452
REMARK INTRA:                  -1.513
REMARK UNBOUND:                -1.371
REMARK  Name = 
REMARK  8 active torsions:
REMARK  status: ('A' for Active; 'I' for Inactive)
REMARK    1  A    between atoms: C_1  and  C_2
REMARK    2  A    between atoms: C_2  and  N_3
REMARK    3  A    between atoms: N_3  and  C_4
REMARK    4  A    between atoms: N_3  and  C_25
REMARK    5  A    between atoms: C_4  and  C_5
REMARK    6  A    between atoms: C_8  and  C_9
REMARK    7  A    between atoms: C_9  and  N_10
REMARK    8  A    between atoms: C_11  and  C_13
REMARK                            x       y       z     vdW  Elec       q    Type
REMARK                         _______ _______ _______ _____ _____    ______ ____
ROOT
ATOM      5  C   UNL     1      51.641   3.310  17.723  0.00  0.00    +0.000 A 
ATOM      6  C   UNL     1      50.930   2.172  17.304  0.00  0.00    +0.000 A 
ATOM      7  C   UNL     1      49.539   2.230  17.068  0.00  0.00    +0.000 A 
ATOM      8  C   UNL     1      48.824   3.406  17.330  0.00  0.00    +0.000 A 
ATOM     23  C   UNL     1      49.527   4.516  17.805  0.00  0.00    +0.000 A 
ATOM     24  C   UNL     1      50.917   4.493  17.919  0.00  0.00    +0.000 A 
ENDROOT
BRANCH   5   4
ATOM      4  C   UNL     1      53.121   3.256  18.086  0.00  0.00    +0.000 C 
BRANCH   4   3
ATOM      3  N   UNL     1      53.575   2.207  19.038  0.00  0.00    +0.000 NA
BRANCH   3  25
ATOM     25  C   UNL     1      54.507   1.207  18.353  0.00  0.00    +0.000 C 
ATOM     26  C   UNL     1      54.910   1.610  16.906  0.00  0.00    +0.000 C 
ATOM     27  C   UNL     1      55.666   0.536  16.116  0.00  0.00    +0.000 C 
ATOM     28  C   UNL     1      54.917  -0.785  16.112  0.00  0.00    +0.000 C 
ATOM     29  C   UNL     1      54.719  -1.253  17.539  0.00  0.00    +0.000 C 
ATOM     30  C   UNL     1      53.914  -0.237  18.344  0.00  0.00    +0.000 C 
ENDBRANCH   3  25
BRANCH   3   2
ATOM      1  C   UNL     1      53.626   3.848  21.093  0.00  0.00    +0.000 C 
ATOM      2  C   UNL     1      54.253   2.747  20.242  0.00  0.00    +0.000 C 
ENDBRANCH   3   2
ENDBRANCH   4   3
ENDBRANCH   5   4
BRANCH   8   9
ATOM      9  C   UNL     1      47.337   3.550  17.101  0.00  0.00    +0.000 C 
BRANCH   9  10
ATOM     10  N   UNL     1      47.045   4.513  16.073  0.00  0.00    +0.000 N 
ATOM     11  C   UNL     1      47.069   4.187  14.745  0.00  0.00    +0.000 C 
ATOM     12  O   UNL     1      47.328   3.058  14.334  0.00  0.00    +0.000 OA
ATOM     31  H   UNL     1      47.180   5.486  16.329  0.00  0.00    +0.000 HD
BRANCH  11  13
ATOM     13  C   UNL     1      46.678   5.266  13.837  0.00  0.00    +0.000 A 
ATOM     14  C   UNL     1      45.472   5.201  13.149  0.00  0.00    +0.000 A 
ATOM     15  S   UNL     1      45.153   6.591  12.211  0.00  0.00    +0.000 S 
ATOM     16  C   UNL     1      46.633   7.303  12.654  0.00  0.00    +0.000 A 
ATOM     17  N   UNL     1      47.005   8.529  12.175  0.00  0.00    +0.000 NA
ATOM     18  C   UNL     1      48.139   8.942  12.605  0.00  0.00    +0.000 A 
ATOM     19  N   UNL     1      48.959   8.267  13.459  0.00  0.00    +0.000 N 
ATOM     20  C   UNL     1      48.641   7.023  13.962  0.00  0.00    +0.000 A 
ATOM     21  O   UNL     1      49.398   6.432  14.729  0.00  0.00    +0.000 OA
ATOM     22  C   UNL     1      47.348   6.496  13.517  0.00  0.00    +0.000 A 
ATOM     32  H   UNL     1      49.843   8.641  13.752  0.00  0.00    +0.000 HD
ENDBRANCH  11  13
ENDBRANCH   9  10
ENDBRANCH   8   9
TORSDOF 7
ENDMDL
MODEL 7
REMARK VINA RESULT:    -6.654      1.984      2.660
REMARK INTER + INTRA:         -10.748
REMARK INTER:                  -9.506
REMARK INTRA:                  -1.242
REMARK UNBOUND:                -1.371
REMARK  Name = 
REMARK  8 active torsions:
REMARK  status: ('A' for Active; 'I' for Inactive)
REMARK    1  A    between atoms: C_1  and  C_2
REMARK    2  A    between atoms: C_2  and  N_3
REMARK    3  A    between atoms: N_3  and  C_4
REMARK    4  A    between atoms: N_3  and  C_25
REMARK    5  A    between atoms: C_4  and  C_5
REMARK    6  A    between atoms: C_8  and  C_9
REMARK    7  A    between atoms: C_9  and  N_10
REMARK    8  A    between atoms: C_11  and  C_13
REMARK                            x       y       z     vdW  Elec       q    Type
REMARK                         _______ _______ _______ _____ _____    ______ ____
ROOT
ATOM      5  C   UNL     1      45.805   6.269  10.945  0.00  0.00    +0.000 A 
ATOM      6  C   UNL     1      47.208   6.356  10.912  0.00  0.00    +0.000 A 
ATOM      7  C   UNL     1      47.921   6.997  11.949  0.00  0.00    +0.000 A 
ATOM      8  C   UNL     1      47.236   7.632  12.993  0.00  0.00    +0.000 A 
ATOM     23  C   UNL     1      45.839   7.594  12.988  0.00  0.00    +0.000 A 
ATOM     24  C   UNL     1      45.143   6.857  12.030  0.00  0.00    +0.000 A 
ENDROOT
BRANCH   5   4
ATOM      4  C   UNL     1      45.000   5.678   9.793  0.00  0.00    +0.000 C 
BRANCH   4   3
ATOM      3  N   UNL     1      44.492   4.287   9.930  0.00  0.00    +0.000 NA
BRANCH   3  25
ATOM     25  C   UNL     1      44.930   3.421   8.748  0.00  0.00    +0.000 C 
ATOM     26  C   UNL     1      45.475   2.023   9.160  0.00  0.00    +0.000 C 
ATOM     27  C   UNL     1      46.117   1.214   8.028  0.00  0.00    +0.000 C 
ATOM     28  C   UNL     1      47.191   2.013   7.310  0.00  0.00    +0.000 C 
ATOM     29  C   UNL     1      46.578   3.277   6.742  0.00  0.00    +0.000 C 
ATOM     30  C   UNL     1      45.981   4.143   7.849  0.00  0.00    +0.000 C 
ENDBRANCH   3  25
BRANCH   3   2
ATOM      1  C   UNL     1      43.896   3.260  12.277  0.00  0.00    +0.000 C 
ATOM      2  C   UNL     1      44.904   3.621  11.190  0.00  0.00    +0.000 C 
ENDBRANCH   3   2
ENDBRANCH   4   3
ENDBRANCH   5   4
BRANCH   8   9
ATOM      9  C   UNL     1      47.925   8.334  14.141  0.00  0.00    +0.000 C 
BRANCH   9  10
ATOM     10  N   UNL     1      47.861   7.565  15.354  0.00  0.00    +0.000 N 
ATOM     11  C   UNL     1      48.897   6.774  15.767  0.00  0.00    +0.000 C 
ATOM     12  O   UNL     1      49.952   6.669  15.145  0.00  0.00    +0.000 OA
ATOM     31  H   UNL     1      46.928   7.343  15.688  0.00  0.00    +0.000 HD
BRANCH  11  13
ATOM     13  C   UNL     1      48.696   6.115  17.058  0.00  0.00    +0.000 A 
ATOM     14  C   UNL     1      48.931   4.751  17.193  0.00  0.00    +0.000 A 
ATOM     15  S   UNL     1      48.728   4.185  18.791  0.00  0.00    +0.000 S 
ATOM     16  C   UNL     1      48.275   5.729  19.343  0.00  0.00    +0.000 A 
ATOM     17  N   UNL     1      47.942   5.947  20.652  0.00  0.00    +0.000 NA
ATOM     18  C   UNL     1      47.634   7.161  20.923  0.00  0.00    +0.000 A 
ATOM     19  N   UNL     1      47.609   8.192  20.033  0.00  0.00    +0.000 N 
ATOM     20  C   UNL     1      47.921   8.027  18.700  0.00  0.00    +0.000 A 
ATOM     21  O   UNL     1      47.890   8.973  17.915  0.00  0.00    +0.000 OA
ATOM     22  C   UNL     1      48.295   6.661  18.325  0.00  0.00    +0.000 A 
ATOM     32  H   UNL     1      47.348   9.122  20.306  0.00  0.00    +0.000 HD
ENDBRANCH  11  13
ENDBRANCH   9  10
ENDBRANCH   8   9
TORSDOF 7
ENDMDL
MODEL 8
REMARK VINA RESULT:    -6.646      3.396      8.009
REMARK INTER + INTRA:         -10.737
REMARK INTER:                  -8.999
REMARK INTRA:                  -1.738
REMARK UNBOUND:                -1.371
REMARK  Name = 
REMARK  8 active torsions:
REMARK  status: ('A' for Active; 'I' for Inactive)
REMARK    1  A    between atoms: C_1  and  C_2
REMARK    2  A    between atoms: C_2  and  N_3
REMARK    3  A    between atoms: N_3  and  C_4
REMARK    4  A    between atoms: N_3  and  C_25
REMARK    5  A    between atoms: C_4  and  C_5
REMARK    6  A    between atoms: C_8  and  C_9
REMARK    7  A    between atoms: C_9  and  N_10
REMARK    8  A    between atoms: C_11  and  C_13
REMARK                            x       y       z     vdW  Elec       q    Type
REMARK                         _______ _______ _______ _____ _____    ______ ____
ROOT
ATOM      5  C   UNL     1      49.877   7.044  17.461  0.00  0.00    +0.000 A 
ATOM      6  C   UNL     1      50.137   6.588  16.158  0.00  0.00    +0.000 A 
ATOM      7  C   UNL     1      49.539   7.207  15.038  0.00  0.00    +0.000 A 
ATOM      8  C   UNL     1      48.605   8.237  15.212  0.00  0.00    +0.000 A 
ATOM     23  C   UNL     1      48.305   8.645  16.515  0.00  0.00    +0.000 A 
ATOM     24  C   UNL     1      48.988   8.117  17.610  0.00  0.00    +0.000 A 
ENDROOT
BRANCH   5   4
ATOM      4  C   UNL     1      50.423   6.335  18.696  0.00  0.00    +0.000 C 
BRANCH   4   3
ATOM      3  N   UNL     1      49.461   5.632  19.587  0.00  0.00    +0.000 NA
BRANCH   3  25
ATOM     25  C   UNL     1      48.950   4.344  18.943  0.00  0.00    +0.000 C 
ATOM     26  C   UNL     1      50.003   3.625  18.052  0.00  0.00    +0.000 C 
ATOM     27  C   UNL     1      49.466   2.452  17.224  0.00  0.00    +0.000 C 
ATOM     28  C   UNL     1      48.259   2.858  16.397  0.00  0.00    +0.000 C 
ATOM     29  C   UNL     1      47.169   3.367  17.319  0.00  0.00    +0.000 C 
ATOM     30  C   UNL     1      47.645   4.577  18.118  0.00  0.00    +0.000 C 
ENDBRANCH   3  25
BRANCH   3   2
ATOM      1  C   UNL     1      51.499   5.034  21.139  0.00  0.00    +0.000 C 
ATOM      2  C   UNL     1      50.013   5.311  20.926  0.00  0.00    +0.000 C 
ENDBRANCH   3   2
ENDBRANCH   4   3
ENDBRANCH   5   4
BRANCH   8   9
ATOM      9  C   UNL     1      47.925   8.952  14.067  0.00  0.00    +0.000 C 
BRANCH   9  10
ATOM     10  N   UNL     1      46.781   8.224  13.586  0.00  0.00    +0.000 N 
ATOM     11  C   UNL     1      46.853   7.397  12.499  0.00  0.00    +0.000 C 
ATOM     12  O   UNL     1      47.889   7.207  11.865  0.00  0.00    +0.000 OA
ATOM     31  H   UNL     1      45.876   8.610  13.834  0.00  0.00    +0.000 HD
BRANCH  11  13
ATOM     13  C   UNL     1      45.617   6.679  12.187  0.00  0.00    +0.000 A 
ATOM     14  C   UNL     1      44.541   7.350  11.618  0.00  0.00    +0.000 A 
ATOM     15  S   UNL     1      43.226   6.328  11.245  0.00  0.00    +0.000 S 
ATOM     16  C   UNL     1      44.030   4.966  11.873  0.00  0.00    +0.000 A 
ATOM     17  N   UNL     1      43.441   3.731  11.880  0.00  0.00    +0.000 NA
ATOM     18  C   UNL     1      44.170   2.801  12.371  0.00  0.00    +0.000 A 
ATOM     19  N   UNL     1      45.428   2.958  12.872  0.00  0.00    +0.000 N 
ATOM     20  C   UNL     1      46.065   4.180  12.903  0.00  0.00    +0.000 A 
ATOM     21  O   UNL     1      47.200   4.298  13.362  0.00  0.00    +0.000 OA
ATOM     22  C   UNL     1      45.287   5.289  12.343  0.00  0.00    +0.000 A 
ATOM     32  H   UNL     1      45.947   2.188  13.255  0.00  0.00    +0.000 HD
ENDBRANCH  11  13
ENDBRANCH   9  10
ENDBRANCH   8   9
TORSDOF 7
ENDMDL
MODEL 9
REMARK VINA RESULT:    -6.639      2.905      3.455
REMARK INTER + INTRA:         -10.727
REMARK INTER:                  -9.605
REMARK INTRA:                  -1.122
REMARK UNBOUND:                -1.371
REMARK  Name = 
REMARK  8 active torsions:
REMARK  status: ('A' for Active; 'I' for Inactive)
REMARK    1  A    between atoms: C_1  and  C_2
REMARK    2  A    between atoms: C_2  and  N_3
REMARK    3  A    between atoms: N_3  and  C_4
REMARK    4  A    between atoms: N_3  and  C_25
REMARK    5  A    between atoms: C_4  and  C_5
REMARK    6  A    between atoms: C_8  and  C_9
REMARK    7  A    between atoms: C_9  and  N_10
REMARK    8  A    between atoms: C_11  and  C_13
REMARK                            x       y       z     vdW  Elec       q    Type
REMARK                         _______ _______ _______ _____ _____    ______ ____
ROOT
ATOM      5  C   UNL     1      46.095   5.791  12.343  0.00  0.00    +0.000 A 
ATOM      6  C   UNL     1      47.137   5.596  13.266  0.00  0.00    +0.000 A 
ATOM      7  C   UNL     1      47.810   6.694  13.845  0.00  0.00    +0.000 A 
ATOM      8  C   UNL     1      47.507   8.002  13.445  0.00  0.00    +0.000 A 
ATOM     23  C   UNL     1      46.511   8.186  12.481  0.00  0.00    +0.000 A 
ATOM     24  C   UNL     1      45.765   7.109  12.004  0.00  0.00    +0.000 A 
ENDROOT
BRANCH   5   4
ATOM      4  C   UNL     1      45.420   4.629  11.622  0.00  0.00    +0.000 C 
BRANCH   4   3
ATOM      3  N   UNL     1      44.465   4.941  10.524  0.00  0.00    +0.000 NA
BRANCH   3  25
ATOM     25  C   UNL     1      44.611   3.952   9.368  0.00  0.00    +0.000 C 
ATOM     26  C   UNL     1      44.914   2.495   9.820  0.00  0.00    +0.000 C 
ATOM     27  C   UNL     1      45.275   1.523   8.690  0.00  0.00    +0.000 C 
ATOM     28  C   UNL     1      46.407   2.060   7.833  0.00  0.00    +0.000 C 
ATOM     29  C   UNL     1      45.998   3.393   7.240  0.00  0.00    +0.000 C 
ATOM     30  C   UNL     1      45.690   4.410   8.336  0.00  0.00    +0.000 C 
ENDBRANCH   3  25
BRANCH   3   2
ATOM      1  C   UNL     1      42.654   5.115  12.424  0.00  0.00    +0.000 C 
ATOM      2  C   UNL     1      43.046   4.966  10.957  0.00  0.00    +0.000 C 
ENDBRANCH   3   2
ENDBRANCH   4   3
ENDBRANCH   5   4
BRANCH   8   9
ATOM      9  C   UNL     1      48.177   9.230  14.019  0.00  0.00    +0.000 C 
BRANCH   9  10
ATOM     10  N   UNL     1      47.883   9.395  15.417  0.00  0.00    +0.000 N 
ATOM     11  C   UNL     1      48.813   9.144  16.388  0.00  0.00    +0.000 C 
ATOM     12  O   UNL     1      49.958   8.773  16.143  0.00  0.00    +0.000 OA
ATOM     31  H   UNL     1      46.902   9.346  15.670  0.00  0.00    +0.000 HD
BRANCH  11  13
ATOM     13  C   UNL     1      48.372   9.431  17.754  0.00  0.00    +0.000 A 
ATOM     14  C   UNL     1      48.193  10.745  18.171  0.00  0.00    +0.000 A 
ATOM     15  S   UNL     1      47.592  10.874  19.763  0.00  0.00    +0.000 S 
ATOM     16  C   UNL     1      47.595   9.184  19.964  0.00  0.00    +0.000 A 
ATOM     17  N   UNL     1      47.199   8.606  21.139  0.00  0.00    +0.000 NA
ATOM     18  C   UNL     1      47.244   7.326  21.139  0.00  0.00    +0.000 A 
ATOM     19  N   UNL     1      47.649   6.545  20.098  0.00  0.00    +0.000 N 
ATOM     20  C   UNL     1      48.071   7.074  18.897  0.00  0.00    +0.000 A 
ATOM     21  O   UNL     1      48.435   6.349  17.972  0.00  0.00    +0.000 OA
ATOM     22  C   UNL     1      48.034   8.537  18.826  0.00  0.00    +0.000 A 
ATOM     32  H   UNL     1      47.671   5.544  20.164  0.00  0.00    +0.000 HD
ENDBRANCH  11  13
ENDBRANCH   9  10
ENDBRANCH   8   9
TORSDOF 7
ENDMDL
