MODEL 1
REMARK VINA RESULT:    -7.327      0.000      0.000
REMARK INTER + INTRA:          -9.035
REMARK INTER:                  -8.611
REMARK INTRA:                  -0.424
REMARK UNBOUND:                -0.424
REMARK  Name = 
REMARK  3 active torsions:
REMARK  status: ('A' for Active; 'I' for Inactive)
REMARK    1  A    between atoms: C_2  and  C_4
REMARK    2  A    between atoms: N_11  and  C_12
REMARK    3  A    between atoms: C_12  and  C_13
REMARK                            x       y       z     vdW  Elec       q    Type
REMARK                         _______ _______ _______ _____ _____    ______ ____
ROOT
ATOM      4  C   UNL     1      46.548   2.955   7.406  0.00  0.00    +0.000 A 
ATOM      5  C   UNL     1      46.676   4.323   7.629  0.00  0.00    +0.000 A 
ATOM      6  N   UNL     1      46.044   5.032   8.599  0.00  0.00    +0.000 NA
ATOM      7  C   UNL     1      45.262   4.265   9.390  0.00  0.00    +0.000 A 
ATOM      8  C   UNL     1      45.061   2.890   9.285  0.00  0.00    +0.000 A 
ATOM      9  C   UNL     1      44.158   2.522  10.317  0.00  0.00    +0.000 A 
ATOM     10  C   UNL     1      43.809   3.672  10.995  0.00  0.00    +0.000 A 
ATOM     11  N   UNL     1      44.504   4.722  10.442  0.00  0.00    +0.000 N 
ATOM     21  C   UNL     1      45.734   2.204   8.259  0.00  0.00    +0.000 A 
ENDROOT
BRANCH   4   2
ATOM      1  N   UNL     1      47.231   3.000   5.071  0.00  0.00    +0.000 N 
ATOM      2  C   UNL     1      47.285   2.352   6.274  0.00  0.00    +0.000 C 
ATOM      3  O   UNL     1      47.953   1.336   6.414  0.00  0.00    +0.000 OA
ATOM     22  H   UNL     1      47.821   2.632   4.335  0.00  0.00    +0.000 HD
ATOM     23  H   UNL     1      46.899   3.948   4.972  0.00  0.00    +0.000 HD
ENDBRANCH   4   2
BRANCH  11  12
ATOM     12  C   UNL     1      44.347   6.128  10.797  0.00  0.00    +0.000 C 
BRANCH  12  13
ATOM     13  C   UNL     1      45.406   6.673  11.742  0.00  0.00    +0.000 C 
ATOM     14  O   UNL     1      46.273   5.959  12.246  0.00  0.00    +0.000 OA
ATOM     15  N   UNL     1      45.337   8.036  12.035  0.00  0.00    +0.000 N 
ATOM     16  C   UNL     1      44.318   8.976  11.552  0.00  0.00    +0.000 C 
ATOM     17  C   UNL     1      44.953  10.290  11.052  0.00  0.00    +0.000 C 
ATOM     18  N   UNL     1      45.880  10.905  12.019  0.00  0.00    +0.000 NA
ATOM     19  C   UNL     1      46.904   9.917  12.417  0.00  0.00    +0.000 C 
ATOM     20  C   UNL     1      46.297   8.619  12.978  0.00  0.00    +0.000 C 
ATOM     24  H   UNL     1      45.355  11.177  12.851  0.00  0.00    +0.000 HD
ENDBRANCH  12  13
ENDBRANCH  11  12
TORSDOF 3
ENDMDL
MODEL 2
REMARK VINA RESULT:    -7.003      2.148      6.745
REMARK INTER + INTRA:          -8.655
REMARK INTER:                  -8.215
REMARK INTRA:                  -0.440
REMARK UNBOUND:                -0.424
REMARK  Name = 
REMARK  3 active torsions:
REMARK  status: ('A' for Active; 'I' for Inactive)
REMARK    1  A    between atoms: C_2  and  C_4
REMARK    2  A    between atoms: N_11  and  C_12
REMARK    3  A    between atoms: C_12  and  C_13
REMARK                            x       y       z     vdW  Elec       q    Type
REMARK                         _______ _______ _______ _____ _____    ______ ____
ROOT
ATOM      4  C   UNL     1      46.454   6.679  12.682  0.00  0.00    +0.000 A 
ATOM      5  C   UNL     1      46.641   6.615  11.305  0.00  0.00    +0.000 A 
ATOM      6  N   UNL     1      45.953   5.821  10.446  0.00  0.00    +0.000 NA
ATOM      7  C   UNL     1      45.003   5.079  11.057  0.00  0.00    +0.000 A 
ATOM      8  C   UNL     1      44.704   5.062  12.418  0.00  0.00    +0.000 A 
ATOM      9  C   UNL     1      43.649   4.129  12.600  0.00  0.00    +0.000 A 
ATOM     10  C   UNL     1      43.358   3.583  11.367  0.00  0.00    +0.000 A 
ATOM     11  N   UNL     1      44.167   4.184  10.431  0.00  0.00    +0.000 N 
ATOM     21  C   UNL     1      45.451   5.898  13.265  0.00  0.00    +0.000 A 
ENDROOT
BRANCH   4   2
ATOM      1  N   UNL     1      46.750   8.693  14.015  0.00  0.00    +0.000 N 
ATOM      2  C   UNL     1      47.324   7.578  13.472  0.00  0.00    +0.000 C 
ATOM      3  O   UNL     1      48.503   7.315  13.670  0.00  0.00    +0.000 OA
ATOM     22  H   UNL     1      47.331   9.242  14.636  0.00  0.00    +0.000 HD
ATOM     23  H   UNL     1      45.750   8.821  14.079  0.00  0.00    +0.000 HD
ENDBRANCH   4   2
BRANCH  11  12
ATOM     12  C   UNL     1      44.252   3.823   9.020  0.00  0.00    +0.000 C 
BRANCH  12  13
ATOM     13  C   UNL     1      45.005   2.533   8.733  0.00  0.00    +0.000 C 
ATOM     14  O   UNL     1      44.650   1.445   9.188  0.00  0.00    +0.000 OA
ATOM     15  N   UNL     1      46.145   2.643   7.936  0.00  0.00    +0.000 N 
ATOM     16  C   UNL     1      46.705   3.885   7.389  0.00  0.00    +0.000 C 
ATOM     17  C   UNL     1      47.085   3.727   5.902  0.00  0.00    +0.000 C 
ATOM     18  N   UNL     1      47.933   2.553   5.630  0.00  0.00    +0.000 NA
ATOM     19  C   UNL     1      47.281   1.339   6.161  0.00  0.00    +0.000 C 
ATOM     20  C   UNL     1      46.947   1.446   7.659  0.00  0.00    +0.000 C 
ATOM     24  H   UNL     1      48.826   2.674   6.108  0.00  0.00    +0.000 HD
ENDBRANCH  12  13
ENDBRANCH  11  12
TORSDOF 3
ENDMDL
MODEL 3
REMARK VINA RESULT:    -6.778      2.324      7.017
REMARK INTER + INTRA:          -8.390
REMARK INTER:                  -8.168
REMARK INTRA:                  -0.222
REMARK UNBOUND:                -0.424
REMARK  Name = 
REMARK  3 active torsions:
REMARK  status: ('A' for Active; 'I' for Inactive)
REMARK    1  A    between atoms: C_2  and  C_4
REMARK    2  A    between atoms: N_11  and  C_12
REMARK    3  A    between atoms: C_12  and  C_13
REMARK                            x       y       z     vdW  Elec       q    Type
REMARK                         _______ _______ _______ _____ _____    ______ ____
ROOT
ATOM      4  C   UNL     1      47.202   7.148  13.350  0.00  0.00    +0.000 A 
ATOM      5  C   UNL     1      46.569   7.475  12.155  0.00  0.00    +0.000 A 
ATOM      6  N   UNL     1      45.878   6.617  11.361  0.00  0.00    +0.000 NA
ATOM      7  C   UNL     1      45.823   5.362  11.860  0.00  0.00    +0.000 A 
ATOM      8  C   UNL     1      46.396   4.910  13.047  0.00  0.00    +0.000 A 
ATOM      9  C   UNL     1      46.090   3.528  13.155  0.00  0.00    +0.000 A 
ATOM     10  C   UNL     1      45.377   3.169  12.030  0.00  0.00    +0.000 A 
ATOM     11  N   UNL     1      45.197   4.295  11.261  0.00  0.00    +0.000 N 
ATOM     21  C   UNL     1      47.108   5.837  13.828  0.00  0.00    +0.000 A 
ENDROOT
BRANCH   4   2
ATOM      1  N   UNL     1      47.232   9.025  14.897  0.00  0.00    +0.000 N 
ATOM      2  C   UNL     1      47.946   8.206  14.068  0.00  0.00    +0.000 C 
ATOM      3  O   UNL     1      49.159   8.320  13.960  0.00  0.00    +0.000 OA
ATOM     22  H   UNL     1      47.768   9.676  15.458  0.00  0.00    +0.000 HD
ATOM     23  H   UNL     1      46.290   8.818  15.197  0.00  0.00    +0.000 HD
ENDBRANCH   4   2
BRANCH  11  12
ATOM     12  C   UNL     1      44.584   4.333   9.938  0.00  0.00    +0.000 C 
BRANCH  12  13
ATOM     13  C   UNL     1      45.563   4.456   8.781  0.00  0.00    +0.000 C 
ATOM     14  O   UNL     1      46.115   5.518   8.492  0.00  0.00    +0.000 OA
ATOM     15  N   UNL     1      45.794   3.299   8.035  0.00  0.00    +0.000 N 
ATOM     16  C   UNL     1      45.151   1.995   8.237  0.00  0.00    +0.000 C 
ATOM     17  C   UNL     1      46.179   0.845   8.193  0.00  0.00    +0.000 C 
ATOM     18  N   UNL     1      47.046   0.873   7.001  0.00  0.00    +0.000 NA
ATOM     19  C   UNL     1      47.696   2.195   6.894  0.00  0.00    +0.000 C 
ATOM     20  C   UNL     1      46.688   3.358   6.874  0.00  0.00    +0.000 C 
ATOM     24  H   UNL     1      46.470   0.731   6.172  0.00  0.00    +0.000 HD
ENDBRANCH  12  13
ENDBRANCH  11  12
TORSDOF 3
ENDMDL
MODEL 4
REMARK VINA RESULT:    -6.725      5.710      7.319
REMARK INTER + INTRA:          -8.328
REMARK INTER:                  -7.823
REMARK INTRA:                  -0.505
REMARK UNBOUND:                -0.424
REMARK  Name = 
REMARK  3 active torsions:
REMARK  status: ('A' for Active; 'I' for Inactive)
REMARK    1  A    between atoms: C_2  and  C_4
REMARK    2  A    between atoms: N_11  and  C_12
REMARK    3  A    between atoms: C_12  and  C_13
REMARK                            x       y       z     vdW  Elec       q    Type
REMARK                         _______ _______ _______ _____ _____    ______ ____
ROOT
ATOM      4  C   UNL     1      45.669   5.143  11.671  0.00  0.00    +0.000 A 
ATOM      5  C   UNL     1      45.321   4.158  12.591  0.00  0.00    +0.000 A 
ATOM      6  N   UNL     1      45.844   4.014  13.836  0.00  0.00    +0.000 NA
ATOM      7  C   UNL     1      46.754   4.965  14.141  0.00  0.00    +0.000 A 
ATOM      8  C   UNL     1      47.177   6.010  13.321  0.00  0.00    +0.000 A 
ATOM      9  C   UNL     1      48.145   6.746  14.054  0.00  0.00    +0.000 A 
ATOM     10  C   UNL     1      48.311   6.121  15.272  0.00  0.00    +0.000 A 
ATOM     11  N   UNL     1      47.444   5.055  15.327  0.00  0.00    +0.000 N 
ATOM     21  C   UNL     1      46.610   6.110  12.039  0.00  0.00    +0.000 A 
ENDROOT
BRANCH   4   2
ATOM      1  N   UNL     1      43.658   5.175  10.302  0.00  0.00    +0.000 N 
ATOM      2  C   UNL     1      45.024   5.126  10.340  0.00  0.00    +0.000 C 
ATOM      3  O   UNL     1      45.683   5.112   9.309  0.00  0.00    +0.000 OA
ATOM     22  H   UNL     1      43.236   5.265   9.387  0.00  0.00    +0.000 HD
ATOM     23  H   UNL     1      43.095   5.426  11.102  0.00  0.00    +0.000 HD
ENDBRANCH   4   2
BRANCH  11  12
ATOM     12  C   UNL     1      47.372   4.069  16.400  0.00  0.00    +0.000 C 
BRANCH  12  13
ATOM     13  C   UNL     1      48.497   3.046  16.407  0.00  0.00    +0.000 C 
ATOM     14  O   UNL     1      48.598   2.168  15.549  0.00  0.00    +0.000 OA
ATOM     15  N   UNL     1      49.412   3.134  17.457  0.00  0.00    +0.000 N 
ATOM     16  C   UNL     1      49.365   4.089  18.571  0.00  0.00    +0.000 C 
ATOM     17  C   UNL     1      50.748   4.717  18.836  0.00  0.00    +0.000 C 
ATOM     18  N   UNL     1      51.829   3.725  18.984  0.00  0.00    +0.000 NA
ATOM     19  C   UNL     1      51.847   2.836  17.805  0.00  0.00    +0.000 C 
ATOM     20  C   UNL     1      50.494   2.148  17.554  0.00  0.00    +0.000 C 
ATOM     24  H   UNL     1      51.644   3.158  19.812  0.00  0.00    +0.000 HD
ENDBRANCH  12  13
ENDBRANCH  11  12
TORSDOF 3
ENDMDL
MODEL 5
REMARK VINA RESULT:    -6.719      1.882      2.573
REMARK INTER + INTRA:          -8.321
REMARK INTER:                  -8.854
REMARK INTRA:                   0.532
REMARK UNBOUND:                -0.424
REMARK  Name = 
REMARK  3 active torsions:
REMARK  status: ('A' for Active; 'I' for Inactive)
REMARK    1  A    between atoms: C_2  and  C_4
REMARK    2  A    between atoms: N_11  and  C_12
REMARK    3  A    between atoms: C_12  and  C_13
REMARK                            x       y       z     vdW  Elec       q    Type
REMARK                         _______ _______ _______ _____ _____    ______ ____
ROOT
ATOM      4  C   UNL     1      46.411   2.899   7.537  0.00  0.00    +0.000 A 
ATOM      5  C   UNL     1      46.395   4.258   7.840  0.00  0.00    +0.000 A 
ATOM      6  N   UNL     1      45.696   4.838   8.849  0.00  0.00    +0.000 NA
ATOM      7  C   UNL     1      45.003   3.948   9.593  0.00  0.00    +0.000 A 
ATOM      8  C   UNL     1      44.948   2.568   9.407  0.00  0.00    +0.000 A 
ATOM      9  C   UNL     1      44.093   2.047  10.414  0.00  0.00    +0.000 A 
ATOM     10  C   UNL     1      43.628   3.112  11.158  0.00  0.00    +0.000 A 
ATOM     11  N   UNL     1      44.206   4.260  10.669  0.00  0.00    +0.000 N 
ATOM     21  C   UNL     1      45.685   2.018   8.344  0.00  0.00    +0.000 A 
ENDROOT
BRANCH   4   2
ATOM      1  N   UNL     1      47.195   3.238   5.258  0.00  0.00    +0.000 N 
ATOM      2  C   UNL     1      47.202   2.445   6.372  0.00  0.00    +0.000 C 
ATOM      3  O   UNL     1      47.871   1.422   6.414  0.00  0.00    +0.000 OA
ATOM     22  H   UNL     1      47.820   2.967   4.509  0.00  0.00    +0.000 HD
ATOM     23  H   UNL     1      46.859   4.190   5.264  0.00  0.00    +0.000 HD
ENDBRANCH   4   2
BRANCH  11  12
ATOM     12  C   UNL     1      43.903   5.619  11.105  0.00  0.00    +0.000 C 
BRANCH  12  13
ATOM     13  C   UNL     1      45.118   6.490  11.381  0.00  0.00    +0.000 C 
ATOM     14  O   UNL     1      45.267   7.599  10.867  0.00  0.00    +0.000 OA
ATOM     15  N   UNL     1      46.083   5.959  12.238  0.00  0.00    +0.000 N 
ATOM     16  C   UNL     1      46.053   4.629  12.860  0.00  0.00    +0.000 C 
ATOM     17  C   UNL     1      46.419   4.697  14.357  0.00  0.00    +0.000 C 
ATOM     18  N   UNL     1      47.673   5.423  14.627  0.00  0.00    +0.000 NA
ATOM     19  C   UNL     1      47.607   6.766  14.017  0.00  0.00    +0.000 C 
ATOM     20  C   UNL     1      47.304   6.724  12.510  0.00  0.00    +0.000 C 
ATOM     24  H   UNL     1      48.446   4.913  14.200  0.00  0.00    +0.000 HD
ENDBRANCH  12  13
ENDBRANCH  11  12
TORSDOF 3
ENDMDL
MODEL 6
REMARK VINA RESULT:    -6.506      3.307      7.071
REMARK INTER + INTRA:          -8.070
REMARK INTER:                  -7.519
REMARK INTRA:                  -0.551
REMARK UNBOUND:                -0.424
REMARK  Name = 
REMARK  3 active torsions:
REMARK  status: ('A' for Active; 'I' for Inactive)
REMARK    1  A    between atoms: C_2  and  C_4
REMARK    2  A    between atoms: N_11  and  C_12
REMARK    3  A    between atoms: C_12  and  C_13
REMARK                            x       y       z     vdW  Elec       q    Type
REMARK                         _______ _______ _______ _____ _____    ______ ____
ROOT
ATOM      4  C   UNL     1      47.562   4.772  15.387  0.00  0.00    +0.000 A 
ATOM      5  C   UNL     1      46.477   4.343  14.627  0.00  0.00    +0.000 A 
ATOM      6  N   UNL     1      45.983   4.964  13.526  0.00  0.00    +0.000 NA
ATOM      7  C   UNL     1      46.678   6.073  13.189  0.00  0.00    +0.000 A 
ATOM      8  C   UNL     1      47.787   6.598  13.850  0.00  0.00    +0.000 A 
ATOM      9  C   UNL     1      48.174   7.770  13.148  0.00  0.00    +0.000 A 
ATOM     10  C   UNL     1      47.283   7.946  12.109  0.00  0.00    +0.000 A 
ATOM     11  N   UNL     1      46.393   6.897  12.125  0.00  0.00    +0.000 N 
ATOM     21  C   UNL     1      48.254   5.920  14.990  0.00  0.00    +0.000 A 
ENDROOT
BRANCH   4   2
ATOM      1  N   UNL     1      46.931   3.409  17.301  0.00  0.00    +0.000 N 
ATOM      2  C   UNL     1      47.940   3.988  16.583  0.00  0.00    +0.000 C 
ATOM      3  O   UNL     1      49.111   3.827  16.898  0.00  0.00    +0.000 OA
ATOM     22  H   UNL     1      47.211   2.793  18.055  0.00  0.00    +0.000 HD
ATOM     23  H   UNL     1      45.990   3.316  16.949  0.00  0.00    +0.000 HD
ENDBRANCH   4   2
BRANCH  11  12
ATOM     12  C   UNL     1      45.228   6.755  11.260  0.00  0.00    +0.000 C 
BRANCH  12  13
ATOM     13  C   UNL     1      45.363   5.705  10.169  0.00  0.00    +0.000 C 
ATOM     14  O   UNL     1      46.179   5.805   9.252  0.00  0.00    +0.000 OA
ATOM     15  N   UNL     1      44.493   4.616  10.242  0.00  0.00    +0.000 N 
ATOM     16  C   UNL     1      43.438   4.415  11.243  0.00  0.00    +0.000 C 
ATOM     17  C   UNL     1      43.447   2.974  11.792  0.00  0.00    +0.000 C 
ATOM     18  N   UNL     1      43.438   1.940  10.740  0.00  0.00    +0.000 NA
ATOM     19  C   UNL     1      44.555   2.178   9.804  0.00  0.00    +0.000 C 
ATOM     20  C   UNL     1      44.534   3.590   9.194  0.00  0.00    +0.000 C 
ATOM     24  H   UNL     1      42.563   2.008  10.221  0.00  0.00    +0.000 HD
ENDBRANCH  12  13
ENDBRANCH  11  12
TORSDOF 3
ENDMDL
MODEL 7
REMARK VINA RESULT:    -6.418      4.686      8.281
REMARK INTER + INTRA:          -7.968
REMARK INTER:                  -7.477
REMARK INTRA:                  -0.491
REMARK UNBOUND:                -0.424
REMARK  Name = 
REMARK  3 active torsions:
REMARK  status: ('A' for Active; 'I' for Inactive)
REMARK    1  A    between atoms: C_2  and  C_4
REMARK    2  A    between atoms: N_11  and  C_12
REMARK    3  A    between atoms: C_12  and  C_13
REMARK                            x       y       z     vdW  Elec       q    Type
REMARK                         _______ _______ _______ _____ _____    ______ ____
ROOT
ATOM      4  C   UNL     1      48.449   4.934  17.747  0.00  0.00    +0.000 A 
ATOM      5  C   UNL     1      47.764   4.191  16.789  0.00  0.00    +0.000 A 
ATOM      6  N   UNL     1      47.543   4.565  15.503  0.00  0.00    +0.000 NA
ATOM      7  C   UNL     1      48.091   5.762  15.198  0.00  0.00    +0.000 A 
ATOM      8  C   UNL     1      48.811   6.593  16.055  0.00  0.00    +0.000 A 
ATOM      9  C   UNL     1      49.178   7.743  15.306  0.00  0.00    +0.000 A 
ATOM     10  C   UNL     1      48.652   7.602  14.039  0.00  0.00    +0.000 A 
ATOM     11  N   UNL     1      48.015   6.384  13.974  0.00  0.00    +0.000 N 
ATOM     21  C   UNL     1      49.005   6.162  17.378  0.00  0.00    +0.000 A 
ENDROOT
BRANCH   4   2
ATOM      1  N   UNL     1      48.291   3.057  19.288  0.00  0.00    +0.000 N 
ATOM      2  C   UNL     1      48.562   4.387  19.116  0.00  0.00    +0.000 C 
ATOM      3  O   UNL     1      48.924   5.082  20.055  0.00  0.00    +0.000 OA
ATOM     22  H   UNL     1      48.471   2.676  20.208  0.00  0.00    +0.000 HD
ATOM     23  H   UNL     1      48.225   2.407  18.518  0.00  0.00    +0.000 HD
ENDBRANCH   4   2
BRANCH  11  12
ATOM     12  C   UNL     1      47.236   5.890  12.844  0.00  0.00    +0.000 C 
BRANCH  12  13
ATOM     13  C   UNL     1      45.760   6.254  12.874  0.00  0.00    +0.000 C 
ATOM     14  O   UNL     1      45.367   7.407  13.056  0.00  0.00    +0.000 OA
ATOM     15  N   UNL     1      44.856   5.204  12.704  0.00  0.00    +0.000 N 
ATOM     16  C   UNL     1      45.196   3.785  12.545  0.00  0.00    +0.000 C 
ATOM     17  C   UNL     1      44.393   3.137  11.398  0.00  0.00    +0.000 C 
ATOM     18  N   UNL     1      42.939   3.366  11.491  0.00  0.00    +0.000 NA
ATOM     19  C   UNL     1      42.674   4.815  11.596  0.00  0.00    +0.000 C 
ATOM     20  C   UNL     1      43.416   5.475  12.771  0.00  0.00    +0.000 C 
ATOM     24  H   UNL     1      42.588   2.913  12.335  0.00  0.00    +0.000 HD
ENDBRANCH  12  13
ENDBRANCH  11  12
TORSDOF 3
ENDMDL
MODEL 8
REMARK VINA RESULT:    -6.331      4.269      6.404
REMARK INTER + INTRA:          -7.865
REMARK INTER:                  -7.339
REMARK INTRA:                  -0.527
REMARK UNBOUND:                -0.424
REMARK  Name = 
REMARK  3 active torsions:
REMARK  status: ('A' for Active; 'I' for Inactive)
REMARK    1  A    between atoms: C_2  and  C_4
REMARK    2  A    between atoms: N_11  and  C_12
REMARK    3  A    between atoms: C_12  and  C_13
REMARK                            x       y       z     vdW  Elec       q    Type
REMARK                         _______ _______ _______ _____ _____    ______ ____
ROOT
ATOM      4  C   UNL     1      44.853   4.332  12.235  0.00  0.00    +0.000 A 
ATOM      5  C   UNL     1      45.935   3.893  12.991  0.00  0.00    +0.000 A 
ATOM      6  N   UNL     1      46.886   4.683  13.550  0.00  0.00    +0.000 NA
ATOM      7  C   UNL     1      46.677   6.000  13.331  0.00  0.00    +0.000 A 
ATOM      8  C   UNL     1      45.628   6.569  12.610  0.00  0.00    +0.000 A 
ATOM      9  C   UNL     1      45.823   7.976  12.635  0.00  0.00    +0.000 A 
ATOM     10  C   UNL     1      46.987   8.223  13.333  0.00  0.00    +0.000 A 
ATOM     11  N   UNL     1      47.486   7.020  13.774  0.00  0.00    +0.000 N 
ATOM     21  C   UNL     1      44.674   5.706  12.045  0.00  0.00    +0.000 A 
ENDROOT
BRANCH   4   2
ATOM      1  N   UNL     1      43.675   2.211  12.419  0.00  0.00    +0.000 N 
ATOM      2  C   UNL     1      43.932   3.323  11.667  0.00  0.00    +0.000 C 
ATOM      3  O   UNL     1      43.386   3.493  10.585  0.00  0.00    +0.000 OA
ATOM     22  H   UNL     1      42.966   1.581  12.065  0.00  0.00    +0.000 HD
ATOM     23  H   UNL     1      43.908   2.146  13.400  0.00  0.00    +0.000 HD
ENDBRANCH   4   2
BRANCH  11  12
ATOM     12  C   UNL     1      48.757   6.825  14.462  0.00  0.00    +0.000 C 
BRANCH  12  13
ATOM     13  C   UNL     1      48.787   7.309  15.903  0.00  0.00    +0.000 C 
ATOM     14  O   UNL     1      49.004   8.484  16.201  0.00  0.00    +0.000 OA
ATOM     15  N   UNL     1      48.576   6.344  16.889  0.00  0.00    +0.000 N 
ATOM     16  C   UNL     1      48.372   4.908  16.667  0.00  0.00    +0.000 C 
ATOM     17  C   UNL     1      47.198   4.366  17.509  0.00  0.00    +0.000 C 
ATOM     18  N   UNL     1      47.288   4.713  18.939  0.00  0.00    +0.000 NA
ATOM     19  C   UNL     1      47.439   6.175  19.084  0.00  0.00    +0.000 C 
ATOM     20  C   UNL     1      48.641   6.732  18.302  0.00  0.00    +0.000 C 
ATOM     24  H   UNL     1      48.113   4.263  19.335  0.00  0.00    +0.000 HD
ENDBRANCH  12  13
ENDBRANCH  11  12
TORSDOF 3
ENDMDL
MODEL 9
REMARK VINA RESULT:    -6.210      5.226      6.782
REMARK INTER + INTRA:          -7.723
REMARK INTER:                  -7.332
REMARK INTRA:                  -0.392
REMARK UNBOUND:                -0.424
REMARK  Name = 
REMARK  3 active torsions:
REMARK  status: ('A' for Active; 'I' for Inactive)
REMARK    1  A    between atoms: C_2  and  C_4
REMARK    2  A    between atoms: N_11  and  C_12
REMARK    3  A    between atoms: C_12  and  C_13
REMARK                            x       y       z     vdW  Elec       q    Type
REMARK                         _______ _______ _______ _____ _____    ______ ____
ROOT
ATOM      4  C   UNL     1      45.651   5.117  11.564  0.00  0.00    +0.000 A 
ATOM      5  C   UNL     1      45.356   4.101  12.469  0.00  0.00    +0.000 A 
ATOM      6  N   UNL     1      45.904   3.953  13.702  0.00  0.00    +0.000 NA
ATOM      7  C   UNL     1      46.782   4.933  14.012  0.00  0.00    +0.000 A 
ATOM      8  C   UNL     1      47.149   6.010  13.208  0.00  0.00    +0.000 A 
ATOM      9  C   UNL     1      48.100   6.769  13.941  0.00  0.00    +0.000 A 
ATOM     10  C   UNL     1      48.310   6.126  15.143  0.00  0.00    +0.000 A 
ATOM     11  N   UNL     1      47.487   5.026  15.190  0.00  0.00    +0.000 N 
ATOM     21  C   UNL     1      46.558   6.113  11.938  0.00  0.00    +0.000 A 
ENDROOT
BRANCH   4   2
ATOM      1  N   UNL     1      43.618   5.144  10.227  0.00  0.00    +0.000 N 
ATOM      2  C   UNL     1      44.984   5.102  10.243  0.00  0.00    +0.000 C 
ATOM      3  O   UNL     1      45.627   5.094   9.203  0.00  0.00    +0.000 OA
ATOM     22  H   UNL     1      43.181   5.236   9.319  0.00  0.00    +0.000 HD
ATOM     23  H   UNL     1      43.066   5.390  11.036  0.00  0.00    +0.000 HD
ENDBRANCH   4   2
BRANCH  11  12
ATOM     12  C   UNL     1      47.472   4.016  16.243  0.00  0.00    +0.000 C 
BRANCH  12  13
ATOM     13  C   UNL     1      48.657   4.064  17.194  0.00  0.00    +0.000 C 
ATOM     14  O   UNL     1      49.714   3.475  16.963  0.00  0.00    +0.000 OA
ATOM     15  N   UNL     1      48.483   4.798  18.368  0.00  0.00    +0.000 N 
ATOM     16  C   UNL     1      47.257   5.487  18.787  0.00  0.00    +0.000 C 
ATOM     17  C   UNL     1      47.556   6.909  19.306  0.00  0.00    +0.000 C 
ATOM     18  N   UNL     1      48.612   6.952  20.334  0.00  0.00    +0.000 NA
ATOM     19  C   UNL     1      49.827   6.288  19.822  0.00  0.00    +0.000 C 
ATOM     20  C   UNL     1      49.568   4.845  19.354  0.00  0.00    +0.000 C 
ATOM     24  H   UNL     1      48.290   6.444  21.158  0.00  0.00    +0.000 HD
ENDBRANCH  12  13
ENDBRANCH  11  12
TORSDOF 3
ENDMDL
