MODEL 1
REMARK VINA RESULT:    -8.501      0.000      0.000
REMARK INTER + INTRA:         -11.459
REMARK INTER:                 -10.986
REMARK INTRA:                  -0.473
REMARK UNBOUND:                -0.473
REMARK  Name = 
REMARK  5 active torsions:
REMARK  status: ('A' for Active; 'I' for Inactive)
REMARK    1  A    between atoms: C_2  and  C_4
REMARK    2  A    between atoms: N_8  and  C_9
REMARK    3  A    between atoms: C_9  and  C_10
REMARK    4  A    between atoms: C_14  and  N_15
REMARK    5  A    between atoms: C_19  and  C_20
REMARK                            x       y       z     vdW  Elec       q    Type
REMARK                         _______ _______ _______ _____ _____    ______ ____
ROOT
ATOM     10  C   UNL     1      44.461   5.963  11.371  0.00  0.00    +0.000 A 
ATOM     11  C   UNL     1      44.320   7.353  11.430  0.00  0.00    +0.000 A 
ATOM     12  C   UNL     1      45.198   8.104  12.204  0.00  0.00    +0.000 A 
ATOM     13  C   UNL     1      46.210   7.470  12.932  0.00  0.00    +0.000 A 
ATOM     14  C   UNL     1      46.389   6.078  12.898  0.00  0.00    +0.000 A 
ATOM     25  C   UNL     1      45.520   5.351  12.072  0.00  0.00    +0.000 A 
ENDROOT
BRANCH  14  15
ATOM     15  N   UNL     1      47.369   5.470  13.663  0.00  0.00    +0.000 N 
ATOM     16  C   UNL     1      47.175   4.166  14.308  0.00  0.00    +0.000 C 
ATOM     17  C   UNL     1      47.214   4.307  15.841  0.00  0.00    +0.000 C 
ATOM     18  N   UNL     1      48.438   4.961  16.340  0.00  0.00    +0.000 NA
ATOM     19  C   UNL     1      48.600   6.308  15.684  0.00  0.00    +0.000 C 
ATOM     24  C   UNL     1      48.537   6.243  14.132  0.00  0.00    +0.000 C 
ATOM     31  H   UNL     1      49.247   4.389  16.090  0.00  0.00    +0.000 HD
BRANCH  19  20
ATOM     20  C   UNL     1      49.885   7.080  16.091  0.00  0.00    +0.000 C 
ATOM     21  F   UNL     1      50.933   6.246  16.293  0.00  0.00    +0.000 F 
ATOM     22  F   UNL     1      50.275   7.968  15.148  0.00  0.00    +0.000 F 
ATOM     23  F   UNL     1      49.695   7.773  17.238  0.00  0.00    +0.000 F 
ENDBRANCH  19  20
ENDBRANCH  14  15
BRANCH  10   9
ATOM      9  C   UNL     1      43.431   5.115  10.671  0.00  0.00    +0.000 C 
BRANCH   9   8
ATOM      4  C   UNL     1      46.592   2.649   7.504  0.00  0.00    +0.000 A 
ATOM      5  C   UNL     1      46.266   3.994   7.626  0.00  0.00    +0.000 A 
ATOM      6  C   UNL     1      45.356   4.384   8.610  0.00  0.00    +0.000 A 
ATOM      7  C   UNL     1      44.771   3.437   9.448  0.00  0.00    +0.000 A 
ATOM      8  N   UNL     1      43.870   3.765  10.433  0.00  0.00    +0.000 N 
ATOM     26  N   UNL     1      45.074   2.128   9.328  0.00  0.00    +0.000 NA
ATOM     27  C   UNL     1      45.967   1.761   8.365  0.00  0.00    +0.000 A 
ATOM     30  H   UNL     1      43.463   2.989  10.934  0.00  0.00    +0.000 HD
BRANCH   4   2
ATOM      1  N   UNL     1      47.808   2.967   5.423  0.00  0.00    +0.000 N 
ATOM      2  C   UNL     1      47.534   2.145   6.482  0.00  0.00    +0.000 C 
ATOM      3  O   UNL     1      48.068   1.050   6.588  0.00  0.00    +0.000 OA
ATOM     28  H   UNL     1      48.517   2.647   4.774  0.00  0.00    +0.000 HD
ATOM     29  H   UNL     1      47.580   3.951   5.415  0.00  0.00    +0.000 HD
ENDBRANCH   4   2
ENDBRANCH   9   8
ENDBRANCH  10   9
TORSDOF 5
ENDMDL
MODEL 2
REMARK VINA RESULT:    -8.262      3.621      4.571
REMARK INTER + INTRA:         -11.150
REMARK INTER:                 -10.489
REMARK INTRA:                  -0.661
REMARK UNBOUND:                -0.473
REMARK  Name = 
REMARK  5 active torsions:
REMARK  status: ('A' for Active; 'I' for Inactive)
REMARK    1  A    between atoms: C_2  and  C_4
REMARK    2  A    between atoms: N_8  and  C_9
REMARK    3  A    between atoms: C_9  and  C_10
REMARK    4  A    between atoms: C_14  and  N_15
REMARK    5  A    between atoms: C_19  and  C_20
REMARK                            x       y       z     vdW  Elec       q    Type
REMARK                         _______ _______ _______ _____ _____    ______ ____
ROOT
ATOM     10  C   UNL     1      44.690   4.072  11.879  0.00  0.00    +0.000 A 
ATOM     11  C   UNL     1      45.481   3.428  12.836  0.00  0.00    +0.000 A 
ATOM     12  C   UNL     1      46.504   4.125  13.469  0.00  0.00    +0.000 A 
ATOM     13  C   UNL     1      46.749   5.462  13.140  0.00  0.00    +0.000 A 
ATOM     14  C   UNL     1      45.977   6.148  12.189  0.00  0.00    +0.000 A 
ATOM     25  C   UNL     1      44.923   5.433  11.602  0.00  0.00    +0.000 A 
ENDROOT
BRANCH  14  15
ATOM     15  N   UNL     1      46.268   7.457  11.848  0.00  0.00    +0.000 N 
ATOM     16  C   UNL     1      47.420   8.182  12.398  0.00  0.00    +0.000 C 
ATOM     17  C   UNL     1      46.953   9.369  13.261  0.00  0.00    +0.000 C 
ATOM     18  N   UNL     1      46.046  10.290  12.552  0.00  0.00    +0.000 NA
ATOM     19  C   UNL     1      44.858   9.527  12.022  0.00  0.00    +0.000 C 
ATOM     24  C   UNL     1      45.258   8.292  11.166  0.00  0.00    +0.000 C 
ATOM     31  H   UNL     1      46.539  10.698  11.756  0.00  0.00    +0.000 HD
BRANCH  19  20
ATOM     20  C   UNL     1      43.847  10.380  11.209  0.00  0.00    +0.000 C 
ATOM     21  F   UNL     1      44.464  11.354  10.497  0.00  0.00    +0.000 F 
ATOM     22  F   UNL     1      43.142   9.641  10.321  0.00  0.00    +0.000 F 
ATOM     23  F   UNL     1      42.952  10.985  12.025  0.00  0.00    +0.000 F 
ENDBRANCH  19  20
ENDBRANCH  14  15
BRANCH  10   9
ATOM      9  C   UNL     1      43.684   3.298  11.067  0.00  0.00    +0.000 C 
BRANCH   9   8
ATOM      4  C   UNL     1      46.748   2.369   7.086  0.00  0.00    +0.000 A 
ATOM      5  C   UNL     1      46.282   3.555   7.639  0.00  0.00    +0.000 A 
ATOM      6  C   UNL     1      45.445   3.499   8.755  0.00  0.00    +0.000 A 
ATOM      7  C   UNL     1      45.070   2.272   9.297  0.00  0.00    +0.000 A 
ATOM      8  N   UNL     1      44.249   2.158  10.394  0.00  0.00    +0.000 N 
ATOM     26  N   UNL     1      45.509   1.116   8.758  0.00  0.00    +0.000 NA
ATOM     27  C   UNL     1      46.328   1.185   7.670  0.00  0.00    +0.000 A 
ATOM     30  H   UNL     1      43.992   1.218  10.656  0.00  0.00    +0.000 HD
BRANCH   4   2
ATOM      1  N   UNL     1      47.403   3.271   4.925  0.00  0.00    +0.000 N 
ATOM      2  C   UNL     1      47.625   2.333   5.897  0.00  0.00    +0.000 C 
ATOM      3  O   UNL     1      48.531   1.517   5.793  0.00  0.00    +0.000 OA
ATOM     28  H   UNL     1      48.062   3.291   4.156  0.00  0.00    +0.000 HD
ATOM     29  H   UNL     1      46.836   4.093   5.072  0.00  0.00    +0.000 HD
ENDBRANCH   4   2
ENDBRANCH   9   8
ENDBRANCH  10   9
TORSDOF 5
ENDMDL
MODEL 3
REMARK VINA RESULT:    -8.245      4.465      7.783
REMARK INTER + INTRA:         -11.128
REMARK INTER:                 -10.620
REMARK INTRA:                  -0.508
REMARK UNBOUND:                -0.473
REMARK  Name = 
REMARK  5 active torsions:
REMARK  status: ('A' for Active; 'I' for Inactive)
REMARK    1  A    between atoms: C_2  and  C_4
REMARK    2  A    between atoms: N_8  and  C_9
REMARK    3  A    between atoms: C_9  and  C_10
REMARK    4  A    between atoms: C_14  and  N_15
REMARK    5  A    between atoms: C_19  and  C_20
REMARK                            x       y       z     vdW  Elec       q    Type
REMARK                         _______ _______ _______ _____ _____    ______ ____
ROOT
ATOM     10  C   UNL     1      46.839   7.307  12.225  0.00  0.00    +0.000 A 
ATOM     11  C   UNL     1      46.273   8.585  12.190  0.00  0.00    +0.000 A 
ATOM     12  C   UNL     1      44.948   8.743  11.800  0.00  0.00    +0.000 A 
ATOM     13  C   UNL     1      44.188   7.629  11.431  0.00  0.00    +0.000 A 
ATOM     14  C   UNL     1      44.715   6.328  11.456  0.00  0.00    +0.000 A 
ATOM     25  C   UNL     1      46.039   6.194  11.899  0.00  0.00    +0.000 A 
ENDROOT
BRANCH  14  15
ATOM     15  N   UNL     1      43.957   5.247  11.043  0.00  0.00    +0.000 N 
ATOM     16  C   UNL     1      42.959   4.603  11.906  0.00  0.00    +0.000 C 
ATOM     17  C   UNL     1      43.369   3.153  12.225  0.00  0.00    +0.000 C 
ATOM     18  N   UNL     1      43.627   2.338  11.024  0.00  0.00    +0.000 NA
ATOM     19  C   UNL     1      44.674   3.005  10.170  0.00  0.00    +0.000 C 
ATOM     24  C   UNL     1      44.338   4.485   9.835  0.00  0.00    +0.000 C 
ATOM     31  H   UNL     1      42.768   2.272  10.475  0.00  0.00    +0.000 HD
BRANCH  19  20
ATOM     20  C   UNL     1      45.001   2.265   8.844  0.00  0.00    +0.000 C 
ATOM     21  F   UNL     1      46.331   2.053   8.697  0.00  0.00    +0.000 F 
ATOM     22  F   UNL     1      44.407   1.051   8.769  0.00  0.00    +0.000 F 
ATOM     23  F   UNL     1      44.587   2.979   7.771  0.00  0.00    +0.000 F 
ENDBRANCH  19  20
ENDBRANCH  14  15
BRANCH  10   9
ATOM      9  C   UNL     1      48.312   7.125  12.488  0.00  0.00    +0.000 C 
BRANCH   9   8
ATOM      4  C   UNL     1      47.767   4.274  16.693  0.00  0.00    +0.000 A 
ATOM      5  C   UNL     1      47.381   4.064  15.375  0.00  0.00    +0.000 A 
ATOM      6  C   UNL     1      47.677   5.037  14.420  0.00  0.00    +0.000 A 
ATOM      7  C   UNL     1      48.338   6.209  14.783  0.00  0.00    +0.000 A 
ATOM      8  N   UNL     1      48.655   7.199  13.884  0.00  0.00    +0.000 N 
ATOM     26  N   UNL     1      48.706   6.424  16.063  0.00  0.00    +0.000 NA
ATOM     27  C   UNL     1      48.412   5.465  16.986  0.00  0.00    +0.000 A 
ATOM     30  H   UNL     1      49.074   8.031  14.274  0.00  0.00    +0.000 HD
BRANCH   4   2
ATOM      1  N   UNL     1      48.307   3.320  18.863  0.00  0.00    +0.000 N 
ATOM      2  C   UNL     1      47.481   3.305  17.772  0.00  0.00    +0.000 C 
ATOM      3  O   UNL     1      46.531   2.538  17.708  0.00  0.00    +0.000 OA
ATOM     28  H   UNL     1      48.053   2.711  19.632  0.00  0.00    +0.000 HD
ATOM     29  H   UNL     1      48.945   4.077  19.061  0.00  0.00    +0.000 HD
ENDBRANCH   4   2
ENDBRANCH   9   8
ENDBRANCH  10   9
TORSDOF 5
ENDMDL
MODEL 4
REMARK VINA RESULT:    -8.133      4.904      8.497
REMARK INTER + INTRA:         -10.983
REMARK INTER:                 -10.223
REMARK INTRA:                  -0.760
REMARK UNBOUND:                -0.473
REMARK  Name = 
REMARK  5 active torsions:
REMARK  status: ('A' for Active; 'I' for Inactive)
REMARK    1  A    between atoms: C_2  and  C_4
REMARK    2  A    between atoms: N_8  and  C_9
REMARK    3  A    between atoms: C_9  and  C_10
REMARK    4  A    between atoms: C_14  and  N_15
REMARK    5  A    between atoms: C_19  and  C_20
REMARK                            x       y       z     vdW  Elec       q    Type
REMARK                         _______ _______ _______ _____ _____    ______ ____
ROOT
ATOM     10  C   UNL     1      46.966   5.005  14.891  0.00  0.00    +0.000 A 
ATOM     11  C   UNL     1      47.960   5.917  14.525  0.00  0.00    +0.000 A 
ATOM     12  C   UNL     1      47.943   6.484  13.255  0.00  0.00    +0.000 A 
ATOM     13  C   UNL     1      46.942   6.133  12.344  0.00  0.00    +0.000 A 
ATOM     14  C   UNL     1      45.923   5.226  12.672  0.00  0.00    +0.000 A 
ATOM     25  C   UNL     1      45.938   4.706  13.975  0.00  0.00    +0.000 A 
ENDROOT
BRANCH  14  15
ATOM     15  N   UNL     1      44.969   4.860  11.739  0.00  0.00    +0.000 N 
ATOM     16  C   UNL     1      43.662   4.308  12.115  0.00  0.00    +0.000 C 
ATOM     17  C   UNL     1      43.522   2.856  11.622  0.00  0.00    +0.000 C 
ATOM     18  N   UNL     1      43.758   2.702  10.175  0.00  0.00    +0.000 NA
ATOM     19  C   UNL     1      45.117   3.249   9.819  0.00  0.00    +0.000 C 
ATOM     24  C   UNL     1      45.338   4.705  10.316  0.00  0.00    +0.000 C 
ATOM     31  H   UNL     1      43.058   3.240   9.662  0.00  0.00    +0.000 HD
BRANCH  19  20
ATOM     20  C   UNL     1      45.467   3.189   8.307  0.00  0.00    +0.000 C 
ATOM     21  F   UNL     1      44.387   3.437   7.527  0.00  0.00    +0.000 F 
ATOM     22  F   UNL     1      46.411   4.094   7.957  0.00  0.00    +0.000 F 
ATOM     23  F   UNL     1      45.938   1.967   7.963  0.00  0.00    +0.000 F 
ENDBRANCH  19  20
ENDBRANCH  14  15
BRANCH  10   9
ATOM      9  C   UNL     1      47.051   4.259  16.198  0.00  0.00    +0.000 C 
BRANCH   9   8
ATOM      4  C   UNL     1      51.637   2.594  17.714  0.00  0.00    +0.000 A 
ATOM      5  C   UNL     1      50.995   3.816  17.875  0.00  0.00    +0.000 A 
ATOM      6  C   UNL     1      49.714   3.982  17.348  0.00  0.00    +0.000 A 
ATOM      7  C   UNL     1      49.093   2.945  16.656  0.00  0.00    +0.000 A 
ATOM      8  N   UNL     1      47.832   3.054  16.117  0.00  0.00    +0.000 N 
ATOM     26  N   UNL     1      49.714   1.760  16.486  0.00  0.00    +0.000 NA
ATOM     27  C   UNL     1      50.964   1.610  17.008  0.00  0.00    +0.000 A 
ATOM     30  H   UNL     1      47.512   2.260  15.581  0.00  0.00    +0.000 HD
BRANCH   4   2
ATOM      1  N   UNL     1      53.280   2.750  19.499  0.00  0.00    +0.000 N 
ATOM      2  C   UNL     1      52.999   2.335  18.226  0.00  0.00    +0.000 C 
ATOM      3  O   UNL     1      53.836   1.750  17.552  0.00  0.00    +0.000 OA
ATOM     28  H   UNL     1      54.187   2.493  19.869  0.00  0.00    +0.000 HD
ATOM     29  H   UNL     1      52.567   3.017  20.161  0.00  0.00    +0.000 HD
ENDBRANCH   4   2
ENDBRANCH   9   8
ENDBRANCH  10   9
TORSDOF 5
ENDMDL
MODEL 5
REMARK VINA RESULT:    -8.088      4.826      8.464
REMARK INTER + INTRA:         -10.925
REMARK INTER:                 -10.110
REMARK INTRA:                  -0.815
REMARK UNBOUND:                -0.473
REMARK  Name = 
REMARK  5 active torsions:
REMARK  status: ('A' for Active; 'I' for Inactive)
REMARK    1  A    between atoms: C_2  and  C_4
REMARK    2  A    between atoms: N_8  and  C_9
REMARK    3  A    between atoms: C_9  and  C_10
REMARK    4  A    between atoms: C_14  and  N_15
REMARK    5  A    between atoms: C_19  and  C_20
REMARK                            x       y       z     vdW  Elec       q    Type
REMARK                         _______ _______ _______ _____ _____    ______ ____
ROOT
ATOM     10  C   UNL     1      47.124   6.974  12.679  0.00  0.00    +0.000 A 
ATOM     11  C   UNL     1      46.731   8.308  12.536  0.00  0.00    +0.000 A 
ATOM     12  C   UNL     1      45.490   8.608  11.985  0.00  0.00    +0.000 A 
ATOM     13  C   UNL     1      44.644   7.578  11.562  0.00  0.00    +0.000 A 
ATOM     14  C   UNL     1      44.997   6.226  11.691  0.00  0.00    +0.000 A 
ATOM     25  C   UNL     1      46.233   5.952  12.293  0.00  0.00    +0.000 A 
ENDROOT
BRANCH  14  15
ATOM     15  N   UNL     1      44.162   5.226  11.223  0.00  0.00    +0.000 N 
ATOM     16  C   UNL     1      43.107   4.624  12.048  0.00  0.00    +0.000 C 
ATOM     17  C   UNL     1      43.401   3.134  12.304  0.00  0.00    +0.000 C 
ATOM     18  N   UNL     1      43.607   2.356  11.069  0.00  0.00    +0.000 NA
ATOM     19  C   UNL     1      44.713   2.977  10.254  0.00  0.00    +0.000 C 
ATOM     24  C   UNL     1      44.496   4.492   9.985  0.00  0.00    +0.000 C 
ATOM     31  H   UNL     1      42.752   2.381  10.511  0.00  0.00    +0.000 HD
BRANCH  19  20
ATOM     20  C   UNL     1      44.995   2.274   8.899  0.00  0.00    +0.000 C 
ATOM     21  F   UNL     1      46.323   2.122   8.674  0.00  0.00    +0.000 F 
ATOM     22  F   UNL     1      44.450   1.037   8.833  0.00  0.00    +0.000 F 
ATOM     23  F   UNL     1      44.492   2.987   7.864  0.00  0.00    +0.000 F 
ENDBRANCH  19  20
ENDBRANCH  14  15
BRANCH  10   9
ATOM      9  C   UNL     1      48.522   6.627  13.123  0.00  0.00    +0.000 C 
BRANCH   9   8
ATOM      4  C   UNL     1      48.366   5.458  18.094  0.00  0.00    +0.000 A 
ATOM      5  C   UNL     1      47.972   4.753  16.964  0.00  0.00    +0.000 A 
ATOM      6  C   UNL     1      48.146   5.335  15.707  0.00  0.00    +0.000 A 
ATOM      7  C   UNL     1      48.694   6.611  15.588  0.00  0.00    +0.000 A 
ATOM      8  N   UNL     1      48.888   7.231  14.377  0.00  0.00    +0.000 N 
ATOM     26  N   UNL     1      49.068   7.306  16.681  0.00  0.00    +0.000 NA
ATOM     27  C   UNL     1      48.894   6.725  17.902  0.00  0.00    +0.000 A 
ATOM     30  H   UNL     1      49.230   8.180  14.418  0.00  0.00    +0.000 HD
BRANCH   4   2
ATOM      1  N   UNL     1      48.480   3.600  19.657  0.00  0.00    +0.000 N 
ATOM      2  C   UNL     1      48.204   4.926  19.463  0.00  0.00    +0.000 C 
ATOM      3  O   UNL     1      47.864   5.644  20.394  0.00  0.00    +0.000 OA
ATOM     28  H   UNL     1      48.447   3.265  20.613  0.00  0.00    +0.000 HD
ATOM     29  H   UNL     1      48.980   3.037  18.985  0.00  0.00    +0.000 HD
ENDBRANCH   4   2
ENDBRANCH   9   8
ENDBRANCH  10   9
TORSDOF 5
ENDMDL
MODEL 6
REMARK VINA RESULT:    -8.013      2.492      3.540
REMARK INTER + INTRA:         -10.828
REMARK INTER:                  -9.888
REMARK INTRA:                  -0.940
REMARK UNBOUND:                -0.473
REMARK  Name = 
REMARK  5 active torsions:
REMARK  status: ('A' for Active; 'I' for Inactive)
REMARK    1  A    between atoms: C_2  and  C_4
REMARK    2  A    between atoms: N_8  and  C_9
REMARK    3  A    between atoms: C_9  and  C_10
REMARK    4  A    between atoms: C_14  and  N_15
REMARK    5  A    between atoms: C_19  and  C_20
REMARK                            x       y       z     vdW  Elec       q    Type
REMARK                         _______ _______ _______ _____ _____    ______ ____
ROOT
ATOM     10  C   UNL     1      45.265   5.413  12.221  0.00  0.00    +0.000 A 
ATOM     11  C   UNL     1      45.338   4.328  13.100  0.00  0.00    +0.000 A 
ATOM     12  C   UNL     1      46.303   4.314  14.101  0.00  0.00    +0.000 A 
ATOM     13  C   UNL     1      47.206   5.375  14.219  0.00  0.00    +0.000 A 
ATOM     14  C   UNL     1      47.166   6.485  13.361  0.00  0.00    +0.000 A 
ATOM     25  C   UNL     1      46.152   6.494  12.392  0.00  0.00    +0.000 A 
ENDROOT
BRANCH  14  15
ATOM     15  N   UNL     1      48.099   7.501  13.470  0.00  0.00    +0.000 N 
ATOM     16  C   UNL     1      47.748   8.855  13.916  0.00  0.00    +0.000 C 
ATOM     17  C   UNL     1      47.973   9.876  12.785  0.00  0.00    +0.000 C 
ATOM     18  N   UNL     1      49.339   9.845  12.230  0.00  0.00    +0.000 NA
ATOM     19  C   UNL     1      49.664   8.452  11.754  0.00  0.00    +0.000 C 
ATOM     24  C   UNL     1      49.428   7.365  12.839  0.00  0.00    +0.000 C 
ATOM     31  H   UNL     1      50.004  10.090  12.965  0.00  0.00    +0.000 HD
BRANCH  19  20
ATOM     20  C   UNL     1      51.100   8.277  11.189  0.00  0.00    +0.000 C 
ATOM     21  F   UNL     1      52.025   8.184  12.176  0.00  0.00    +0.000 F 
ATOM     22  F   UNL     1      51.228   7.160  10.436  0.00  0.00    +0.000 F 
ATOM     23  F   UNL     1      51.450   9.327  10.409  0.00  0.00    +0.000 F 
ENDBRANCH  19  20
ENDBRANCH  14  15
BRANCH  10   9
ATOM      9  C   UNL     1      44.337   5.380  11.034  0.00  0.00    +0.000 C 
BRANCH   9   8
ATOM      4  C   UNL     1      46.618   2.439   7.534  0.00  0.00    +0.000 A 
ATOM      5  C   UNL     1      45.983   2.132   8.731  0.00  0.00    +0.000 A 
ATOM      6  C   UNL     1      45.435   3.165   9.492  0.00  0.00    +0.000 A 
ATOM      7  C   UNL     1      45.536   4.488   9.066  0.00  0.00    +0.000 A 
ATOM      8  N   UNL     1      45.015   5.544   9.775  0.00  0.00    +0.000 N 
ATOM     26  N   UNL     1      46.161   4.795   7.911  0.00  0.00    +0.000 NA
ATOM     27  C   UNL     1      46.690   3.776   7.176  0.00  0.00    +0.000 A 
ATOM     30  H   UNL     1      45.207   6.462   9.402  0.00  0.00    +0.000 HD
BRANCH   4   2
ATOM      1  N   UNL     1      48.193   1.829   5.785  0.00  0.00    +0.000 N 
ATOM      2  C   UNL     1      47.240   1.411   6.673  0.00  0.00    +0.000 C 
ATOM      3  O   UNL     1      46.935   0.229   6.766  0.00  0.00    +0.000 OA
ATOM     28  H   UNL     1      48.671   1.105   5.261  0.00  0.00    +0.000 HD
ATOM     29  H   UNL     1      48.636   2.734   5.838  0.00  0.00    +0.000 HD
ENDBRANCH   4   2
ENDBRANCH   9   8
ENDBRANCH  10   9
TORSDOF 5
ENDMDL
MODEL 7
REMARK VINA RESULT:    -7.934      2.542      3.800
REMARK INTER + INTRA:         -10.726
REMARK INTER:                 -10.043
REMARK INTRA:                  -0.682
REMARK UNBOUND:                -0.473
REMARK  Name = 
REMARK  5 active torsions:
REMARK  status: ('A' for Active; 'I' for Inactive)
REMARK    1  A    between atoms: C_2  and  C_4
REMARK    2  A    between atoms: N_8  and  C_9
REMARK    3  A    between atoms: C_9  and  C_10
REMARK    4  A    between atoms: C_14  and  N_15
REMARK    5  A    between atoms: C_19  and  C_20
REMARK                            x       y       z     vdW  Elec       q    Type
REMARK                         _______ _______ _______ _____ _____    ______ ____
ROOT
ATOM     10  C   UNL     1      44.550   5.238  11.961  0.00  0.00    +0.000 A 
ATOM     11  C   UNL     1      45.431   4.409  12.663  0.00  0.00    +0.000 A 
ATOM     12  C   UNL     1      46.453   4.971  13.421  0.00  0.00    +0.000 A 
ATOM     13  C   UNL     1      46.607   6.360  13.469  0.00  0.00    +0.000 A 
ATOM     14  C   UNL     1      45.742   7.228  12.784  0.00  0.00    +0.000 A 
ATOM     25  C   UNL     1      44.693   6.635  12.067  0.00  0.00    +0.000 A 
ENDROOT
BRANCH  14  15
ATOM     15  N   UNL     1      45.942   8.597  12.811  0.00  0.00    +0.000 N 
ATOM     16  C   UNL     1      44.867   9.561  12.549  0.00  0.00    +0.000 C 
ATOM     17  C   UNL     1      45.158  10.365  11.268  0.00  0.00    +0.000 C 
ATOM     18  N   UNL     1      46.470  11.037  11.282  0.00  0.00    +0.000 NA
ATOM     19  C   UNL     1      47.559  10.023  11.524  0.00  0.00    +0.000 C 
ATOM     24  C   UNL     1      47.312   9.152  12.787  0.00  0.00    +0.000 C 
ATOM     31  H   UNL     1      46.491  11.712  12.048  0.00  0.00    +0.000 HD
BRANCH  19  20
ATOM     20  C   UNL     1      48.992  10.616  11.609  0.00  0.00    +0.000 C 
ATOM     21  F   UNL     1      49.941   9.650  11.582  0.00  0.00    +0.000 F 
ATOM     22  F   UNL     1      49.267  11.456  10.584  0.00  0.00    +0.000 F 
ATOM     23  F   UNL     1      49.164  11.316  12.756  0.00  0.00    +0.000 F 
ENDBRANCH  19  20
ENDBRANCH  14  15
BRANCH  10   9
ATOM      9  C   UNL     1      43.538   4.653  11.010  0.00  0.00    +0.000 C 
BRANCH   9   8
ATOM      4  C   UNL     1      46.562   2.680   7.396  0.00  0.00    +0.000 A 
ATOM      5  C   UNL     1      46.307   3.992   7.776  0.00  0.00    +0.000 A 
ATOM      6  C   UNL     1      45.419   4.232   8.826  0.00  0.00    +0.000 A 
ATOM      7  C   UNL     1      44.787   3.174   9.474  0.00  0.00    +0.000 A 
ATOM      8  N   UNL     1      43.905   3.353  10.514  0.00  0.00    +0.000 N 
ATOM     26  N   UNL     1      45.021   1.899   9.104  0.00  0.00    +0.000 NA
ATOM     27  C   UNL     1      45.892   1.678   8.078  0.00  0.00    +0.000 A 
ATOM     30  H   UNL     1      43.458   2.517  10.861  0.00  0.00    +0.000 HD
BRANCH   4   2
ATOM      1  N   UNL     1      47.351   3.050   5.126  0.00  0.00    +0.000 N 
ATOM      2  C   UNL     1      47.475   2.334   6.286  0.00  0.00    +0.000 C 
ATOM      3  O   UNL     1      48.325   1.462   6.404  0.00  0.00    +0.000 OA
ATOM     28  H   UNL     1      48.036   2.862   4.403  0.00  0.00    +0.000 HD
ATOM     29  H   UNL     1      46.837   3.916   5.065  0.00  0.00    +0.000 HD
ENDBRANCH   4   2
ENDBRANCH   9   8
ENDBRANCH  10   9
TORSDOF 5
ENDMDL
MODEL 8
REMARK VINA RESULT:    -7.264      3.297      4.743
REMARK INTER + INTRA:          -9.859
REMARK INTER:                  -8.929
REMARK INTRA:                  -0.930
REMARK UNBOUND:                -0.473
REMARK  Name = 
REMARK  5 active torsions:
REMARK  status: ('A' for Active; 'I' for Inactive)
REMARK    1  A    between atoms: C_2  and  C_4
REMARK    2  A    between atoms: N_8  and  C_9
REMARK    3  A    between atoms: C_9  and  C_10
REMARK    4  A    between atoms: C_14  and  N_15
REMARK    5  A    between atoms: C_19  and  C_20
REMARK                            x       y       z     vdW  Elec       q    Type
REMARK                         _______ _______ _______ _____ _____    ______ ____
ROOT
ATOM     10  C   UNL     1      48.003   8.220  13.083  0.00  0.00    +0.000 A 
ATOM     11  C   UNL     1      49.130   8.613  12.355  0.00  0.00    +0.000 A 
ATOM     12  C   UNL     1      50.399   8.419  12.889  0.00  0.00    +0.000 A 
ATOM     13  C   UNL     1      50.547   7.846  14.155  0.00  0.00    +0.000 A 
ATOM     14  C   UNL     1      49.443   7.433  14.918  0.00  0.00    +0.000 A 
ATOM     25  C   UNL     1      48.178   7.597  14.335  0.00  0.00    +0.000 A 
ENDROOT
BRANCH  14  15
ATOM     15  N   UNL     1      49.613   6.909  16.188  0.00  0.00    +0.000 N 
ATOM     16  C   UNL     1      50.908   6.911  16.879  0.00  0.00    +0.000 C 
ATOM     17  C   UNL     1      51.405   5.471  17.105  0.00  0.00    +0.000 C 
ATOM     18  N   UNL     1      50.434   4.618  17.815  0.00  0.00    +0.000 NA
ATOM     19  C   UNL     1      49.124   4.611  17.070  0.00  0.00    +0.000 C 
ATOM     24  C   UNL     1      48.578   6.037  16.780  0.00  0.00    +0.000 C 
ATOM     31  H   UNL     1      50.267   5.006  18.745  0.00  0.00    +0.000 HD
BRANCH  19  20
ATOM     20  C   UNL     1      47.997   3.783  17.746  0.00  0.00    +0.000 C 
ATOM     21  F   UNL     1      47.740   2.634  17.074  0.00  0.00    +0.000 F 
ATOM     22  F   UNL     1      48.306   3.426  19.015  0.00  0.00    +0.000 F 
ATOM     23  F   UNL     1      46.840   4.484  17.800  0.00  0.00    +0.000 F 
ENDBRANCH  19  20
ENDBRANCH  14  15
BRANCH  10   9
ATOM      9  C   UNL     1      46.617   8.562  12.599  0.00  0.00    +0.000 C 
BRANCH   9   8
ATOM      4  C   UNL     1      44.358   4.101  11.553  0.00  0.00    +0.000 A 
ATOM      5  C   UNL     1      45.366   4.803  10.905  0.00  0.00    +0.000 A 
ATOM      6  C   UNL     1      45.795   6.019  11.438  0.00  0.00    +0.000 A 
ATOM      7  C   UNL     1      45.210   6.530  12.595  0.00  0.00    +0.000 A 
ATOM      8  N   UNL     1      45.593   7.723  13.163  0.00  0.00    +0.000 N 
ATOM     26  N   UNL     1      44.222   5.860  13.223  0.00  0.00    +0.000 NA
ATOM     27  C   UNL     1      43.815   4.672  12.693  0.00  0.00    +0.000 A 
ATOM     30  H   UNL     1      45.053   8.024  13.961  0.00  0.00    +0.000 HD
BRANCH   4   2
ATOM      1  N   UNL     1      44.446   2.270   9.956  0.00  0.00    +0.000 N 
ATOM      2  C   UNL     1      43.832   2.813  11.052  0.00  0.00    +0.000 C 
ATOM      3  O   UNL     1      42.904   2.241  11.606  0.00  0.00    +0.000 OA
ATOM     28  H   UNL     1      44.133   1.349   9.672  0.00  0.00    +0.000 HD
ATOM     29  H   UNL     1      45.344   2.580   9.617  0.00  0.00    +0.000 HD
ENDBRANCH   4   2
ENDBRANCH   9   8
ENDBRANCH  10   9
TORSDOF 5
ENDMDL
MODEL 9
REMARK VINA RESULT:    -7.201      3.605      5.888
REMARK INTER + INTRA:          -9.778
REMARK INTER:                  -8.664
REMARK INTRA:                  -1.114
REMARK UNBOUND:                -0.473
REMARK  Name = 
REMARK  5 active torsions:
REMARK  status: ('A' for Active; 'I' for Inactive)
REMARK    1  A    between atoms: C_2  and  C_4
REMARK    2  A    between atoms: N_8  and  C_9
REMARK    3  A    between atoms: C_9  and  C_10
REMARK    4  A    between atoms: C_14  and  N_15
REMARK    5  A    between atoms: C_19  and  C_20
REMARK                            x       y       z     vdW  Elec       q    Type
REMARK                         _______ _______ _______ _____ _____    ______ ____
ROOT
ATOM     10  C   UNL     1      48.447   8.986  15.931  0.00  0.00    +0.000 A 
ATOM     11  C   UNL     1      48.245  10.097  16.756  0.00  0.00    +0.000 A 
ATOM     12  C   UNL     1      48.172   9.930  18.135  0.00  0.00    +0.000 A 
ATOM     13  C   UNL     1      48.287   8.652  18.693  0.00  0.00    +0.000 A 
ATOM     14  C   UNL     1      48.495   7.511  17.902  0.00  0.00    +0.000 A 
ATOM     25  C   UNL     1      48.611   7.717  16.520  0.00  0.00    +0.000 A 
ENDROOT
BRANCH  14  15
ATOM     15  N   UNL     1      48.560   6.253  18.474  0.00  0.00    +0.000 N 
ATOM     16  C   UNL     1      49.509   5.916  19.542  0.00  0.00    +0.000 C 
ATOM     17  C   UNL     1      50.515   4.855  19.059  0.00  0.00    +0.000 C 
ATOM     18  N   UNL     1      49.877   3.639  18.524  0.00  0.00    +0.000 NA
ATOM     19  C   UNL     1      48.929   4.009  17.411  0.00  0.00    +0.000 C 
ATOM     24  C   UNL     1      47.903   5.101  17.821  0.00  0.00    +0.000 C 
ATOM     31  H   UNL     1      49.333   3.193  19.266  0.00  0.00    +0.000 HD
BRANCH  19  20
ATOM     20  C   UNL     1      48.153   2.813  16.794  0.00  0.00    +0.000 C 
ATOM     21  F   UNL     1      48.968   1.763  16.530  0.00  0.00    +0.000 F 
ATOM     22  F   UNL     1      47.180   2.350  17.612  0.00  0.00    +0.000 F 
ATOM     23  F   UNL     1      47.561   3.165  15.628  0.00  0.00    +0.000 F 
ENDBRANCH  19  20
ENDBRANCH  14  15
BRANCH  10   9
ATOM      9  C   UNL     1      48.371   9.118  14.432  0.00  0.00    +0.000 C 
BRANCH   9   8
ATOM      4  C   UNL     1      45.694   5.276  12.390  0.00  0.00    +0.000 A 
ATOM      5  C   UNL     1      46.995   5.344  12.874  0.00  0.00    +0.000 A 
ATOM      6  C   UNL     1      47.462   6.553  13.391  0.00  0.00    +0.000 A 
ATOM      7  C   UNL     1      46.642   7.679  13.408  0.00  0.00    +0.000 A 
ATOM      8  N   UNL     1      47.050   8.895  13.906  0.00  0.00    +0.000 N 
ATOM     26  N   UNL     1      45.382   7.624  12.930  0.00  0.00    +0.000 NA
ATOM     27  C   UNL     1      44.938   6.435  12.431  0.00  0.00    +0.000 A 
ATOM     30  H   UNL     1      46.394   9.655  13.805  0.00  0.00    +0.000 HD
BRANCH   4   2
ATOM      1  N   UNL     1      45.290   2.881  12.518  0.00  0.00    +0.000 N 
ATOM      2  C   UNL     1      45.122   4.041  11.812  0.00  0.00    +0.000 C 
ATOM      3  O   UNL     1      44.501   4.056  10.758  0.00  0.00    +0.000 OA
ATOM     28  H   UNL     1      44.822   2.059  12.156  0.00  0.00    +0.000 HD
ATOM     29  H   UNL     1      45.582   2.862  13.485  0.00  0.00    +0.000 HD
ENDBRANCH   4   2
ENDBRANCH   9   8
ENDBRANCH  10   9
TORSDOF 5
ENDMDL
