MODEL 1
REMARK VINA RESULT:    -8.345      0.000      0.000
REMARK INTER + INTRA:         -11.165
REMARK INTER:                 -10.296
REMARK INTRA:                  -0.869
REMARK UNBOUND:                -0.869
REMARK  Name = 
REMARK  4 active torsions:
REMARK  status: ('A' for Active; 'I' for Inactive)
REMARK    1  A    between atoms: C_2  and  C_4
REMARK    2  A    between atoms: N_8  and  C_9
REMARK    3  A    between atoms: C_9  and  C_10
REMARK    4  A    between atoms: C_14  and  N_15
REMARK                            x       y       z     vdW  Elec       q    Type
REMARK                         _______ _______ _______ _____ _____    ______ ____
ROOT
ATOM      9  C   UNL     1      44.004   4.844  11.463  0.00  0.00    +0.000 C 
ATOM     22  C   UNL     1      42.642   4.953  12.137  0.00  0.00    +0.000 C 
ATOM     23  C   UNL     1      42.993   5.884  11.024  0.00  0.00    +0.000 C 
ENDROOT
BRANCH   9   8
ATOM      4  C   UNL     1      46.575   2.765   7.415  0.00  0.00    +0.000 A 
ATOM      5  C   UNL     1      46.403   4.100   7.765  0.00  0.00    +0.000 A 
ATOM      6  C   UNL     1      45.605   4.415   8.871  0.00  0.00    +0.000 A 
ATOM      7  C   UNL     1      45.034   3.394   9.621  0.00  0.00    +0.000 A 
ATOM      8  N   UNL     1      44.207   3.602  10.718  0.00  0.00    +0.000 N 
ATOM     24  N   UNL     1      45.200   2.097   9.283  0.00  0.00    +0.000 NA
ATOM     25  C   UNL     1      45.940   1.808   8.184  0.00  0.00    +0.000 A 
ATOM     28  H   UNL     1      44.059   2.713  11.184  0.00  0.00    +0.000 HD
BRANCH   4   2
ATOM      1  N   UNL     1      47.202   3.030   5.085  0.00  0.00    +0.000 N 
ATOM      2  C   UNL     1      47.370   2.330   6.244  0.00  0.00    +0.000 C 
ATOM      3  O   UNL     1      48.166   1.404   6.322  0.00  0.00    +0.000 OA
ATOM     26  H   UNL     1      47.836   2.795   4.330  0.00  0.00    +0.000 HD
ATOM     27  H   UNL     1      46.775   3.945   5.063  0.00  0.00    +0.000 HD
ENDBRANCH   4   2
ENDBRANCH   9   8
BRANCH   9  10
ATOM     10  C   UNL     1      45.243   5.303  12.229  0.00  0.00    +0.000 A 
ATOM     11  C   UNL     1      45.778   4.548  13.282  0.00  0.00    +0.000 A 
ATOM     12  C   UNL     1      46.981   4.907  13.882  0.00  0.00    +0.000 A 
ATOM     13  C   UNL     1      47.684   6.020  13.419  0.00  0.00    +0.000 A 
ATOM     14  C   UNL     1      47.193   6.823  12.380  0.00  0.00    +0.000 A 
ATOM     21  C   UNL     1      45.954   6.458  11.834  0.00  0.00    +0.000 A 
BRANCH  14  15
ATOM     15  N   UNL     1      47.921   7.913  11.930  0.00  0.00    +0.000 N 
ATOM     16  C   UNL     1      49.335   7.811  11.543  0.00  0.00    +0.000 C 
ATOM     17  C   UNL     1      50.255   8.573  12.525  0.00  0.00    +0.000 C 
ATOM     18  N   UNL     1      49.852   9.977  12.739  0.00  0.00    +0.000 NA
ATOM     19  C   UNL     1      48.453   9.986  13.223  0.00  0.00    +0.000 C 
ATOM     20  C   UNL     1      47.454   9.268  12.285  0.00  0.00    +0.000 C 
ATOM     29  H   UNL     1      49.871  10.448  11.834  0.00  0.00    +0.000 HD
ENDBRANCH  14  15
ENDBRANCH   9  10
TORSDOF 4
ENDMDL
MODEL 2
REMARK VINA RESULT:    -8.271      1.962      3.055
REMARK INTER + INTRA:         -11.073
REMARK INTER:                 -10.213
REMARK INTRA:                  -0.860
REMARK UNBOUND:                -0.869
REMARK  Name = 
REMARK  4 active torsions:
REMARK  status: ('A' for Active; 'I' for Inactive)
REMARK    1  A    between atoms: C_2  and  C_4
REMARK    2  A    between atoms: N_8  and  C_9
REMARK    3  A    between atoms: C_9  and  C_10
REMARK    4  A    between atoms: C_14  and  N_15
REMARK                            x       y       z     vdW  Elec       q    Type
REMARK                         _______ _______ _______ _____ _____    ______ ____
ROOT
ATOM      9  C   UNL     1      43.961   5.017  11.652  0.00  0.00    +0.000 C 
ATOM     22  C   UNL     1      42.722   5.024  12.540  0.00  0.00    +0.000 C 
ATOM     23  C   UNL     1      42.759   5.875  11.312  0.00  0.00    +0.000 C 
ENDROOT
BRANCH   9   8
ATOM      4  C   UNL     1      46.435   2.831   7.601  0.00  0.00    +0.000 A 
ATOM      5  C   UNL     1      46.184   4.173   7.868  0.00  0.00    +0.000 A 
ATOM      6  C   UNL     1      45.433   4.512   8.998  0.00  0.00    +0.000 A 
ATOM      7  C   UNL     1      44.986   3.511   9.853  0.00  0.00    +0.000 A 
ATOM      8  N   UNL     1      44.212   3.741  10.985  0.00  0.00    +0.000 N 
ATOM     24  N   UNL     1      45.229   2.207   9.596  0.00  0.00    +0.000 NA
ATOM     25  C   UNL     1      45.922   1.891   8.474  0.00  0.00    +0.000 A 
ATOM     28  H   UNL     1      44.160   2.880  11.520  0.00  0.00    +0.000 HD
BRANCH   4   2
ATOM      1  N   UNL     1      47.108   3.134   5.288  0.00  0.00    +0.000 N 
ATOM      2  C   UNL     1      47.190   2.368   6.414  0.00  0.00    +0.000 C 
ATOM      3  O   UNL     1      47.882   1.359   6.452  0.00  0.00    +0.000 OA
ATOM     26  H   UNL     1      47.719   2.868   4.526  0.00  0.00    +0.000 HD
ATOM     27  H   UNL     1      46.780   4.090   5.308  0.00  0.00    +0.000 HD
ENDBRANCH   4   2
ENDBRANCH   9   8
BRANCH   9  10
ATOM     10  C   UNL     1      45.230   5.700  12.156  0.00  0.00    +0.000 A 
ATOM     11  C   UNL     1      45.601   6.979  11.717  0.00  0.00    +0.000 A 
ATOM     12  C   UNL     1      46.684   7.645  12.283  0.00  0.00    +0.000 A 
ATOM     13  C   UNL     1      47.402   7.049  13.320  0.00  0.00    +0.000 A 
ATOM     14  C   UNL     1      47.089   5.766  13.793  0.00  0.00    +0.000 A 
ATOM     21  C   UNL     1      46.023   5.107  13.164  0.00  0.00    +0.000 A 
BRANCH  14  15
ATOM     15  N   UNL     1      47.809   5.207  14.836  0.00  0.00    +0.000 N 
ATOM     16  C   UNL     1      47.397   3.962  15.501  0.00  0.00    +0.000 C 
ATOM     17  C   UNL     1      46.947   4.212  16.959  0.00  0.00    +0.000 C 
ATOM     18  N   UNL     1      47.942   4.951  17.762  0.00  0.00    +0.000 NA
ATOM     19  C   UNL     1      48.225   6.233  17.077  0.00  0.00    +0.000 C 
ATOM     20  C   UNL     1      48.711   6.077  15.616  0.00  0.00    +0.000 C 
ATOM     29  H   UNL     1      48.804   4.405  17.769  0.00  0.00    +0.000 HD
ENDBRANCH  14  15
ENDBRANCH   9  10
TORSDOF 4
ENDMDL
MODEL 3
REMARK VINA RESULT:    -6.590      3.556      5.931
REMARK INTER + INTRA:          -9.000
REMARK INTER:                  -8.539
REMARK INTRA:                  -0.461
REMARK UNBOUND:                -0.869
REMARK  Name = 
REMARK  4 active torsions:
REMARK  status: ('A' for Active; 'I' for Inactive)
REMARK    1  A    between atoms: C_2  and  C_4
REMARK    2  A    between atoms: N_8  and  C_9
REMARK    3  A    between atoms: C_9  and  C_10
REMARK    4  A    between atoms: C_14  and  N_15
REMARK                            x       y       z     vdW  Elec       q    Type
REMARK                         _______ _______ _______ _____ _____    ______ ____
ROOT
ATOM      9  C   UNL     1      48.111   8.284  13.518  0.00  0.00    +0.000 C 
ATOM     22  C   UNL     1      48.049   9.802  13.409  0.00  0.00    +0.000 C 
ATOM     23  C   UNL     1      48.538   8.996  12.251  0.00  0.00    +0.000 C 
ENDROOT
BRANCH   9   8
ATOM      4  C   UNL     1      44.790   5.080  11.064  0.00  0.00    +0.000 A 
ATOM      5  C   UNL     1      45.922   5.726  10.578  0.00  0.00    +0.000 A 
ATOM      6  C   UNL     1      46.620   6.599  11.420  0.00  0.00    +0.000 A 
ATOM      7  C   UNL     1      46.199   6.775  12.732  0.00  0.00    +0.000 A 
ATOM      8  N   UNL     1      46.806   7.637  13.637  0.00  0.00    +0.000 N 
ATOM     24  N   UNL     1      45.100   6.148  13.206  0.00  0.00    +0.000 NA
ATOM     25  C   UNL     1      44.408   5.338  12.367  0.00  0.00    +0.000 A 
ATOM     28  H   UNL     1      46.420   7.461  14.559  0.00  0.00    +0.000 HD
BRANCH   4   2
ATOM      1  N   UNL     1      43.993   4.347   8.892  0.00  0.00    +0.000 N 
ATOM      2  C   UNL     1      43.965   4.165  10.244  0.00  0.00    +0.000 C 
ATOM      3  O   UNL     1      43.310   3.265  10.755  0.00  0.00    +0.000 OA
ATOM     26  H   UNL     1      43.516   3.643   8.340  0.00  0.00    +0.000 HD
ATOM     27  H   UNL     1      44.715   4.883   8.434  0.00  0.00    +0.000 HD
ENDBRANCH   4   2
ENDBRANCH   9   8
BRANCH   9  10
ATOM     10  C   UNL     1      49.185   7.654  14.402  0.00  0.00    +0.000 A 
ATOM     11  C   UNL     1      50.536   8.010  14.283  0.00  0.00    +0.000 A 
ATOM     12  C   UNL     1      51.485   7.531  15.183  0.00  0.00    +0.000 A 
ATOM     13  C   UNL     1      51.090   6.703  16.235  0.00  0.00    +0.000 A 
ATOM     14  C   UNL     1      49.757   6.301  16.397  0.00  0.00    +0.000 A 
ATOM     21  C   UNL     1      48.840   6.764  15.443  0.00  0.00    +0.000 A 
BRANCH  14  15
ATOM     15  N   UNL     1      49.391   5.492  17.461  0.00  0.00    +0.000 N 
ATOM     16  C   UNL     1      50.012   4.183  17.707  0.00  0.00    +0.000 C 
ATOM     17  C   UNL     1      49.015   3.023  17.477  0.00  0.00    +0.000 C 
ATOM     18  N   UNL     1      47.755   3.174  18.230  0.00  0.00    +0.000 NA
ATOM     19  C   UNL     1      47.144   4.468  17.850  0.00  0.00    +0.000 C 
ATOM     20  C   UNL     1      48.063   5.692  18.074  0.00  0.00    +0.000 C 
ATOM     29  H   UNL     1      47.988   3.220  19.223  0.00  0.00    +0.000 HD
ENDBRANCH  14  15
ENDBRANCH   9  10
TORSDOF 4
ENDMDL
MODEL 4
REMARK VINA RESULT:    -6.412      4.664      8.679
REMARK INTER + INTRA:          -8.780
REMARK INTER:                  -7.888
REMARK INTRA:                  -0.892
REMARK UNBOUND:                -0.869
REMARK  Name = 
REMARK  4 active torsions:
REMARK  status: ('A' for Active; 'I' for Inactive)
REMARK    1  A    between atoms: C_2  and  C_4
REMARK    2  A    between atoms: N_8  and  C_9
REMARK    3  A    between atoms: C_9  and  C_10
REMARK    4  A    between atoms: C_14  and  N_15
REMARK                            x       y       z     vdW  Elec       q    Type
REMARK                         _______ _______ _______ _____ _____    ______ ____
ROOT
ATOM      9  C   UNL     1      49.235   7.740  13.999  0.00  0.00    +0.000 C 
ATOM     22  C   UNL     1      50.298   8.181  13.000  0.00  0.00    +0.000 C 
ATOM     23  C   UNL     1      49.885   9.105  14.099  0.00  0.00    +0.000 C 
ENDROOT
BRANCH   9   8
ATOM      4  C   UNL     1      48.635   5.692  18.770  0.00  0.00    +0.000 A 
ATOM      5  C   UNL     1      48.275   6.948  18.292  0.00  0.00    +0.000 A 
ATOM      6  C   UNL     1      48.606   7.295  16.977  0.00  0.00    +0.000 A 
ATOM      7  C   UNL     1      49.249   6.371  16.163  0.00  0.00    +0.000 A 
ATOM      8  N   UNL     1      49.643   6.627  14.855  0.00  0.00    +0.000 N 
ATOM     24  N   UNL     1      49.599   5.150  16.625  0.00  0.00    +0.000 NA
ATOM     25  C   UNL     1      49.310   4.843  17.914  0.00  0.00    +0.000 A 
ATOM     28  H   UNL     1      49.935   5.753  14.429  0.00  0.00    +0.000 HD
BRANCH   4   2
ATOM      1  N   UNL     1      48.625   3.937  20.447  0.00  0.00    +0.000 N 
ATOM      2  C   UNL     1      48.361   5.243  20.154  0.00  0.00    +0.000 C 
ATOM      3  O   UNL     1      47.946   6.019  21.006  0.00  0.00    +0.000 OA
ATOM     26  H   UNL     1      48.542   3.676  21.423  0.00  0.00    +0.000 HD
ATOM     27  H   UNL     1      49.211   3.360  19.862  0.00  0.00    +0.000 HD
ENDBRANCH   4   2
ENDBRANCH   9   8
BRANCH   9  10
ATOM     10  C   UNL     1      47.783   7.651  13.537  0.00  0.00    +0.000 A 
ATOM     11  C   UNL     1      46.963   8.786  13.469  0.00  0.00    +0.000 A 
ATOM     12  C   UNL     1      45.686   8.716  12.919  0.00  0.00    +0.000 A 
ATOM     13  C   UNL     1      45.216   7.507  12.404  0.00  0.00    +0.000 A 
ATOM     14  C   UNL     1      45.984   6.335  12.456  0.00  0.00    +0.000 A 
ATOM     21  C   UNL     1      47.244   6.435  13.061  0.00  0.00    +0.000 A 
BRANCH  14  15
ATOM     15  N   UNL     1      45.498   5.153  11.920  0.00  0.00    +0.000 N 
ATOM     16  C   UNL     1      44.902   5.081  10.578  0.00  0.00    +0.000 C 
ATOM     17  C   UNL     1      43.386   4.781  10.639  0.00  0.00    +0.000 C 
ATOM     18  N   UNL     1      43.055   3.588  11.443  0.00  0.00    +0.000 NA
ATOM     19  C   UNL     1      43.602   3.785  12.805  0.00  0.00    +0.000 C 
ATOM     20  C   UNL     1      45.124   4.062  12.842  0.00  0.00    +0.000 C 
ATOM     29  H   UNL     1      43.535   2.789  11.028  0.00  0.00    +0.000 HD
ENDBRANCH  14  15
ENDBRANCH   9  10
TORSDOF 4
ENDMDL
MODEL 5
REMARK VINA RESULT:    -6.404      3.997      6.556
REMARK INTER + INTRA:          -8.771
REMARK INTER:                  -7.878
REMARK INTRA:                  -0.893
REMARK UNBOUND:                -0.869
REMARK  Name = 
REMARK  4 active torsions:
REMARK  status: ('A' for Active; 'I' for Inactive)
REMARK    1  A    between atoms: C_2  and  C_4
REMARK    2  A    between atoms: N_8  and  C_9
REMARK    3  A    between atoms: C_9  and  C_10
REMARK    4  A    between atoms: C_14  and  N_15
REMARK                            x       y       z     vdW  Elec       q    Type
REMARK                         _______ _______ _______ _____ _____    ______ ____
ROOT
ATOM      9  C   UNL     1      48.520   8.081  13.557  0.00  0.00    +0.000 C 
ATOM     22  C   UNL     1      49.399   9.105  12.851  0.00  0.00    +0.000 C 
ATOM     23  C   UNL     1      49.706   7.650  12.719  0.00  0.00    +0.000 C 
ENDROOT
BRANCH   9   8
ATOM      4  C   UNL     1      44.686   4.763  12.288  0.00  0.00    +0.000 A 
ATOM      5  C   UNL     1      46.028   4.509  12.548  0.00  0.00    +0.000 A 
ATOM      6  C   UNL     1      46.886   5.585  12.803  0.00  0.00    +0.000 A 
ATOM      7  C   UNL     1      46.379   6.878  12.831  0.00  0.00    +0.000 A 
ATOM      8  N   UNL     1      47.151   8.014  13.048  0.00  0.00    +0.000 N 
ATOM     24  N   UNL     1      45.075   7.127  12.578  0.00  0.00    +0.000 NA
ATOM     25  C   UNL     1      44.264   6.079  12.291  0.00  0.00    +0.000 A 
ATOM     28  H   UNL     1      46.530   8.805  13.184  0.00  0.00    +0.000 HD
BRANCH   4   2
ATOM      1  N   UNL     1      43.948   2.460  12.491  0.00  0.00    +0.000 N 
ATOM      2  C   UNL     1      43.706   3.699  11.974  0.00  0.00    +0.000 C 
ATOM      3  O   UNL     1      42.706   3.929  11.305  0.00  0.00    +0.000 OA
ATOM     26  H   UNL     1      43.212   1.775  12.364  0.00  0.00    +0.000 HD
ATOM     27  H   UNL     1      44.595   2.308  13.251  0.00  0.00    +0.000 HD
ENDBRANCH   4   2
ENDBRANCH   9   8
BRANCH   9  10
ATOM     10  C   UNL     1      48.611   7.956  15.076  0.00  0.00    +0.000 A 
ATOM     11  C   UNL     1      48.168   8.979  15.925  0.00  0.00    +0.000 A 
ATOM     12  C   UNL     1      48.132   8.799  17.305  0.00  0.00    +0.000 A 
ATOM     13  C   UNL     1      48.517   7.577  17.858  0.00  0.00    +0.000 A 
ATOM     14  C   UNL     1      48.983   6.522  17.061  0.00  0.00    +0.000 A 
ATOM     21  C   UNL     1      49.052   6.758  15.681  0.00  0.00    +0.000 A 
BRANCH  14  15
ATOM     15  N   UNL     1      49.343   5.313  17.636  0.00  0.00    +0.000 N 
ATOM     16  C   UNL     1      48.894   4.020  17.101  0.00  0.00    +0.000 C 
ATOM     17  C   UNL     1      47.913   3.310  18.062  0.00  0.00    +0.000 C 
ATOM     18  N   UNL     1      48.432   3.176  19.438  0.00  0.00    +0.000 NA
ATOM     19  C   UNL     1      48.764   4.529  19.938  0.00  0.00    +0.000 C 
ATOM     20  C   UNL     1      49.767   5.304  19.050  0.00  0.00    +0.000 C 
ATOM     29  H   UNL     1      49.299   2.639  19.392  0.00  0.00    +0.000 HD
ENDBRANCH  14  15
ENDBRANCH   9  10
TORSDOF 4
ENDMDL
MODEL 6
REMARK VINA RESULT:    -6.378      4.410      8.229
REMARK INTER + INTRA:          -8.738
REMARK INTER:                  -9.152
REMARK INTRA:                   0.414
REMARK UNBOUND:                -0.869
REMARK  Name = 
REMARK  4 active torsions:
REMARK  status: ('A' for Active; 'I' for Inactive)
REMARK    1  A    between atoms: C_2  and  C_4
REMARK    2  A    between atoms: N_8  and  C_9
REMARK    3  A    between atoms: C_9  and  C_10
REMARK    4  A    between atoms: C_14  and  N_15
REMARK                            x       y       z     vdW  Elec       q    Type
REMARK                         _______ _______ _______ _____ _____    ______ ____
ROOT
ATOM      9  C   UNL     1      46.483   5.234  13.488  0.00  0.00    +0.000 C 
ATOM     22  C   UNL     1      47.716   5.751  12.758  0.00  0.00    +0.000 C 
ATOM     23  C   UNL     1      46.930   6.675  13.629  0.00  0.00    +0.000 C 
ENDROOT
BRANCH   9   8
ATOM      4  C   UNL     1      48.441   4.612  18.294  0.00  0.00    +0.000 A 
ATOM      5  C   UNL     1      48.506   5.712  17.445  0.00  0.00    +0.000 A 
ATOM      6  C   UNL     1      47.956   5.614  16.162  0.00  0.00    +0.000 A 
ATOM      7  C   UNL     1      47.322   4.440  15.773  0.00  0.00    +0.000 A 
ATOM      8  N   UNL     1      46.770   4.233  14.515  0.00  0.00    +0.000 N 
ATOM     24  N   UNL     1      47.258   3.370  16.596  0.00  0.00    +0.000 NA
ATOM     25  C   UNL     1      47.833   3.465  17.820  0.00  0.00    +0.000 A 
ATOM     28  H   UNL     1      46.230   3.374  14.537  0.00  0.00    +0.000 HD
BRANCH   4   2
ATOM      1  N   UNL     1      48.602   3.622  20.504  0.00  0.00    +0.000 N 
ATOM      2  C   UNL     1      49.022   4.604  19.656  0.00  0.00    +0.000 C 
ATOM      3  O   UNL     1      49.865   5.424  19.994  0.00  0.00    +0.000 OA
ATOM     26  H   UNL     1      49.093   3.561  21.389  0.00  0.00    +0.000 HD
ATOM     27  H   UNL     1      48.132   2.790  20.178  0.00  0.00    +0.000 HD
ENDBRANCH   4   2
ENDBRANCH   9   8
BRANCH   9  10
ATOM     10  C   UNL     1      45.222   4.934  12.681  0.00  0.00    +0.000 A 
ATOM     11  C   UNL     1      43.969   5.432  13.063  0.00  0.00    +0.000 A 
ATOM     12  C   UNL     1      42.853   5.265  12.248  0.00  0.00    +0.000 A 
ATOM     13  C   UNL     1      42.980   4.614  11.020  0.00  0.00    +0.000 A 
ATOM     14  C   UNL     1      44.203   4.082  10.590  0.00  0.00    +0.000 A 
ATOM     21  C   UNL     1      45.293   4.227  11.460  0.00  0.00    +0.000 A 
BRANCH  14  15
ATOM     15  N   UNL     1      44.303   3.456   9.357  0.00  0.00    +0.000 N 
ATOM     16  C   UNL     1      44.462   2.001   9.222  0.00  0.00    +0.000 C 
ATOM     17  C   UNL     1      45.856   1.625   8.668  0.00  0.00    +0.000 C 
ATOM     18  N   UNL     1      46.198   2.326   7.415  0.00  0.00    +0.000 NA
ATOM     19  C   UNL     1      46.113   3.782   7.664  0.00  0.00    +0.000 C 
ATOM     20  C   UNL     1      44.738   4.255   8.195  0.00  0.00    +0.000 C 
ATOM     29  H   UNL     1      45.489   2.087   6.720  0.00  0.00    +0.000 HD
ENDBRANCH  14  15
ENDBRANCH   9  10
TORSDOF 4
ENDMDL
MODEL 7
REMARK VINA RESULT:    -6.368      5.565      8.480
REMARK INTER + INTRA:          -8.726
REMARK INTER:                  -8.192
REMARK INTRA:                  -0.534
REMARK UNBOUND:                -0.869
REMARK  Name = 
REMARK  4 active torsions:
REMARK  status: ('A' for Active; 'I' for Inactive)
REMARK    1  A    between atoms: C_2  and  C_4
REMARK    2  A    between atoms: N_8  and  C_9
REMARK    3  A    between atoms: C_9  and  C_10
REMARK    4  A    between atoms: C_14  and  N_15
REMARK                            x       y       z     vdW  Elec       q    Type
REMARK                         _______ _______ _______ _____ _____    ______ ____
ROOT
ATOM      9  C   UNL     1      48.233   4.813  17.121  0.00  0.00    +0.000 C 
ATOM     22  C   UNL     1      47.154   5.060  18.168  0.00  0.00    +0.000 C 
ATOM     23  C   UNL     1      47.196   3.755  17.442  0.00  0.00    +0.000 C 
ENDROOT
BRANCH   9   8
ATOM      4  C   UNL     1      52.371   1.673  17.700  0.00  0.00    +0.000 A 
ATOM      5  C   UNL     1      51.069   1.363  17.320  0.00  0.00    +0.000 A 
ATOM      6  C   UNL     1      50.107   2.380  17.302  0.00  0.00    +0.000 A 
ATOM      7  C   UNL     1      50.473   3.680  17.623  0.00  0.00    +0.000 A 
ATOM      8  N   UNL     1      49.590   4.753  17.662  0.00  0.00    +0.000 N 
ATOM     24  N   UNL     1      51.738   3.983  17.993  0.00  0.00    +0.000 NA
ATOM     25  C   UNL     1      52.649   2.981  18.047  0.00  0.00    +0.000 A 
ATOM     28  H   UNL     1      50.126   5.609  17.758  0.00  0.00    +0.000 HD
BRANCH   4   2
ATOM      1  N   UNL     1      53.154  -0.515  18.403  0.00  0.00    +0.000 N 
ATOM      2  C   UNL     1      53.451   0.664  17.783  0.00  0.00    +0.000 C 
ATOM      3  O   UNL     1      54.553   0.867  17.290  0.00  0.00    +0.000 OA
ATOM     26  H   UNL     1      53.865  -1.235  18.350  0.00  0.00    +0.000 HD
ATOM     27  H   UNL     1      52.204  -0.814  18.569  0.00  0.00    +0.000 HD
ENDBRANCH   4   2
ENDBRANCH   9   8
BRANCH   9  10
ATOM     10  C   UNL     1      48.143   5.546  15.784  0.00  0.00    +0.000 A 
ATOM     11  C   UNL     1      49.039   6.570  15.445  0.00  0.00    +0.000 A 
ATOM     12  C   UNL     1      49.031   7.136  14.174  0.00  0.00    +0.000 A 
ATOM     13  C   UNL     1      48.138   6.668  13.209  0.00  0.00    +0.000 A 
ATOM     14  C   UNL     1      47.208   5.658  13.493  0.00  0.00    +0.000 A 
ATOM     21  C   UNL     1      47.213   5.146  14.798  0.00  0.00    +0.000 A 
BRANCH  14  15
ATOM     15  N   UNL     1      46.345   5.201  12.510  0.00  0.00    +0.000 N 
ATOM     16  C   UNL     1      45.965   6.021  11.350  0.00  0.00    +0.000 C 
ATOM     17  C   UNL     1      44.473   6.425  11.397  0.00  0.00    +0.000 C 
ATOM     18  N   UNL     1      43.560   5.279  11.572  0.00  0.00    +0.000 NA
ATOM     19  C   UNL     1      43.945   4.568  12.812  0.00  0.00    +0.000 C 
ATOM     20  C   UNL     1      45.419   4.099  12.840  0.00  0.00    +0.000 C 
ATOM     29  H   UNL     1      43.706   4.641  10.789  0.00  0.00    +0.000 HD
ENDBRANCH  14  15
ENDBRANCH   9  10
TORSDOF 4
ENDMDL
MODEL 8
REMARK VINA RESULT:    -6.335      3.485      7.606
REMARK INTER + INTRA:          -8.685
REMARK INTER:                  -8.639
REMARK INTRA:                  -0.046
REMARK UNBOUND:                -0.869
REMARK  Name = 
REMARK  4 active torsions:
REMARK  status: ('A' for Active; 'I' for Inactive)
REMARK    1  A    between atoms: C_2  and  C_4
REMARK    2  A    between atoms: N_8  and  C_9
REMARK    3  A    between atoms: C_9  and  C_10
REMARK    4  A    between atoms: C_14  and  N_15
REMARK                            x       y       z     vdW  Elec       q    Type
REMARK                         _______ _______ _______ _____ _____    ______ ____
ROOT
ATOM      9  C   UNL     1      48.373   7.788  12.747  0.00  0.00    +0.000 C 
ATOM     22  C   UNL     1      49.317   6.984  11.862  0.00  0.00    +0.000 C 
ATOM     23  C   UNL     1      49.386   8.476  11.854  0.00  0.00    +0.000 C 
ENDROOT
BRANCH   9   8
ATOM      4  C   UNL     1      47.785   4.418  16.699  0.00  0.00    +0.000 A 
ATOM      5  C   UNL     1      47.240   4.389  15.419  0.00  0.00    +0.000 A 
ATOM      6  C   UNL     1      47.493   5.454  14.548  0.00  0.00    +0.000 A 
ATOM      7  C   UNL     1      48.311   6.499  14.958  0.00  0.00    +0.000 A 
ATOM      8  N   UNL     1      48.601   7.614  14.181  0.00  0.00    +0.000 N 
ATOM     24  N   UNL     1      48.842   6.530  16.201  0.00  0.00    +0.000 NA
ATOM     25  C   UNL     1      48.554   5.512  17.049  0.00  0.00    +0.000 A 
ATOM     28  H   UNL     1      49.341   8.140  14.634  0.00  0.00    +0.000 HD
BRANCH   4   2
ATOM      1  N   UNL     1      48.429   3.279  18.743  0.00  0.00    +0.000 N 
ATOM      2  C   UNL     1      47.549   3.358  17.704  0.00  0.00    +0.000 C 
ATOM      3  O   UNL     1      46.587   2.604  17.622  0.00  0.00    +0.000 OA
ATOM     26  H   UNL     1      48.189   2.626  19.479  0.00  0.00    +0.000 HD
ATOM     27  H   UNL     1      49.052   4.037  18.981  0.00  0.00    +0.000 HD
ENDBRANCH   4   2
ENDBRANCH   9   8
BRANCH   9  10
ATOM     10  C   UNL     1      46.895   7.861  12.371  0.00  0.00    +0.000 A 
ATOM     11  C   UNL     1      46.220   9.086  12.275  0.00  0.00    +0.000 A 
ATOM     12  C   UNL     1      44.913   9.148  11.801  0.00  0.00    +0.000 A 
ATOM     13  C   UNL     1      44.265   7.982  11.390  0.00  0.00    +0.000 A 
ATOM     14  C   UNL     1      44.883   6.726  11.476  0.00  0.00    +0.000 A 
ATOM     21  C   UNL     1      46.181   6.698  12.005  0.00  0.00    +0.000 A 
BRANCH  14  15
ATOM     15  N   UNL     1      44.222   5.587  11.045  0.00  0.00    +0.000 N 
ATOM     16  C   UNL     1      43.054   5.038  11.749  0.00  0.00    +0.000 C 
ATOM     17  C   UNL     1      43.370   3.676  12.409  0.00  0.00    +0.000 C 
ATOM     18  N   UNL     1      43.951   2.692  11.475  0.00  0.00    +0.000 NA
ATOM     19  C   UNL     1      45.175   3.281  10.887  0.00  0.00    +0.000 C 
ATOM     20  C   UNL     1      44.946   4.637  10.178  0.00  0.00    +0.000 C 
ATOM     29  H   UNL     1      43.282   2.547  10.718  0.00  0.00    +0.000 HD
ENDBRANCH  14  15
ENDBRANCH   9  10
TORSDOF 4
ENDMDL
MODEL 9
REMARK VINA RESULT:    -5.874      4.079      6.935
REMARK INTER + INTRA:          -8.116
REMARK INTER:                  -7.233
REMARK INTRA:                  -0.883
REMARK UNBOUND:                -0.869
REMARK  Name = 
REMARK  4 active torsions:
REMARK  status: ('A' for Active; 'I' for Inactive)
REMARK    1  A    between atoms: C_2  and  C_4
REMARK    2  A    between atoms: N_8  and  C_9
REMARK    3  A    between atoms: C_9  and  C_10
REMARK    4  A    between atoms: C_14  and  N_15
REMARK                            x       y       z     vdW  Elec       q    Type
REMARK                         _______ _______ _______ _____ _____    ______ ____
ROOT
ATOM      9  C   UNL     1      48.787   9.174  15.212  0.00  0.00    +0.000 C 
ATOM     22  C   UNL     1      49.662  10.415  15.084  0.00  0.00    +0.000 C 
ATOM     23  C   UNL     1      50.193   9.088  14.652  0.00  0.00    +0.000 C 
ENDROOT
BRANCH   9   8
ATOM      4  C   UNL     1      45.865   6.148  12.110  0.00  0.00    +0.000 A 
ATOM      5  C   UNL     1      47.122   5.906  12.657  0.00  0.00    +0.000 A 
ATOM      6  C   UNL     1      47.739   6.911  13.411  0.00  0.00    +0.000 A 
ATOM      7  C   UNL     1      47.074   8.110  13.634  0.00  0.00    +0.000 A 
ATOM      8  N   UNL     1      47.611   9.178  14.345  0.00  0.00    +0.000 N 
ATOM     24  N   UNL     1      45.854   8.347  13.104  0.00  0.00    +0.000 NA
ATOM     25  C   UNL     1      45.286   7.381  12.340  0.00  0.00    +0.000 A 
ATOM     28  H   UNL     1      46.876   9.859  14.506  0.00  0.00    +0.000 HD
BRANCH   4   2
ATOM      1  N   UNL     1      44.964   5.483   9.956  0.00  0.00    +0.000 N 
ATOM      2  C   UNL     1      45.145   5.164  11.270  0.00  0.00    +0.000 C 
ATOM      3  O   UNL     1      44.756   4.098  11.729  0.00  0.00    +0.000 OA
ATOM     26  H   UNL     1      44.574   4.753   9.372  0.00  0.00    +0.000 HD
ATOM     27  H   UNL     1      45.500   6.206   9.497  0.00  0.00    +0.000 HD
ENDBRANCH   4   2
ENDBRANCH   9   8
BRANCH   9  10
ATOM     10  C   UNL     1      48.517   8.605  16.603  0.00  0.00    +0.000 A 
ATOM     11  C   UNL     1      47.909   9.374  17.606  0.00  0.00    +0.000 A 
ATOM     12  C   UNL     1      47.546   8.805  18.823  0.00  0.00    +0.000 A 
ATOM     13  C   UNL     1      47.764   7.446  19.048  0.00  0.00    +0.000 A 
ATOM     14  C   UNL     1      48.380   6.629  18.090  0.00  0.00    +0.000 A 
ATOM     21  C   UNL     1      48.777   7.248  16.896  0.00  0.00    +0.000 A 
BRANCH  14  15
ATOM     15  N   UNL     1      48.568   5.278  18.335  0.00  0.00    +0.000 N 
ATOM     16  C   UNL     1      49.888   4.707  18.640  0.00  0.00    +0.000 C 
ATOM     17  C   UNL     1      50.394   3.789  17.503  0.00  0.00    +0.000 C 
ATOM     18  N   UNL     1      49.426   2.741  17.121  0.00  0.00    +0.000 NA
ATOM     19  C   UNL     1      48.161   3.403  16.731  0.00  0.00    +0.000 C 
ATOM     20  C   UNL     1      47.565   4.323  17.824  0.00  0.00    +0.000 C 
ATOM     29  H   UNL     1      49.239   2.173  17.948  0.00  0.00    +0.000 HD
ENDBRANCH  14  15
ENDBRANCH   9  10
TORSDOF 4
ENDMDL
