MODEL 1
REMARK VINA RESULT:    -8.128      0.000      0.000
REMARK INTER + INTRA:         -10.479
REMARK INTER:                 -10.267
REMARK INTRA:                  -0.213
REMARK UNBOUND:                -0.213
REMARK  Name = 
REMARK  5 active torsions:
REMARK  status: ('A' for Active; 'I' for Inactive)
REMARK    1  A    between atoms: N_1  and  C_2
REMARK    2  A    between atoms: C_2  and  C_3
REMARK    3  A    between atoms: C_6  and  C_7
REMARK    4  A    between atoms: C_7  and  N_8
REMARK    5  A    between atoms: C_12  and  C_13
REMARK                            x       y       z     vdW  Elec       q    Type
REMARK                         _______ _______ _______ _____ _____    ______ ____
ROOT
ATOM      8  N   UNL     1      44.554   5.514  10.399  0.00  0.00    +0.000 N 
ATOM      9  C   UNL     1      45.246   5.201  11.578  0.00  0.00    +0.000 A 
ATOM     10  C   UNL     1      45.912   6.220  12.254  0.00  0.00    +0.000 A 
ATOM     11  C   UNL     1      46.600   5.926  13.434  0.00  0.00    +0.000 A 
ATOM     12  C   UNL     1      46.609   4.620  13.922  0.00  0.00    +0.000 A 
ATOM     16  C   UNL     1      45.933   3.668  13.178  0.00  0.00    +0.000 A 
ATOM     17  N   UNL     1      45.269   3.930  12.026  0.00  0.00    +0.000 NA
ATOM     22  H   UNL     1      43.870   6.238  10.598  0.00  0.00    +0.000 HD
ENDROOT
BRANCH  12  13
ATOM     13  C   UNL     1      47.319   4.313  15.185  0.00  0.00    +0.000 C 
ATOM     14  N   UNL     1      47.654   5.338  16.023  0.00  0.00    +0.000 N 
ATOM     15  O   UNL     1      47.614   3.159  15.481  0.00  0.00    +0.000 OA
ATOM     23  H   UNL     1      47.459   6.317  15.882  0.00  0.00    +0.000 HD
ATOM     24  H   UNL     1      48.138   5.082  16.872  0.00  0.00    +0.000 HD
ENDBRANCH  12  13
BRANCH   8   7
ATOM      7  C   UNL     1      43.930   4.355   9.766  0.00  0.00    +0.000 C 
BRANCH   7   6
ATOM      3  C   UNL     1      46.834   2.173   7.389  0.00  0.00    +0.000 A 
ATOM      4  C   UNL     1      46.714   3.564   7.259  0.00  0.00    +0.000 A 
ATOM      5  C   UNL     1      45.776   4.274   8.011  0.00  0.00    +0.000 A 
ATOM      6  C   UNL     1      44.911   3.607   8.888  0.00  0.00    +0.000 A 
ATOM     18  C   UNL     1      45.028   2.213   9.013  0.00  0.00    +0.000 A 
ATOM     19  C   UNL     1      45.975   1.504   8.270  0.00  0.00    +0.000 A 
BRANCH   3   2
ATOM      2  C   UNL     1      47.867   1.420   6.589  0.00  0.00    +0.000 C 
BRANCH   2   1
ATOM      1  N   UNL     1      48.422   2.241   5.517  0.00  0.00    +0.000 NA
ATOM     20  H   UNL     1      47.866   3.087   5.421  0.00  0.00    +0.000 HD
ATOM     21  H   UNL     1      48.335   1.733   4.638  0.00  0.00    +0.000 HD
ENDBRANCH   2   1
ENDBRANCH   3   2
ENDBRANCH   7   6
ENDBRANCH   8   7
TORSDOF 5
ENDMDL
MODEL 2
REMARK VINA RESULT:    -7.834      2.201      2.723
REMARK INTER + INTRA:         -10.108
REMARK INTER:                  -9.917
REMARK INTRA:                  -0.191
REMARK UNBOUND:                -0.213
REMARK  Name = 
REMARK  5 active torsions:
REMARK  status: ('A' for Active; 'I' for Inactive)
REMARK    1  A    between atoms: N_1  and  C_2
REMARK    2  A    between atoms: C_2  and  C_3
REMARK    3  A    between atoms: C_6  and  C_7
REMARK    4  A    between atoms: C_7  and  N_8
REMARK    5  A    between atoms: C_12  and  C_13
REMARK                            x       y       z     vdW  Elec       q    Type
REMARK                         _______ _______ _______ _____ _____    ______ ____
ROOT
ATOM      8  N   UNL     1      45.060   3.057  11.516  0.00  0.00    +0.000 N 
ATOM      9  C   UNL     1      45.230   4.402  11.875  0.00  0.00    +0.000 A 
ATOM     10  C   UNL     1      46.024   4.705  12.978  0.00  0.00    +0.000 A 
ATOM     11  C   UNL     1      46.210   6.041  13.344  0.00  0.00    +0.000 A 
ATOM     12  C   UNL     1      45.600   7.051  12.602  0.00  0.00    +0.000 A 
ATOM     16  C   UNL     1      44.816   6.658  11.532  0.00  0.00    +0.000 A 
ATOM     17  N   UNL     1      44.615   5.369  11.166  0.00  0.00    +0.000 NA
ATOM     22  H   UNL     1      45.972   2.640  11.351  0.00  0.00    +0.000 HD
ENDROOT
BRANCH  12  13
ATOM     13  C   UNL     1      45.815   8.468  12.978  0.00  0.00    +0.000 C 
ATOM     14  N   UNL     1      46.649   8.759  14.021  0.00  0.00    +0.000 N 
ATOM     15  O   UNL     1      45.252   9.376  12.374  0.00  0.00    +0.000 OA
ATOM     23  H   UNL     1      47.162   8.097  14.581  0.00  0.00    +0.000 HD
ATOM     24  H   UNL     1      46.764   9.737  14.242  0.00  0.00    +0.000 HD
ENDBRANCH  12  13
BRANCH   8   7
ATOM      7  C   UNL     1      44.176   2.869  10.368  0.00  0.00    +0.000 C 
BRANCH   7   6
ATOM      3  C   UNL     1      46.560   2.620   6.749  0.00  0.00    +0.000 A 
ATOM      4  C   UNL     1      45.889   3.806   7.074  0.00  0.00    +0.000 A 
ATOM      5  C   UNL     1      45.111   3.894   8.230  0.00  0.00    +0.000 A 
ATOM      6  C   UNL     1      44.957   2.786   9.074  0.00  0.00    +0.000 A 
ATOM     18  C   UNL     1      45.625   1.596   8.744  0.00  0.00    +0.000 A 
ATOM     19  C   UNL     1      46.414   1.512   7.594  0.00  0.00    +0.000 A 
BRANCH   3   2
ATOM      2  C   UNL     1      47.417   2.544   5.510  0.00  0.00    +0.000 C 
BRANCH   2   1
ATOM      1  N   UNL     1      48.653   1.807   5.755  0.00  0.00    +0.000 NA
ATOM     20  H   UNL     1      49.096   1.591   4.866  0.00  0.00    +0.000 HD
ATOM     21  H   UNL     1      48.421   0.915   6.191  0.00  0.00    +0.000 HD
ENDBRANCH   2   1
ENDBRANCH   3   2
ENDBRANCH   7   6
ENDBRANCH   8   7
TORSDOF 5
ENDMDL
MODEL 3
REMARK VINA RESULT:    -7.809      2.191      2.902
REMARK INTER + INTRA:         -10.076
REMARK INTER:                  -9.929
REMARK INTRA:                  -0.147
REMARK UNBOUND:                -0.213
REMARK  Name = 
REMARK  5 active torsions:
REMARK  status: ('A' for Active; 'I' for Inactive)
REMARK    1  A    between atoms: N_1  and  C_2
REMARK    2  A    between atoms: C_2  and  C_3
REMARK    3  A    between atoms: C_6  and  C_7
REMARK    4  A    between atoms: C_7  and  N_8
REMARK    5  A    between atoms: C_12  and  C_13
REMARK                            x       y       z     vdW  Elec       q    Type
REMARK                         _______ _______ _______ _____ _____    ______ ____
ROOT
ATOM      8  N   UNL     1      44.988   3.087  11.565  0.00  0.00    +0.000 N 
ATOM      9  C   UNL     1      45.160   4.428  11.938  0.00  0.00    +0.000 A 
ATOM     10  C   UNL     1      45.865   4.712  13.105  0.00  0.00    +0.000 A 
ATOM     11  C   UNL     1      46.052   6.043  13.487  0.00  0.00    +0.000 A 
ATOM     12  C   UNL     1      45.536   7.068  12.696  0.00  0.00    +0.000 A 
ATOM     16  C   UNL     1      44.836   6.693  11.563  0.00  0.00    +0.000 A 
ATOM     17  N   UNL     1      44.635   5.409  11.180  0.00  0.00    +0.000 NA
ATOM     22  H   UNL     1      45.899   2.646  11.479  0.00  0.00    +0.000 HD
ENDROOT
BRANCH  12  13
ATOM     13  C   UNL     1      45.753   8.479  13.090  0.00  0.00    +0.000 C 
ATOM     14  N   UNL     1      46.690   8.764  14.044  0.00  0.00    +0.000 N 
ATOM     15  O   UNL     1      45.104   9.386  12.580  0.00  0.00    +0.000 OA
ATOM     23  H   UNL     1      47.279   8.102  14.523  0.00  0.00    +0.000 HD
ATOM     24  H   UNL     1      46.804   9.740  14.281  0.00  0.00    +0.000 HD
ENDBRANCH  12  13
BRANCH   8   7
ATOM      7  C   UNL     1      44.201   2.920  10.345  0.00  0.00    +0.000 C 
BRANCH   7   6
ATOM      3  C   UNL     1      46.607   2.659   6.741  0.00  0.00    +0.000 A 
ATOM      4  C   UNL     1      46.437   1.536   7.562  0.00  0.00    +0.000 A 
ATOM      5  C   UNL     1      45.674   1.611   8.729  0.00  0.00    +0.000 A 
ATOM      6  C   UNL     1      45.089   2.821   9.122  0.00  0.00    +0.000 A 
ATOM     18  C   UNL     1      45.263   3.948   8.303  0.00  0.00    +0.000 A 
ATOM     19  C   UNL     1      46.017   3.869   7.128  0.00  0.00    +0.000 A 
BRANCH   3   2
ATOM      2  C   UNL     1      47.414   2.560   5.471  0.00  0.00    +0.000 C 
BRANCH   2   1
ATOM      1  N   UNL     1      48.624   1.768   5.663  0.00  0.00    +0.000 NA
ATOM     20  H   UNL     1      48.369   0.792   5.791  0.00  0.00    +0.000 HD
ATOM     21  H   UNL     1      49.077   2.067   6.526  0.00  0.00    +0.000 HD
ENDBRANCH   2   1
ENDBRANCH   3   2
ENDBRANCH   7   6
ENDBRANCH   8   7
TORSDOF 5
ENDMDL
MODEL 4
REMARK VINA RESULT:    -7.494      2.574      6.675
REMARK INTER + INTRA:          -9.678
REMARK INTER:                  -9.449
REMARK INTRA:                  -0.228
REMARK UNBOUND:                -0.213
REMARK  Name = 
REMARK  5 active torsions:
REMARK  status: ('A' for Active; 'I' for Inactive)
REMARK    1  A    between atoms: N_1  and  C_2
REMARK    2  A    between atoms: C_2  and  C_3
REMARK    3  A    between atoms: C_6  and  C_7
REMARK    4  A    between atoms: C_7  and  N_8
REMARK    5  A    between atoms: C_12  and  C_13
REMARK                            x       y       z     vdW  Elec       q    Type
REMARK                         _______ _______ _______ _____ _____    ______ ____
ROOT
ATOM      8  N   UNL     1      43.991   3.310  10.483  0.00  0.00    +0.000 N 
ATOM      9  C   UNL     1      44.876   3.083   9.419  0.00  0.00    +0.000 A 
ATOM     10  C   UNL     1      45.208   1.770   9.094  0.00  0.00    +0.000 A 
ATOM     11  C   UNL     1      46.082   1.526   8.031  0.00  0.00    +0.000 A 
ATOM     12  C   UNL     1      46.607   2.597   7.309  0.00  0.00    +0.000 A 
ATOM     16  C   UNL     1      46.235   3.867   7.711  0.00  0.00    +0.000 A 
ATOM     17  N   UNL     1      45.397   4.126   8.744  0.00  0.00    +0.000 NA
ATOM     22  H   UNL     1      43.121   2.817  10.304  0.00  0.00    +0.000 HD
ENDROOT
BRANCH  12  13
ATOM     13  C   UNL     1      47.516   2.337   6.169  0.00  0.00    +0.000 C 
ATOM     14  N   UNL     1      47.455   3.152   5.073  0.00  0.00    +0.000 N 
ATOM     15  O   UNL     1      48.311   1.402   6.193  0.00  0.00    +0.000 OA
ATOM     23  H   UNL     1      46.847   3.945   4.949  0.00  0.00    +0.000 HD
ATOM     24  H   UNL     1      48.093   2.936   4.320  0.00  0.00    +0.000 HD
ENDBRANCH  12  13
BRANCH   8   7
ATOM      7  C   UNL     1      43.752   4.727  10.747  0.00  0.00    +0.000 C 
BRANCH   7   6
ATOM      3  C   UNL     1      46.949   6.392  13.165  0.00  0.00    +0.000 A 
ATOM      4  C   UNL     1      46.373   5.161  13.505  0.00  0.00    +0.000 A 
ATOM      5  C   UNL     1      45.336   4.621  12.740  0.00  0.00    +0.000 A 
ATOM      6  C   UNL     1      44.828   5.315  11.635  0.00  0.00    +0.000 A 
ATOM     18  C   UNL     1      45.402   6.551  11.298  0.00  0.00    +0.000 A 
ATOM     19  C   UNL     1      46.448   7.086  12.056  0.00  0.00    +0.000 A 
BRANCH   3   2
ATOM      2  C   UNL     1      48.084   6.954  13.984  0.00  0.00    +0.000 C 
BRANCH   2   1
ATOM      1  N   UNL     1      49.377   6.704  13.355  0.00  0.00    +0.000 NA
ATOM     20  H   UNL     1      49.245   6.105  12.543  0.00  0.00    +0.000 HD
ATOM     21  H   UNL     1      49.964   6.186  14.008  0.00  0.00    +0.000 HD
ENDBRANCH   2   1
ENDBRANCH   3   2
ENDBRANCH   7   6
ENDBRANCH   8   7
TORSDOF 5
ENDMDL
MODEL 5
REMARK VINA RESULT:    -6.844      2.253      2.825
REMARK INTER + INTRA:          -8.857
REMARK INTER:                  -8.673
REMARK INTRA:                  -0.184
REMARK UNBOUND:                -0.213
REMARK  Name = 
REMARK  5 active torsions:
REMARK  status: ('A' for Active; 'I' for Inactive)
REMARK    1  A    between atoms: N_1  and  C_2
REMARK    2  A    between atoms: C_2  and  C_3
REMARK    3  A    between atoms: C_6  and  C_7
REMARK    4  A    between atoms: C_7  and  N_8
REMARK    5  A    between atoms: C_12  and  C_13
REMARK                            x       y       z     vdW  Elec       q    Type
REMARK                         _______ _______ _______ _____ _____    ______ ____
ROOT
ATOM      8  N   UNL     1      43.868   5.945  10.853  0.00  0.00    +0.000 N 
ATOM      9  C   UNL     1      44.822   6.609  11.637  0.00  0.00    +0.000 A 
ATOM     10  C   UNL     1      44.895   7.998  11.567  0.00  0.00    +0.000 A 
ATOM     11  C   UNL     1      45.835   8.677  12.347  0.00  0.00    +0.000 A 
ATOM     12  C   UNL     1      46.685   7.957  13.185  0.00  0.00    +0.000 A 
ATOM     16  C   UNL     1      46.553   6.580  13.179  0.00  0.00    +0.000 A 
ATOM     17  N   UNL     1      45.655   5.902  12.424  0.00  0.00    +0.000 NA
ATOM     22  H   UNL     1      42.944   6.304  11.078  0.00  0.00    +0.000 HD
ENDROOT
BRANCH  12  13
ATOM     13  C   UNL     1      47.667   8.678  14.029  0.00  0.00    +0.000 C 
ATOM     14  N   UNL     1      47.299   9.072  15.285  0.00  0.00    +0.000 N 
ATOM     15  O   UNL     1      48.793   8.930  13.614  0.00  0.00    +0.000 OA
ATOM     23  H   UNL     1      46.406   8.915  15.725  0.00  0.00    +0.000 HD
ATOM     24  H   UNL     1      48.000   9.560  15.823  0.00  0.00    +0.000 HD
ENDBRANCH  12  13
BRANCH   8   7
ATOM      7  C   UNL     1      43.917   4.490  10.986  0.00  0.00    +0.000 C 
BRANCH   7   6
ATOM      3  C   UNL     1      46.182   2.745   7.720  0.00  0.00    +0.000 A 
ATOM      4  C   UNL     1      45.522   1.922   8.643  0.00  0.00    +0.000 A 
ATOM      5  C   UNL     1      44.800   2.473   9.704  0.00  0.00    +0.000 A 
ATOM      6  C   UNL     1      44.746   3.860   9.887  0.00  0.00    +0.000 A 
ATOM     18  C   UNL     1      45.411   4.684   8.965  0.00  0.00    +0.000 A 
ATOM     19  C   UNL     1      46.124   4.134   7.896  0.00  0.00    +0.000 A 
BRANCH   3   2
ATOM      2  C   UNL     1      46.940   2.140   6.565  0.00  0.00    +0.000 C 
BRANCH   2   1
ATOM      1  N   UNL     1      47.278   0.743   6.817  0.00  0.00    +0.000 NA
ATOM     20  H   UNL     1      46.747   0.409   7.618  0.00  0.00    +0.000 HD
ATOM     21  H   UNL     1      48.262   0.686   7.074  0.00  0.00    +0.000 HD
ENDBRANCH   2   1
ENDBRANCH   3   2
ENDBRANCH   7   6
ENDBRANCH   8   7
TORSDOF 5
ENDMDL
MODEL 6
REMARK VINA RESULT:    -6.674      3.377      7.746
REMARK INTER + INTRA:          -8.642
REMARK INTER:                  -8.312
REMARK INTRA:                  -0.330
REMARK UNBOUND:                -0.213
REMARK  Name = 
REMARK  5 active torsions:
REMARK  status: ('A' for Active; 'I' for Inactive)
REMARK    1  A    between atoms: N_1  and  C_2
REMARK    2  A    between atoms: C_2  and  C_3
REMARK    3  A    between atoms: C_6  and  C_7
REMARK    4  A    between atoms: C_7  and  N_8
REMARK    5  A    between atoms: C_12  and  C_13
REMARK                            x       y       z     vdW  Elec       q    Type
REMARK                         _______ _______ _______ _____ _____    ______ ____
ROOT
ATOM      8  N   UNL     1      47.482   5.388  15.245  0.00  0.00    +0.000 N 
ATOM      9  C   UNL     1      46.770   5.240  14.046  0.00  0.00    +0.000 A 
ATOM     10  C   UNL     1      46.944   6.191  13.043  0.00  0.00    +0.000 A 
ATOM     11  C   UNL     1      46.248   6.054  11.840  0.00  0.00    +0.000 A 
ATOM     12  C   UNL     1      45.392   4.969  11.656  0.00  0.00    +0.000 A 
ATOM     16  C   UNL     1      45.269   4.082  12.711  0.00  0.00    +0.000 A 
ATOM     17  N   UNL     1      45.927   4.201  13.889  0.00  0.00    +0.000 NA
ATOM     22  H   UNL     1      48.476   5.427  15.039  0.00  0.00    +0.000 HD
ENDROOT
BRANCH  12  13
ATOM     13  C   UNL     1      44.671   4.813  10.371  0.00  0.00    +0.000 C 
ATOM     14  N   UNL     1      45.318   5.119   9.207  0.00  0.00    +0.000 N 
ATOM     15  O   UNL     1      43.509   4.422  10.341  0.00  0.00    +0.000 OA
ATOM     23  H   UNL     1      46.268   5.443   9.115  0.00  0.00    +0.000 HD
ATOM     24  H   UNL     1      44.787   4.998   8.356  0.00  0.00    +0.000 HD
ENDBRANCH  12  13
BRANCH   8   7
ATOM      7  C   UNL     1      47.185   4.349  16.229  0.00  0.00    +0.000 C 
BRANCH   7   6
ATOM      3  C   UNL     1      50.878   2.391  17.400  0.00  0.00    +0.000 A 
ATOM      4  C   UNL     1      49.897   1.685  16.691  0.00  0.00    +0.000 A 
ATOM      5  C   UNL     1      48.701   2.302  16.319  0.00  0.00    +0.000 A 
ATOM      6  C   UNL     1      48.442   3.632  16.675  0.00  0.00    +0.000 A 
ATOM     18  C   UNL     1      49.423   4.337  17.390  0.00  0.00    +0.000 A 
ATOM     19  C   UNL     1      50.626   3.723  17.752  0.00  0.00    +0.000 A 
BRANCH   3   2
ATOM      2  C   UNL     1      52.176   1.722  17.776  0.00  0.00    +0.000 C 
BRANCH   2   1
ATOM      1  N   UNL     1      51.973   0.325  18.147  0.00  0.00    +0.000 NA
ATOM     20  H   UNL     1      51.254   0.270  18.864  0.00  0.00    +0.000 HD
ATOM     21  H   UNL     1      52.832  -0.030  18.567  0.00  0.00    +0.000 HD
ENDBRANCH   2   1
ENDBRANCH   3   2
ENDBRANCH   7   6
ENDBRANCH   8   7
TORSDOF 5
ENDMDL
MODEL 7
REMARK VINA RESULT:    -6.665      1.806      2.187
REMARK INTER + INTRA:          -8.630
REMARK INTER:                  -8.264
REMARK INTRA:                  -0.367
REMARK UNBOUND:                -0.213
REMARK  Name = 
REMARK  5 active torsions:
REMARK  status: ('A' for Active; 'I' for Inactive)
REMARK    1  A    between atoms: N_1  and  C_2
REMARK    2  A    between atoms: C_2  and  C_3
REMARK    3  A    between atoms: C_6  and  C_7
REMARK    4  A    between atoms: C_7  and  N_8
REMARK    5  A    between atoms: C_12  and  C_13
REMARK                            x       y       z     vdW  Elec       q    Type
REMARK                         _______ _______ _______ _____ _____    ______ ____
ROOT
ATOM      8  N   UNL     1      44.839   4.042  12.195  0.00  0.00    +0.000 N 
ATOM      9  C   UNL     1      45.851   4.814  12.782  0.00  0.00    +0.000 A 
ATOM     10  C   UNL     1      46.405   4.388  13.987  0.00  0.00    +0.000 A 
ATOM     11  C   UNL     1      47.420   5.142  14.581  0.00  0.00    +0.000 A 
ATOM     12  C   UNL     1      47.867   6.308  13.961  0.00  0.00    +0.000 A 
ATOM     16  C   UNL     1      47.250   6.665  12.776  0.00  0.00    +0.000 A 
ATOM     17  N   UNL     1      46.258   5.953  12.188  0.00  0.00    +0.000 NA
ATOM     22  H   UNL     1      45.184   3.098  12.048  0.00  0.00    +0.000 HD
ENDROOT
BRANCH  12  13
ATOM     13  C   UNL     1      48.959   7.096  14.581  0.00  0.00    +0.000 C 
ATOM     14  N   UNL     1      49.051   7.144  15.943  0.00  0.00    +0.000 N 
ATOM     15  O   UNL     1      49.769   7.706  13.891  0.00  0.00    +0.000 OA
ATOM     23  H   UNL     1      48.445   6.681  16.602  0.00  0.00    +0.000 HD
ATOM     24  H   UNL     1      49.810   7.693  16.321  0.00  0.00    +0.000 HD
ENDBRANCH  12  13
BRANCH   8   7
ATOM      7  C   UNL     1      44.315   4.614  10.957  0.00  0.00    +0.000 C 
BRANCH   7   6
ATOM      3  C   UNL     1      46.263   2.726   7.568  0.00  0.00    +0.000 A 
ATOM      4  C   UNL     1      46.264   4.122   7.698  0.00  0.00    +0.000 A 
ATOM      5  C   UNL     1      45.631   4.740   8.778  0.00  0.00    +0.000 A 
ATOM      6  C   UNL     1      44.953   3.979   9.739  0.00  0.00    +0.000 A 
ATOM     18  C   UNL     1      44.947   2.582   9.606  0.00  0.00    +0.000 A 
ATOM     19  C   UNL     1      45.592   1.962   8.531  0.00  0.00    +0.000 A 
BRANCH   3   2
ATOM      2  C   UNL     1      46.969   2.068   6.410  0.00  0.00    +0.000 C 
BRANCH   2   1
ATOM      1  N   UNL     1      48.040   1.186   6.864  0.00  0.00    +0.000 NA
ATOM     20  H   UNL     1      48.937   1.643   6.715  0.00  0.00    +0.000 HD
ATOM     21  H   UNL     1      48.040   0.347   6.285  0.00  0.00    +0.000 HD
ENDBRANCH   2   1
ENDBRANCH   3   2
ENDBRANCH   7   6
ENDBRANCH   8   7
TORSDOF 5
ENDMDL
MODEL 8
REMARK VINA RESULT:    -6.351      2.198      3.412
REMARK INTER + INTRA:          -8.234
REMARK INTER:                  -7.922
REMARK INTRA:                  -0.312
REMARK UNBOUND:                -0.213
REMARK  Name = 
REMARK  5 active torsions:
REMARK  status: ('A' for Active; 'I' for Inactive)
REMARK    1  A    between atoms: N_1  and  C_2
REMARK    2  A    between atoms: C_2  and  C_3
REMARK    3  A    between atoms: C_6  and  C_7
REMARK    4  A    between atoms: C_7  and  N_8
REMARK    5  A    between atoms: C_12  and  C_13
REMARK                            x       y       z     vdW  Elec       q    Type
REMARK                         _______ _______ _______ _____ _____    ______ ____
ROOT
ATOM      8  N   UNL     1      46.345   5.639  13.645  0.00  0.00    +0.000 N 
ATOM      9  C   UNL     1      47.047   5.187  14.771  0.00  0.00    +0.000 A 
ATOM     10  C   UNL     1      48.141   5.924  15.218  0.00  0.00    +0.000 A 
ATOM     11  C   UNL     1      48.847   5.491  16.344  0.00  0.00    +0.000 A 
ATOM     12  C   UNL     1      48.447   4.331  17.006  0.00  0.00    +0.000 A 
ATOM     16  C   UNL     1      47.360   3.654  16.483  0.00  0.00    +0.000 A 
ATOM     17  N   UNL     1      46.668   4.051  15.388  0.00  0.00    +0.000 NA
ATOM     22  H   UNL     1      46.018   6.586  13.815  0.00  0.00    +0.000 HD
ENDROOT
BRANCH  12  13
ATOM     13  C   UNL     1      49.182   3.885  18.212  0.00  0.00    +0.000 C 
ATOM     14  N   UNL     1      48.503   3.221  19.195  0.00  0.00    +0.000 N 
ATOM     15  O   UNL     1      50.382   4.108  18.341  0.00  0.00    +0.000 OA
ATOM     23  H   UNL     1      47.524   2.983  19.191  0.00  0.00    +0.000 HD
ATOM     24  H   UNL     1      49.044   2.937  19.999  0.00  0.00    +0.000 HD
ENDBRANCH  12  13
BRANCH   8   7
ATOM      7  C   UNL     1      45.244   4.760  13.254  0.00  0.00    +0.000 C 
BRANCH   7   6
ATOM      3  C   UNL     1      45.334   3.964   8.989  0.00  0.00    +0.000 A 
ATOM      4  C   UNL     1      45.686   5.228   9.480  0.00  0.00    +0.000 A 
ATOM      5  C   UNL     1      45.650   5.498  10.849  0.00  0.00    +0.000 A 
ATOM      6  C   UNL     1      45.230   4.520  11.759  0.00  0.00    +0.000 A 
ATOM     18  C   UNL     1      44.872   3.256  11.266  0.00  0.00    +0.000 A 
ATOM     19  C   UNL     1      44.919   2.981   9.896  0.00  0.00    +0.000 A 
BRANCH   3   2
ATOM      2  C   UNL     1      45.398   3.676   7.510  0.00  0.00    +0.000 C 
BRANCH   2   1
ATOM      1  N   UNL     1      46.654   4.137   6.926  0.00  0.00    +0.000 NA
ATOM     20  H   UNL     1      46.730   5.144   7.046  0.00  0.00    +0.000 HD
ATOM     21  H   UNL     1      46.631   3.963   5.922  0.00  0.00    +0.000 HD
ENDBRANCH   2   1
ENDBRANCH   3   2
ENDBRANCH   7   6
ENDBRANCH   8   7
TORSDOF 5
ENDMDL
MODEL 9
REMARK VINA RESULT:    -6.204      2.712      4.673
REMARK INTER + INTRA:          -8.048
REMARK INTER:                  -7.784
REMARK INTRA:                  -0.264
REMARK UNBOUND:                -0.213
REMARK  Name = 
REMARK  5 active torsions:
REMARK  status: ('A' for Active; 'I' for Inactive)
REMARK    1  A    between atoms: N_1  and  C_2
REMARK    2  A    between atoms: C_2  and  C_3
REMARK    3  A    between atoms: C_6  and  C_7
REMARK    4  A    between atoms: C_7  and  N_8
REMARK    5  A    between atoms: C_12  and  C_13
REMARK                            x       y       z     vdW  Elec       q    Type
REMARK                         _______ _______ _______ _____ _____    ______ ____
ROOT
ATOM      8  N   UNL     1      46.924   3.764  14.568  0.00  0.00    +0.000 N 
ATOM      9  C   UNL     1      47.496   3.941  15.836  0.00  0.00    +0.000 A 
ATOM     10  C   UNL     1      48.042   2.835  16.483  0.00  0.00    +0.000 A 
ATOM     11  C   UNL     1      48.623   2.996  17.744  0.00  0.00    +0.000 A 
ATOM     12  C   UNL     1      48.652   4.257  18.335  0.00  0.00    +0.000 A 
ATOM     16  C   UNL     1      48.073   5.296  17.627  0.00  0.00    +0.000 A 
ATOM     17  N   UNL     1      47.496   5.160  16.409  0.00  0.00    +0.000 NA
ATOM     22  H   UNL     1      47.617   3.364  13.943  0.00  0.00    +0.000 HD
ENDROOT
BRANCH  12  13
ATOM     13  C   UNL     1      49.288   4.431  19.662  0.00  0.00    +0.000 C 
ATOM     14  N   UNL     1      48.600   4.056  20.782  0.00  0.00    +0.000 N 
ATOM     15  O   UNL     1      50.413   4.910  19.767  0.00  0.00    +0.000 OA
ATOM     23  H   UNL     1      47.677   3.652  20.811  0.00  0.00    +0.000 HD
ATOM     24  H   UNL     1      49.072   4.194  21.664  0.00  0.00    +0.000 HD
ENDBRANCH  12  13
BRANCH   8   7
ATOM      7  C   UNL     1      46.354   4.989  14.012  0.00  0.00    +0.000 C 
BRANCH   7   6
ATOM      3  C   UNL     1      45.013   4.256   9.949  0.00  0.00    +0.000 A 
ATOM      4  C   UNL     1      45.553   5.500  10.302  0.00  0.00    +0.000 A 
ATOM      5  C   UNL     1      45.977   5.750  11.609  0.00  0.00    +0.000 A 
ATOM      6  C   UNL     1      45.842   4.773  12.603  0.00  0.00    +0.000 A 
ATOM     18  C   UNL     1      45.296   3.529  12.250  0.00  0.00    +0.000 A 
ATOM     19  C   UNL     1      44.882   3.274  10.939  0.00  0.00    +0.000 A 
BRANCH   3   2
ATOM      2  C   UNL     1      44.579   3.990   8.529  0.00  0.00    +0.000 C 
BRANCH   2   1
ATOM      1  N   UNL     1      45.705   4.053   7.602  0.00  0.00    +0.000 NA
ATOM     20  H   UNL     1      45.828   3.143   7.163  0.00  0.00    +0.000 HD
ATOM     21  H   UNL     1      46.555   4.239   8.133  0.00  0.00    +0.000 HD
ENDBRANCH   2   1
ENDBRANCH   3   2
ENDBRANCH   7   6
ENDBRANCH   8   7
TORSDOF 5
ENDMDL
