MODEL 1
REMARK VINA RESULT:    -6.850      0.000      0.000
REMARK INTER + INTRA:         -13.944
REMARK INTER:                 -12.056
REMARK INTRA:                  -1.888
REMARK UNBOUND:                -1.888
REMARK  Name = 
REMARK  15 active torsions:
REMARK  status: ('A' for Active; 'I' for Inactive)
REMARK    1  A    between atoms: C_1  and  C_2
REMARK    2  A    between atoms: C_2  and  C_3
REMARK    3  A    between atoms: C_3  and  C_4
REMARK    4  A    between atoms: C_4  and  C_5
REMARK    5  A    between atoms: C_5  and  C_6
REMARK    6  A    between atoms: C_6  and  C_7
REMARK    7  A    between atoms: C_7  and  C_8
REMARK    8  A    between atoms: C_8  and  N_9
REMARK    9  A    between atoms: N_9  and  C_10
REMARK   10  A    between atoms: N_9  and  C_12
REMARK   11  A    between atoms: C_10  and  C_11
REMARK   12  A    between atoms: C_12  and  C_13
REMARK   13  A    between atoms: C_16  and  C_17
REMARK   14  A    between atoms: C_17  and  N_18
REMARK   15  A    between atoms: C_19  and  C_21
REMARK                            x       y       z     vdW  Elec       q    Type
REMARK                         _______ _______ _______ _____ _____    ______ ____
ROOT
ATOM     13  C   UNL     1      46.872   4.802  13.885  0.00  0.00    +0.000 A 
ATOM     14  C   UNL     1      47.601   5.999  13.825  0.00  0.00    +0.000 A 
ATOM     15  C   UNL     1      48.315   6.456  14.939  0.00  0.00    +0.000 A 
ATOM     16  C   UNL     1      48.328   5.720  16.130  0.00  0.00    +0.000 A 
ATOM     31  C   UNL     1      47.613   4.514  16.183  0.00  0.00    +0.000 A 
ATOM     32  C   UNL     1      46.901   4.056  15.071  0.00  0.00    +0.000 A 
ENDROOT
BRANCH  13  12
ATOM     12  C   UNL     1      46.048   4.329  12.702  0.00  0.00    +0.000 C 
BRANCH  12   9
ATOM      9  N   UNL     1      44.728   4.973  12.594  0.00  0.00    +0.000 NA
BRANCH   9  10
ATOM     10  C   UNL     1      43.647   4.066  13.025  0.00  0.00    +0.000 C 
ATOM     11  C   UNL     1      43.415   2.819  12.172  0.00  0.00    +0.000 C 
ENDBRANCH   9  10
BRANCH   9   8
ATOM      8  C   UNL     1      44.533   5.547  11.251  0.00  0.00    +0.000 C 
BRANCH   8   7
ATOM      7  C   UNL     1      45.850   5.810  10.527  0.00  0.00    +0.000 C 
BRANCH   7   6
ATOM      6  C   UNL     1      45.838   5.271   9.101  0.00  0.00    +0.000 C 
BRANCH   6   5
ATOM      5  C   UNL     1      44.966   4.020   9.068  0.00  0.00    +0.000 C 
BRANCH   5   4
ATOM      4  C   UNL     1      45.390   3.069   7.961  0.00  0.00    +0.000 C 
BRANCH   4   3
ATOM      3  C   UNL     1      46.592   3.634   7.212  0.00  0.00    +0.000 C 
BRANCH   3   2
ATOM      1  C   UNL     1      47.082   1.175   7.348  0.00  0.00    +0.000 C 
ATOM      2  C   UNL     1      47.543   2.514   6.805  0.00  0.00    +0.000 C 
ENDBRANCH   3   2
ENDBRANCH   4   3
ENDBRANCH   5   4
ENDBRANCH   6   5
ENDBRANCH   7   6
ENDBRANCH   8   7
ENDBRANCH   9   8
ENDBRANCH  12   9
ENDBRANCH  13  12
BRANCH  16  17
ATOM     17  C   UNL     1      49.050   6.222  17.355  0.00  0.00    +0.000 C 
BRANCH  17  18
ATOM     18  N   UNL     1      50.078   5.299  17.763  0.00  0.00    +0.000 N 
ATOM     19  C   UNL     1      51.350   5.356  17.243  0.00  0.00    +0.000 C 
ATOM     20  O   UNL     1      51.684   6.205  16.420  0.00  0.00    +0.000 OA
ATOM     33  H   UNL     1      49.777   4.458  18.238  0.00  0.00    +0.000 HD
BRANCH  19  21
ATOM     21  C   UNL     1      52.312   4.385  17.781  0.00  0.00    +0.000 A 
ATOM     22  C   UNL     1      53.480   4.831  18.381  0.00  0.00    +0.000 A 
ATOM     23  S   UNL     1      54.447   3.573  19.010  0.00  0.00    +0.000 S 
ATOM     24  C   UNL     1      53.364   2.389  18.446  0.00  0.00    +0.000 A 
ATOM     25  N   UNL     1      53.621   1.064  18.635  0.00  0.00    +0.000 NA
ATOM     26  C   UNL     1      52.728   0.274  18.136  0.00  0.00    +0.000 A 
ATOM     27  N   UNL     1      51.603   0.684  17.471  0.00  0.00    +0.000 N 
ATOM     28  C   UNL     1      51.289   2.012  17.291  0.00  0.00    +0.000 A 
ATOM     29  O   UNL     1      50.244   2.348  16.739  0.00  0.00    +0.000 OA
ATOM     30  C   UNL     1      52.271   2.943  17.814  0.00  0.00    +0.000 A 
ATOM     34  H   UNL     1      50.937   0.019  17.117  0.00  0.00    +0.000 HD
ENDBRANCH  19  21
ENDBRANCH  17  18
ENDBRANCH  16  17
TORSDOF 13
ENDMDL
MODEL 2
REMARK VINA RESULT:    -6.602      1.054      1.379
REMARK INTER + INTRA:         -13.507
REMARK INTER:                 -12.393
REMARK INTRA:                  -1.115
REMARK UNBOUND:                -1.888
REMARK  Name = 
REMARK  15 active torsions:
REMARK  status: ('A' for Active; 'I' for Inactive)
REMARK    1  A    between atoms: C_1  and  C_2
REMARK    2  A    between atoms: C_2  and  C_3
REMARK    3  A    between atoms: C_3  and  C_4
REMARK    4  A    between atoms: C_4  and  C_5
REMARK    5  A    between atoms: C_5  and  C_6
REMARK    6  A    between atoms: C_6  and  C_7
REMARK    7  A    between atoms: C_7  and  C_8
REMARK    8  A    between atoms: C_8  and  N_9
REMARK    9  A    between atoms: N_9  and  C_10
REMARK   10  A    between atoms: N_9  and  C_12
REMARK   11  A    between atoms: C_10  and  C_11
REMARK   12  A    between atoms: C_12  and  C_13
REMARK   13  A    between atoms: C_16  and  C_17
REMARK   14  A    between atoms: C_17  and  N_18
REMARK   15  A    between atoms: C_19  and  C_21
REMARK                            x       y       z     vdW  Elec       q    Type
REMARK                         _______ _______ _______ _____ _____    ______ ____
ROOT
ATOM     13  C   UNL     1      46.709   4.854  13.872  0.00  0.00    +0.000 A 
ATOM     14  C   UNL     1      47.390   6.006  13.453  0.00  0.00    +0.000 A 
ATOM     15  C   UNL     1      48.303   6.644  14.300  0.00  0.00    +0.000 A 
ATOM     16  C   UNL     1      48.568   6.134  15.578  0.00  0.00    +0.000 A 
ATOM     31  C   UNL     1      47.900   4.972  15.989  0.00  0.00    +0.000 A 
ATOM     32  C   UNL     1      46.988   4.334  15.143  0.00  0.00    +0.000 A 
ENDROOT
BRANCH  13  12
ATOM     12  C   UNL     1      45.674   4.191  12.983  0.00  0.00    +0.000 C 
BRANCH  12   9
ATOM      9  N   UNL     1      44.804   5.138  12.265  0.00  0.00    +0.000 NA
BRANCH   9  10
ATOM     10  C   UNL     1      43.393   4.988  12.667  0.00  0.00    +0.000 C 
ATOM     11  C   UNL     1      42.353   5.710  11.812  0.00  0.00    +0.000 C 
ENDBRANCH   9  10
BRANCH   9   8
ATOM      8  C   UNL     1      45.028   5.055  10.811  0.00  0.00    +0.000 C 
BRANCH   8   7
ATOM      7  C   UNL     1      44.891   3.633  10.274  0.00  0.00    +0.000 C 
BRANCH   7   6
ATOM      6  C   UNL     1      44.481   3.611   8.806  0.00  0.00    +0.000 C 
BRANCH   6   5
ATOM      5  C   UNL     1      45.673   3.138   7.981  0.00  0.00    +0.000 C 
BRANCH   5   4
ATOM      4  C   UNL     1      46.050   1.704   8.311  0.00  0.00    +0.000 C 
BRANCH   4   3
ATOM      3  C   UNL     1      47.150   1.218   7.372  0.00  0.00    +0.000 C 
BRANCH   3   2
ATOM      1  C   UNL     1      47.615   2.513   5.271  0.00  0.00    +0.000 C 
ATOM      2  C   UNL     1      47.890   2.400   6.759  0.00  0.00    +0.000 C 
ENDBRANCH   3   2
ENDBRANCH   4   3
ENDBRANCH   5   4
ENDBRANCH   6   5
ENDBRANCH   7   6
ENDBRANCH   8   7
ENDBRANCH   9   8
ENDBRANCH  12   9
ENDBRANCH  13  12
BRANCH  16  17
ATOM     17  C   UNL     1      49.511   6.836  16.522  0.00  0.00    +0.000 C 
BRANCH  17  18
ATOM     18  N   UNL     1      50.560   5.950  16.957  0.00  0.00    +0.000 N 
ATOM     19  C   UNL     1      50.550   5.373  18.206  0.00  0.00    +0.000 C 
ATOM     20  O   UNL     1      49.640   5.568  19.010  0.00  0.00    +0.000 OA
ATOM     33  H   UNL     1      51.422   5.965  16.429  0.00  0.00    +0.000 HD
BRANCH  19  21
ATOM     21  C   UNL     1      51.655   4.454  18.502  0.00  0.00    +0.000 A 
ATOM     22  C   UNL     1      52.732   4.891  19.258  0.00  0.00    +0.000 A 
ATOM     23  S   UNL     1      53.891   3.674  19.562  0.00  0.00    +0.000 S 
ATOM     24  C   UNL     1      53.018   2.541  18.642  0.00  0.00    +0.000 A 
ATOM     25  N   UNL     1      53.487   1.273  18.470  0.00  0.00    +0.000 NA
ATOM     26  C   UNL     1      52.737   0.525  17.730  0.00  0.00    +0.000 A 
ATOM     27  N   UNL     1      51.563   0.924  17.150  0.00  0.00    +0.000 N 
ATOM     28  C   UNL     1      51.036   2.183  17.327  0.00  0.00    +0.000 A 
ATOM     29  O   UNL     1      49.952   2.493  16.839  0.00  0.00    +0.000 OA
ATOM     30  C   UNL     1      51.851   3.072  18.134  0.00  0.00    +0.000 A 
ATOM     34  H   UNL     1      51.015   0.289  16.595  0.00  0.00    +0.000 HD
ENDBRANCH  19  21
ENDBRANCH  17  18
ENDBRANCH  16  17
TORSDOF 13
ENDMDL
MODEL 3
REMARK VINA RESULT:    -6.378      2.916      3.527
REMARK INTER + INTRA:         -13.112
REMARK INTER:                 -11.664
REMARK INTRA:                  -1.449
REMARK UNBOUND:                -1.888
REMARK  Name = 
REMARK  15 active torsions:
REMARK  status: ('A' for Active; 'I' for Inactive)
REMARK    1  A    between atoms: C_1  and  C_2
REMARK    2  A    between atoms: C_2  and  C_3
REMARK    3  A    between atoms: C_3  and  C_4
REMARK    4  A    between atoms: C_4  and  C_5
REMARK    5  A    between atoms: C_5  and  C_6
REMARK    6  A    between atoms: C_6  and  C_7
REMARK    7  A    between atoms: C_7  and  C_8
REMARK    8  A    between atoms: C_8  and  N_9
REMARK    9  A    between atoms: N_9  and  C_10
REMARK   10  A    between atoms: N_9  and  C_12
REMARK   11  A    between atoms: C_10  and  C_11
REMARK   12  A    between atoms: C_12  and  C_13
REMARK   13  A    between atoms: C_16  and  C_17
REMARK   14  A    between atoms: C_17  and  N_18
REMARK   15  A    between atoms: C_19  and  C_21
REMARK                            x       y       z     vdW  Elec       q    Type
REMARK                         _______ _______ _______ _____ _____    ______ ____
ROOT
ATOM     13  C   UNL     1      46.113   6.899  11.624  0.00  0.00    +0.000 A 
ATOM     14  C   UNL     1      45.520   8.049  12.163  0.00  0.00    +0.000 A 
ATOM     15  C   UNL     1      46.165   8.783  13.165  0.00  0.00    +0.000 A 
ATOM     16  C   UNL     1      47.424   8.392  13.638  0.00  0.00    +0.000 A 
ATOM     31  C   UNL     1      48.025   7.251  13.086  0.00  0.00    +0.000 A 
ATOM     32  C   UNL     1      47.381   6.519  12.084  0.00  0.00    +0.000 A 
ENDROOT
BRANCH  13  12
ATOM     12  C   UNL     1      45.394   6.065  10.580  0.00  0.00    +0.000 C 
BRANCH  12   9
ATOM      9  N   UNL     1      44.145   5.449  11.060  0.00  0.00    +0.000 NA
BRANCH   9  10
ATOM     10  C   UNL     1      44.269   4.995  12.458  0.00  0.00    +0.000 C 
ATOM     11  C   UNL     1      42.967   4.766  13.224  0.00  0.00    +0.000 C 
ENDBRANCH   9  10
BRANCH   9   8
ATOM      8  C   UNL     1      43.683   4.407  10.126  0.00  0.00    +0.000 C 
BRANCH   8   7
ATOM      7  C   UNL     1      44.515   3.130  10.211  0.00  0.00    +0.000 C 
BRANCH   7   6
ATOM      6  C   UNL     1      44.686   2.465   8.850  0.00  0.00    +0.000 C 
BRANCH   6   5
ATOM      5  C   UNL     1      44.889   3.556   7.805  0.00  0.00    +0.000 C 
BRANCH   5   4
ATOM      4  C   UNL     1      46.358   3.747   7.470  0.00  0.00    +0.000 C 
BRANCH   4   3
ATOM      3  C   UNL     1      46.769   2.806   6.342  0.00  0.00    +0.000 C 
BRANCH   3   2
ATOM      1  C   UNL     1      47.043   0.542   7.393  0.00  0.00    +0.000 C 
ATOM      2  C   UNL     1      47.759   1.764   6.848  0.00  0.00    +0.000 C 
ENDBRANCH   3   2
ENDBRANCH   4   3
ENDBRANCH   5   4
ENDBRANCH   6   5
ENDBRANCH   7   6
ENDBRANCH   8   7
ENDBRANCH   9   8
ENDBRANCH  12   9
ENDBRANCH  13  12
BRANCH  16  17
ATOM     17  C   UNL     1      48.111   9.141  14.751  0.00  0.00    +0.000 C 
BRANCH  17  18
ATOM     18  N   UNL     1      48.267   8.306  15.915  0.00  0.00    +0.000 N 
ATOM     19  C   UNL     1      49.507   8.011  16.434  0.00  0.00    +0.000 C 
ATOM     20  O   UNL     1      50.544   8.455  15.946  0.00  0.00    +0.000 OA
ATOM     33  H   UNL     1      47.474   7.740  16.183  0.00  0.00    +0.000 HD
BRANCH  19  21
ATOM     21  C   UNL     1      49.519   7.188  17.650  0.00  0.00    +0.000 A 
ATOM     22  C   UNL     1      50.004   7.718  18.836  0.00  0.00    +0.000 A 
ATOM     23  S   UNL     1      49.880   6.648  20.162  0.00  0.00    +0.000 S 
ATOM     24  C   UNL     1      49.230   5.423  19.178  0.00  0.00    +0.000 A 
ATOM     25  N   UNL     1      48.918   4.203  19.700  0.00  0.00    +0.000 NA
ATOM     26  C   UNL     1      48.456   3.359  18.837  0.00  0.00    +0.000 A 
ATOM     27  N   UNL     1      48.274   3.621  17.505  0.00  0.00    +0.000 N 
ATOM     28  C   UNL     1      48.542   4.850  16.946  0.00  0.00    +0.000 A 
ATOM     29  O   UNL     1      48.314   5.070  15.759  0.00  0.00    +0.000 OA
ATOM     30  C   UNL     1      49.085   5.829  17.868  0.00  0.00    +0.000 A 
ATOM     34  H   UNL     1      47.895   2.925  16.886  0.00  0.00    +0.000 HD
ENDBRANCH  19  21
ENDBRANCH  17  18
ENDBRANCH  16  17
TORSDOF 13
ENDMDL
MODEL 4
REMARK VINA RESULT:    -6.342      4.012      8.918
REMARK INTER + INTRA:         -13.050
REMARK INTER:                 -10.185
REMARK INTRA:                  -2.865
REMARK UNBOUND:                -1.888
REMARK  Name = 
REMARK  15 active torsions:
REMARK  status: ('A' for Active; 'I' for Inactive)
REMARK    1  A    between atoms: C_1  and  C_2
REMARK    2  A    between atoms: C_2  and  C_3
REMARK    3  A    between atoms: C_3  and  C_4
REMARK    4  A    between atoms: C_4  and  C_5
REMARK    5  A    between atoms: C_5  and  C_6
REMARK    6  A    between atoms: C_6  and  C_7
REMARK    7  A    between atoms: C_7  and  C_8
REMARK    8  A    between atoms: C_8  and  N_9
REMARK    9  A    between atoms: N_9  and  C_10
REMARK   10  A    between atoms: N_9  and  C_12
REMARK   11  A    between atoms: C_10  and  C_11
REMARK   12  A    between atoms: C_12  and  C_13
REMARK   13  A    between atoms: C_16  and  C_17
REMARK   14  A    between atoms: C_17  and  N_18
REMARK   15  A    between atoms: C_19  and  C_21
REMARK                            x       y       z     vdW  Elec       q    Type
REMARK                         _______ _______ _______ _____ _____    ______ ____
ROOT
ATOM     13  C   UNL     1      49.134   8.025  16.068  0.00  0.00    +0.000 A 
ATOM     14  C   UNL     1      49.554   6.997  15.213  0.00  0.00    +0.000 A 
ATOM     15  C   UNL     1      49.087   6.929  13.895  0.00  0.00    +0.000 A 
ATOM     16  C   UNL     1      48.203   7.897  13.401  0.00  0.00    +0.000 A 
ATOM     31  C   UNL     1      47.798   8.935  14.252  0.00  0.00    +0.000 A 
ATOM     32  C   UNL     1      48.266   9.003  15.568  0.00  0.00    +0.000 A 
ENDROOT
BRANCH  13  12
ATOM     12  C   UNL     1      49.590   8.072  17.515  0.00  0.00    +0.000 C 
BRANCH  12   9
ATOM      9  N   UNL     1      49.302   6.844  18.275  0.00  0.00    +0.000 NA
BRANCH   9  10
ATOM     10  C   UNL     1      48.313   7.088  19.342  0.00  0.00    +0.000 C 
ATOM     11  C   UNL     1      47.064   6.208  19.338  0.00  0.00    +0.000 C 
ENDBRANCH   9  10
BRANCH   9   8
ATOM      8  C   UNL     1      50.549   6.213  18.743  0.00  0.00    +0.000 C 
BRANCH   8   7
ATOM      7  C   UNL     1      50.852   4.903  18.021  0.00  0.00    +0.000 C 
BRANCH   7   6
ATOM      6  C   UNL     1      49.774   3.853  18.261  0.00  0.00    +0.000 C 
BRANCH   6   5
ATOM      5  C   UNL     1      49.971   2.724  17.255  0.00  0.00    +0.000 C 
BRANCH   5   4
ATOM      4  C   UNL     1      48.688   2.413  16.502  0.00  0.00    +0.000 C 
BRANCH   4   3
ATOM      3  C   UNL     1      47.568   3.342  16.960  0.00  0.00    +0.000 C 
BRANCH   3   2
ATOM      1  C   UNL     1      47.284   3.584  14.477  0.00  0.00    +0.000 C 
ATOM      2  C   UNL     1      47.140   4.264  15.825  0.00  0.00    +0.000 C 
ENDBRANCH   3   2
ENDBRANCH   4   3
ENDBRANCH   5   4
ENDBRANCH   6   5
ENDBRANCH   7   6
ENDBRANCH   8   7
ENDBRANCH   9   8
ENDBRANCH  12   9
ENDBRANCH  13  12
BRANCH  16  17
ATOM     17  C   UNL     1      47.651   7.812  12.000  0.00  0.00    +0.000 C 
BRANCH  17  18
ATOM     18  N   UNL     1      46.948   6.571  11.797  0.00  0.00    +0.000 N 
ATOM     19  C   UNL     1      45.577   6.494  11.870  0.00  0.00    +0.000 C 
ATOM     20  O   UNL     1      44.877   7.480  12.093  0.00  0.00    +0.000 OA
ATOM     33  H   UNL     1      47.492   5.721  11.857  0.00  0.00    +0.000 HD
BRANCH  19  21
ATOM     21  C   UNL     1      44.988   5.178  11.596  0.00  0.00    +0.000 A 
ATOM     22  C   UNL     1      44.296   4.511  12.595  0.00  0.00    +0.000 A 
ATOM     23  S   UNL     1      43.621   3.027  12.084  0.00  0.00    +0.000 S 
ATOM     24  C   UNL     1      44.285   3.203  10.528  0.00  0.00    +0.000 A 
ATOM     25  N   UNL     1      44.103   2.240   9.581  0.00  0.00    +0.000 NA
ATOM     26  C   UNL     1      44.681   2.490   8.452  0.00  0.00    +0.000 A 
ATOM     27  N   UNL     1      45.419   3.611   8.182  0.00  0.00    +0.000 N 
ATOM     28  C   UNL     1      45.596   4.623   9.098  0.00  0.00    +0.000 A 
ATOM     29  O   UNL     1      46.217   5.642   8.806  0.00  0.00    +0.000 OA
ATOM     30  C   UNL     1      44.985   4.382  10.391  0.00  0.00    +0.000 A 
ATOM     34  H   UNL     1      45.832   3.755   7.276  0.00  0.00    +0.000 HD
ENDBRANCH  19  21
ENDBRANCH  17  18
ENDBRANCH  16  17
TORSDOF 13
ENDMDL
MODEL 5
REMARK VINA RESULT:    -6.200      5.290      6.492
REMARK INTER + INTRA:         -12.799
REMARK INTER:                 -11.449
REMARK INTRA:                  -1.350
REMARK UNBOUND:                -1.888
REMARK  Name = 
REMARK  15 active torsions:
REMARK  status: ('A' for Active; 'I' for Inactive)
REMARK    1  A    between atoms: C_1  and  C_2
REMARK    2  A    between atoms: C_2  and  C_3
REMARK    3  A    between atoms: C_3  and  C_4
REMARK    4  A    between atoms: C_4  and  C_5
REMARK    5  A    between atoms: C_5  and  C_6
REMARK    6  A    between atoms: C_6  and  C_7
REMARK    7  A    between atoms: C_7  and  C_8
REMARK    8  A    between atoms: C_8  and  N_9
REMARK    9  A    between atoms: N_9  and  C_10
REMARK   10  A    between atoms: N_9  and  C_12
REMARK   11  A    between atoms: C_10  and  C_11
REMARK   12  A    between atoms: C_12  and  C_13
REMARK   13  A    between atoms: C_16  and  C_17
REMARK   14  A    between atoms: C_17  and  N_18
REMARK   15  A    between atoms: C_19  and  C_21
REMARK                            x       y       z     vdW  Elec       q    Type
REMARK                         _______ _______ _______ _____ _____    ______ ____
ROOT
ATOM     13  C   UNL     1      46.814   6.094  12.976  0.00  0.00    +0.000 A 
ATOM     14  C   UNL     1      46.854   6.572  11.659  0.00  0.00    +0.000 A 
ATOM     15  C   UNL     1      47.982   7.247  11.179  0.00  0.00    +0.000 A 
ATOM     16  C   UNL     1      49.099   7.444  12.000  0.00  0.00    +0.000 A 
ATOM     31  C   UNL     1      49.065   6.949  13.312  0.00  0.00    +0.000 A 
ATOM     32  C   UNL     1      47.939   6.274  13.791  0.00  0.00    +0.000 A 
ENDROOT
BRANCH  13  12
ATOM     12  C   UNL     1      45.572   5.413  13.523  0.00  0.00    +0.000 C 
BRANCH  12   9
ATOM      9  N   UNL     1      44.678   4.872  12.485  0.00  0.00    +0.000 NA
BRANCH   9  10
ATOM     10  C   UNL     1      43.260   5.102  12.819  0.00  0.00    +0.000 C 
ATOM     11  C   UNL     1      42.412   5.813  11.765  0.00  0.00    +0.000 C 
ENDBRANCH   9  10
BRANCH   9   8
ATOM      8  C   UNL     1      45.007   3.466  12.192  0.00  0.00    +0.000 C 
BRANCH   8   7
ATOM      7  C   UNL     1      44.032   2.826  11.207  0.00  0.00    +0.000 C 
BRANCH   7   6
ATOM      6  C   UNL     1      44.688   2.523   9.865  0.00  0.00    +0.000 C 
BRANCH   6   5
ATOM      5  C   UNL     1      44.810   3.827   9.085  0.00  0.00    +0.000 C 
BRANCH   5   4
ATOM      4  C   UNL     1      45.161   3.579   7.627  0.00  0.00    +0.000 C 
BRANCH   4   3
ATOM      3  C   UNL     1      46.628   3.914   7.373  0.00  0.00    +0.000 C 
BRANCH   3   2
ATOM      1  C   UNL     1      47.409   2.546   5.418  0.00  0.00    +0.000 C 
ATOM      2  C   UNL     1      47.391   2.672   6.930  0.00  0.00    +0.000 C 
ENDBRANCH   3   2
ENDBRANCH   4   3
ENDBRANCH   5   4
ENDBRANCH   6   5
ENDBRANCH   7   6
ENDBRANCH   8   7
ENDBRANCH   9   8
ENDBRANCH  12   9
ENDBRANCH  13  12
BRANCH  16  17
ATOM     17  C   UNL     1      50.303   8.212  11.516  0.00  0.00    +0.000 C 
BRANCH  17  18
ATOM     18  N   UNL     1      51.369   7.318  11.142  0.00  0.00    +0.000 N 
ATOM     19  C   UNL     1      52.263   7.634  10.145  0.00  0.00    +0.000 C 
ATOM     20  O   UNL     1      52.213   8.699   9.533  0.00  0.00    +0.000 OA
ATOM     33  H   UNL     1      51.290   6.357  11.445  0.00  0.00    +0.000 HD
BRANCH  19  21
ATOM     21  C   UNL     1      53.328   6.654   9.898  0.00  0.00    +0.000 A 
ATOM     22  C   UNL     1      54.259   6.383  10.889  0.00  0.00    +0.000 A 
ATOM     23  S   UNL     1      55.382   5.171  10.457  0.00  0.00    +0.000 S 
ATOM     24  C   UNL     1      54.695   5.015   8.909  0.00  0.00    +0.000 A 
ATOM     25  N   UNL     1      55.216   4.141   8.001  0.00  0.00    +0.000 NA
ATOM     26  C   UNL     1      54.612   4.141   6.859  0.00  0.00    +0.000 A 
ATOM     27  N   UNL     1      53.537   4.927   6.541  0.00  0.00    +0.000 N 
ATOM     28  C   UNL     1      52.959   5.795   7.440  0.00  0.00    +0.000 A 
ATOM     29  O   UNL     1      51.961   6.445   7.142  0.00  0.00    +0.000 OA
ATOM     30  C   UNL     1      53.613   5.851   8.733  0.00  0.00    +0.000 A 
ATOM     34  H   UNL     1      53.101   4.870   5.636  0.00  0.00    +0.000 HD
ENDBRANCH  19  21
ENDBRANCH  17  18
ENDBRANCH  16  17
TORSDOF 13
ENDMDL
MODEL 6
REMARK VINA RESULT:    -6.197      1.608      2.945
REMARK INTER + INTRA:         -12.794
REMARK INTER:                 -11.669
REMARK INTRA:                  -1.126
REMARK UNBOUND:                -1.888
REMARK  Name = 
REMARK  15 active torsions:
REMARK  status: ('A' for Active; 'I' for Inactive)
REMARK    1  A    between atoms: C_1  and  C_2
REMARK    2  A    between atoms: C_2  and  C_3
REMARK    3  A    between atoms: C_3  and  C_4
REMARK    4  A    between atoms: C_4  and  C_5
REMARK    5  A    between atoms: C_5  and  C_6
REMARK    6  A    between atoms: C_6  and  C_7
REMARK    7  A    between atoms: C_7  and  C_8
REMARK    8  A    between atoms: C_8  and  N_9
REMARK    9  A    between atoms: N_9  and  C_10
REMARK   10  A    between atoms: N_9  and  C_12
REMARK   11  A    between atoms: C_10  and  C_11
REMARK   12  A    between atoms: C_12  and  C_13
REMARK   13  A    between atoms: C_16  and  C_17
REMARK   14  A    between atoms: C_17  and  N_18
REMARK   15  A    between atoms: C_19  and  C_21
REMARK                            x       y       z     vdW  Elec       q    Type
REMARK                         _______ _______ _______ _____ _____    ______ ____
ROOT
ATOM     13  C   UNL     1      47.573   5.927  13.458  0.00  0.00    +0.000 A 
ATOM     14  C   UNL     1      46.944   4.677  13.552  0.00  0.00    +0.000 A 
ATOM     15  C   UNL     1      46.956   3.960  14.754  0.00  0.00    +0.000 A 
ATOM     16  C   UNL     1      47.584   4.485  15.891  0.00  0.00    +0.000 A 
ATOM     31  C   UNL     1      48.197   5.742  15.801  0.00  0.00    +0.000 A 
ATOM     32  C   UNL     1      48.184   6.459  14.601  0.00  0.00    +0.000 A 
ENDROOT
BRANCH  13  12
ATOM     12  C   UNL     1      47.616   6.684  12.143  0.00  0.00    +0.000 C 
BRANCH  12   9
ATOM      9  N   UNL     1      46.288   7.035  11.610  0.00  0.00    +0.000 NA
BRANCH   9  10
ATOM     10  C   UNL     1      45.410   7.579  12.663  0.00  0.00    +0.000 C 
ATOM     11  C   UNL     1      45.444   9.092  12.873  0.00  0.00    +0.000 C 
ENDBRANCH   9  10
BRANCH   9   8
ATOM      8  C   UNL     1      45.707   5.903  10.867  0.00  0.00    +0.000 C 
BRANCH   8   7
ATOM      7  C   UNL     1      44.243   5.655  11.222  0.00  0.00    +0.000 C 
BRANCH   7   6
ATOM      6  C   UNL     1      43.671   4.449  10.485  0.00  0.00    +0.000 C 
BRANCH   6   5
ATOM      5  C   UNL     1      44.772   3.403  10.350  0.00  0.00    +0.000 C 
BRANCH   5   4
ATOM      4  C   UNL     1      44.587   2.551   9.106  0.00  0.00    +0.000 C 
BRANCH   4   3
ATOM      3  C   UNL     1      45.660   2.884   8.074  0.00  0.00    +0.000 C 
BRANCH   3   2
ATOM      1  C   UNL     1      47.619   1.984   6.787  0.00  0.00    +0.000 C 
ATOM      2  C   UNL     1      46.554   1.676   7.822  0.00  0.00    +0.000 C 
ENDBRANCH   3   2
ENDBRANCH   4   3
ENDBRANCH   5   4
ENDBRANCH   6   5
ENDBRANCH   7   6
ENDBRANCH   8   7
ENDBRANCH   9   8
ENDBRANCH  12   9
ENDBRANCH  13  12
BRANCH  16  17
ATOM     17  C   UNL     1      47.650   3.705  17.180  0.00  0.00    +0.000 C 
BRANCH  17  18
ATOM     18  N   UNL     1      49.015   3.421  17.542  0.00  0.00    +0.000 N 
ATOM     19  C   UNL     1      49.730   2.413  16.937  0.00  0.00    +0.000 C 
ATOM     20  O   UNL     1      49.252   1.714  16.046  0.00  0.00    +0.000 OA
ATOM     33  H   UNL     1      49.347   3.802  18.418  0.00  0.00    +0.000 HD
BRANCH  19  21
ATOM     21  C   UNL     1      51.126   2.263  17.367  0.00  0.00    +0.000 A 
ATOM     22  C   UNL     1      51.645   0.997  17.592  0.00  0.00    +0.000 A 
ATOM     23  S   UNL     1      53.299   1.005  18.020  0.00  0.00    +0.000 S 
ATOM     24  C   UNL     1      53.354   2.704  17.977  0.00  0.00    +0.000 A 
ATOM     25  N   UNL     1      54.504   3.371  18.281  0.00  0.00    +0.000 NA
ATOM     26  C   UNL     1      54.399   4.658  18.232  0.00  0.00    +0.000 A 
ATOM     27  N   UNL     1      53.257   5.339  17.905  0.00  0.00    +0.000 N 
ATOM     28  C   UNL     1      52.086   4.704  17.557  0.00  0.00    +0.000 A 
ATOM     29  O   UNL     1      51.095   5.342  17.215  0.00  0.00    +0.000 OA
ATOM     30  C   UNL     1      52.143   3.256  17.617  0.00  0.00    +0.000 A 
ATOM     34  H   UNL     1      53.243   6.344  17.871  0.00  0.00    +0.000 HD
ENDBRANCH  19  21
ENDBRANCH  17  18
ENDBRANCH  16  17
TORSDOF 13
ENDMDL
MODEL 7
REMARK VINA RESULT:    -6.168      3.967      9.926
REMARK INTER + INTRA:         -12.743
REMARK INTER:                  -9.877
REMARK INTRA:                  -2.867
REMARK UNBOUND:                -1.888
REMARK  Name = 
REMARK  15 active torsions:
REMARK  status: ('A' for Active; 'I' for Inactive)
REMARK    1  A    between atoms: C_1  and  C_2
REMARK    2  A    between atoms: C_2  and  C_3
REMARK    3  A    between atoms: C_3  and  C_4
REMARK    4  A    between atoms: C_4  and  C_5
REMARK    5  A    between atoms: C_5  and  C_6
REMARK    6  A    between atoms: C_6  and  C_7
REMARK    7  A    between atoms: C_7  and  C_8
REMARK    8  A    between atoms: C_8  and  N_9
REMARK    9  A    between atoms: N_9  and  C_10
REMARK   10  A    between atoms: N_9  and  C_12
REMARK   11  A    between atoms: C_10  and  C_11
REMARK   12  A    between atoms: C_12  and  C_13
REMARK   13  A    between atoms: C_16  and  C_17
REMARK   14  A    between atoms: C_17  and  N_18
REMARK   15  A    between atoms: C_19  and  C_21
REMARK                            x       y       z     vdW  Elec       q    Type
REMARK                         _______ _______ _______ _____ _____    ______ ____
ROOT
ATOM     13  C   UNL     1      51.343   4.672  17.596  0.00  0.00    +0.000 A 
ATOM     14  C   UNL     1      50.435   5.689  17.272  0.00  0.00    +0.000 A 
ATOM     15  C   UNL     1      49.098   5.387  16.987  0.00  0.00    +0.000 A 
ATOM     16  C   UNL     1      48.638   4.065  17.037  0.00  0.00    +0.000 A 
ATOM     31  C   UNL     1      49.544   3.051  17.379  0.00  0.00    +0.000 A 
ATOM     32  C   UNL     1      50.879   3.352  17.665  0.00  0.00    +0.000 A 
ENDROOT
BRANCH  13  12
ATOM     12  C   UNL     1      52.808   4.984  17.849  0.00  0.00    +0.000 C 
BRANCH  12   9
ATOM      9  N   UNL     1      53.060   6.368  18.285  0.00  0.00    +0.000 NA
BRANCH   9  10
ATOM     10  C   UNL     1      54.000   7.057  17.381  0.00  0.00    +0.000 C 
ATOM     11  C   UNL     1      53.747   6.909  15.882  0.00  0.00    +0.000 C 
ENDBRANCH   9  10
BRANCH   9   8
ATOM      8  C   UNL     1      53.452   6.405  19.705  0.00  0.00    +0.000 C 
BRANCH   8   7
ATOM      7  C   UNL     1      52.334   6.914  20.611  0.00  0.00    +0.000 C 
BRANCH   7   6
ATOM      6  C   UNL     1      51.434   5.785  21.100  0.00  0.00    +0.000 C 
BRANCH   6   5
ATOM      5  C   UNL     1      49.987   6.263  21.037  0.00  0.00    +0.000 C 
BRANCH   5   4
ATOM      4  C   UNL     1      49.026   5.112  20.792  0.00  0.00    +0.000 C 
BRANCH   4   3
ATOM      3  C   UNL     1      47.665   5.646  20.356  0.00  0.00    +0.000 C 
BRANCH   3   2
ATOM      1  C   UNL     1      47.453   7.916  19.302  0.00  0.00    +0.000 C 
ATOM      2  C   UNL     1      47.574   7.147  20.604  0.00  0.00    +0.000 C 
ENDBRANCH   3   2
ENDBRANCH   4   3
ENDBRANCH   5   4
ENDBRANCH   6   5
ENDBRANCH   7   6
ENDBRANCH   8   7
ENDBRANCH   9   8
ENDBRANCH  12   9
ENDBRANCH  13  12
BRANCH  16  17
ATOM     17  C   UNL     1      47.214   3.716  16.685  0.00  0.00    +0.000 C 
BRANCH  17  18
ATOM     18  N   UNL     1      46.692   4.620  15.692  0.00  0.00    +0.000 N 
ATOM     19  C   UNL     1      46.769   4.341  14.347  0.00  0.00    +0.000 C 
ATOM     20  O   UNL     1      47.269   3.302  13.921  0.00  0.00    +0.000 OA
ATOM     33  H   UNL     1      46.505   5.568  15.988  0.00  0.00    +0.000 HD
BRANCH  19  21
ATOM     21  C   UNL     1      46.156   5.325  13.447  0.00  0.00    +0.000 A 
ATOM     22  C   UNL     1      46.859   6.467  13.092  0.00  0.00    +0.000 A 
ATOM     23  S   UNL     1      46.024   7.466  11.987  0.00  0.00    +0.000 S 
ATOM     24  C   UNL     1      44.672   6.434  11.996  0.00  0.00    +0.000 A 
ATOM     25  N   UNL     1      43.563   6.733  11.263  0.00  0.00    +0.000 NA
ATOM     26  C   UNL     1      42.603   5.876  11.381  0.00  0.00    +0.000 A 
ATOM     27  N   UNL     1      42.649   4.749  12.158  0.00  0.00    +0.000 N 
ATOM     28  C   UNL     1      43.762   4.393  12.885  0.00  0.00    +0.000 A 
ATOM     29  O   UNL     1      43.792   3.347  13.528  0.00  0.00    +0.000 OA
ATOM     30  C   UNL     1      44.863   5.334  12.805  0.00  0.00    +0.000 A 
ATOM     34  H   UNL     1      41.872   4.112  12.196  0.00  0.00    +0.000 HD
ENDBRANCH  19  21
ENDBRANCH  17  18
ENDBRANCH  16  17
TORSDOF 13
ENDMDL
MODEL 8
REMARK VINA RESULT:    -6.092      3.706      9.216
REMARK INTER + INTRA:         -12.609
REMARK INTER:                  -9.717
REMARK INTRA:                  -2.892
REMARK UNBOUND:                -1.888
REMARK  Name = 
REMARK  15 active torsions:
REMARK  status: ('A' for Active; 'I' for Inactive)
REMARK    1  A    between atoms: C_1  and  C_2
REMARK    2  A    between atoms: C_2  and  C_3
REMARK    3  A    between atoms: C_3  and  C_4
REMARK    4  A    between atoms: C_4  and  C_5
REMARK    5  A    between atoms: C_5  and  C_6
REMARK    6  A    between atoms: C_6  and  C_7
REMARK    7  A    between atoms: C_7  and  C_8
REMARK    8  A    between atoms: C_8  and  N_9
REMARK    9  A    between atoms: N_9  and  C_10
REMARK   10  A    between atoms: N_9  and  C_12
REMARK   11  A    between atoms: C_10  and  C_11
REMARK   12  A    between atoms: C_12  and  C_13
REMARK   13  A    between atoms: C_16  and  C_17
REMARK   14  A    between atoms: C_17  and  N_18
REMARK   15  A    between atoms: C_19  and  C_21
REMARK                            x       y       z     vdW  Elec       q    Type
REMARK                         _______ _______ _______ _____ _____    ______ ____
ROOT
ATOM     13  C   UNL     1      51.275   3.626  18.236  0.00  0.00    +0.000 A 
ATOM     14  C   UNL     1      50.837   2.597  17.391  0.00  0.00    +0.000 A 
ATOM     15  C   UNL     1      49.505   2.541  16.966  0.00  0.00    +0.000 A 
ATOM     16  C   UNL     1      48.587   3.522  17.363  0.00  0.00    +0.000 A 
ATOM     31  C   UNL     1      49.031   4.561  18.195  0.00  0.00    +0.000 A 
ATOM     32  C   UNL     1      50.362   4.617  18.619  0.00  0.00    +0.000 A 
ENDROOT
BRANCH  13  12
ATOM     12  C   UNL     1      52.703   3.660  18.750  0.00  0.00    +0.000 C 
BRANCH  12   9
ATOM      9  N   UNL     1      53.686   4.128  17.757  0.00  0.00    +0.000 NA
BRANCH   9  10
ATOM     10  C   UNL     1      54.732   3.118  17.514  0.00  0.00    +0.000 C 
ATOM     11  C   UNL     1      54.377   1.668  17.840  0.00  0.00    +0.000 C 
ENDBRANCH   9  10
BRANCH   9   8
ATOM      8  C   UNL     1      54.207   5.458  18.124  0.00  0.00    +0.000 C 
BRANCH   8   7
ATOM      7  C   UNL     1      53.239   6.585  17.775  0.00  0.00    +0.000 C 
BRANCH   7   6
ATOM      6  C   UNL     1      52.730   6.481  16.342  0.00  0.00    +0.000 C 
BRANCH   6   5
ATOM      5  C   UNL     1      51.643   7.531  16.141  0.00  0.00    +0.000 C 
BRANCH   5   4
ATOM      4  C   UNL     1      50.363   6.919  15.597  0.00  0.00    +0.000 C 
BRANCH   4   3
ATOM      3  C   UNL     1      49.147   7.611  16.206  0.00  0.00    +0.000 C 
BRANCH   3   2
ATOM      1  C   UNL     1      48.243   8.322  18.438  0.00  0.00    +0.000 C 
ATOM      2  C   UNL     1      49.485   8.176  17.580  0.00  0.00    +0.000 C 
ENDBRANCH   3   2
ENDBRANCH   4   3
ENDBRANCH   5   4
ENDBRANCH   6   5
ENDBRANCH   7   6
ENDBRANCH   8   7
ENDBRANCH   9   8
ENDBRANCH  12   9
ENDBRANCH  13  12
BRANCH  16  17
ATOM     17  C   UNL     1      47.137   3.451  16.956  0.00  0.00    +0.000 C 
BRANCH  17  18
ATOM     18  N   UNL     1      46.838   4.429  15.941  0.00  0.00    +0.000 N 
ATOM     19  C   UNL     1      46.950   4.141  14.601  0.00  0.00    +0.000 C 
ATOM     20  O   UNL     1      47.292   3.032  14.196  0.00  0.00    +0.000 OA
ATOM     33  H   UNL     1      46.795   5.396  16.235  0.00  0.00    +0.000 HD
BRANCH  19  21
ATOM     21  C   UNL     1      46.569   5.214  13.675  0.00  0.00    +0.000 A 
ATOM     22  C   UNL     1      47.471   6.225  13.383  0.00  0.00    +0.000 A 
ATOM     23  S   UNL     1      46.888   7.350  12.237  0.00  0.00    +0.000 S 
ATOM     24  C   UNL     1      45.388   6.554  12.144  0.00  0.00    +0.000 A 
ATOM     25  N   UNL     1      44.395   7.033  11.342  0.00  0.00    +0.000 NA
ATOM     26  C   UNL     1      43.301   6.345  11.385  0.00  0.00    +0.000 A 
ATOM     27  N   UNL     1      43.109   5.225  12.149  0.00  0.00    +0.000 N 
ATOM     28  C   UNL     1      44.097   4.689  12.944  0.00  0.00    +0.000 A 
ATOM     29  O   UNL     1      43.912   3.652  13.574  0.00  0.00    +0.000 OA
ATOM     30  C   UNL     1      45.341   5.436  12.949  0.00  0.00    +0.000 A 
ATOM     34  H   UNL     1      42.237   4.725  12.127  0.00  0.00    +0.000 HD
ENDBRANCH  19  21
ENDBRANCH  17  18
ENDBRANCH  16  17
TORSDOF 13
ENDMDL
MODEL 9
REMARK VINA RESULT:    -6.054      4.284      9.358
REMARK INTER + INTRA:         -12.543
REMARK INTER:                  -9.376
REMARK INTRA:                  -3.167
REMARK UNBOUND:                -1.888
REMARK  Name = 
REMARK  15 active torsions:
REMARK  status: ('A' for Active; 'I' for Inactive)
REMARK    1  A    between atoms: C_1  and  C_2
REMARK    2  A    between atoms: C_2  and  C_3
REMARK    3  A    between atoms: C_3  and  C_4
REMARK    4  A    between atoms: C_4  and  C_5
REMARK    5  A    between atoms: C_5  and  C_6
REMARK    6  A    between atoms: C_6  and  C_7
REMARK    7  A    between atoms: C_7  and  C_8
REMARK    8  A    between atoms: C_8  and  N_9
REMARK    9  A    between atoms: N_9  and  C_10
REMARK   10  A    between atoms: N_9  and  C_12
REMARK   11  A    between atoms: C_10  and  C_11
REMARK   12  A    between atoms: C_12  and  C_13
REMARK   13  A    between atoms: C_16  and  C_17
REMARK   14  A    between atoms: C_17  and  N_18
REMARK   15  A    between atoms: C_19  and  C_21
REMARK                            x       y       z     vdW  Elec       q    Type
REMARK                         _______ _______ _______ _____ _____    ______ ____
ROOT
ATOM     13  C   UNL     1      49.500   5.563  19.692  0.00  0.00    +0.000 A 
ATOM     14  C   UNL     1      48.142   5.833  19.472  0.00  0.00    +0.000 A 
ATOM     15  C   UNL     1      47.434   5.159  18.470  0.00  0.00    +0.000 A 
ATOM     16  C   UNL     1      48.064   4.191  17.679  0.00  0.00    +0.000 A 
ATOM     31  C   UNL     1      49.418   3.909  17.911  0.00  0.00    +0.000 A 
ATOM     32  C   UNL     1      50.125   4.581  18.913  0.00  0.00    +0.000 A 
ENDROOT
BRANCH  13  12
ATOM     12  C   UNL     1      50.291   6.331  20.736  0.00  0.00    +0.000 C 
BRANCH  12   9
ATOM      9  N   UNL     1      50.890   7.580  20.236  0.00  0.00    +0.000 NA
BRANCH   9  10
ATOM     10  C   UNL     1      52.352   7.594  20.431  0.00  0.00    +0.000 C 
ATOM     11  C   UNL     1      53.168   8.443  19.457  0.00  0.00    +0.000 C 
ENDBRANCH   9  10
BRANCH   9   8
ATOM      8  C   UNL     1      50.197   8.754  20.796  0.00  0.00    +0.000 C 
BRANCH   8   7
ATOM      7  C   UNL     1      49.610   9.660  19.717  0.00  0.00    +0.000 C 
BRANCH   7   6
ATOM      6  C   UNL     1      48.119   9.418  19.513  0.00  0.00    +0.000 C 
BRANCH   6   5
ATOM      5  C   UNL     1      47.871   9.174  18.028  0.00  0.00    +0.000 C 
BRANCH   5   4
ATOM      4  C   UNL     1      49.150   8.798  17.300  0.00  0.00    +0.000 C 
BRANCH   4   3
ATOM      3  C   UNL     1      48.824   8.208  15.931  0.00  0.00    +0.000 C 
BRANCH   3   2
ATOM      1  C   UNL     1      50.962   6.907  16.139  0.00  0.00    +0.000 C 
ATOM      2  C   UNL     1      49.494   6.850  15.761  0.00  0.00    +0.000 C 
ENDBRANCH   3   2
ENDBRANCH   4   3
ENDBRANCH   5   4
ENDBRANCH   6   5
ENDBRANCH   7   6
ENDBRANCH   8   7
ENDBRANCH   9   8
ENDBRANCH  12   9
ENDBRANCH  13  12
BRANCH  16  17
ATOM     17  C   UNL     1      47.330   3.491  16.563  0.00  0.00    +0.000 C 
BRANCH  17  18
ATOM     18  N   UNL     1      46.765   4.443  15.641  0.00  0.00    +0.000 N 
ATOM     19  C   UNL     1      46.765   4.225  14.283  0.00  0.00    +0.000 C 
ATOM     20  O   UNL     1      47.229   3.202  13.784  0.00  0.00    +0.000 OA
ATOM     33  H   UNL     1      46.604   5.379  15.989  0.00  0.00    +0.000 HD
BRANCH  19  21
ATOM     21  C   UNL     1      46.115   5.254  13.463  0.00  0.00    +0.000 A 
ATOM     22  C   UNL     1      46.760   6.460  13.230  0.00  0.00    +0.000 A 
ATOM     23  S   UNL     1      45.891   7.511  12.202  0.00  0.00    +0.000 S 
ATOM     24  C   UNL     1      44.598   6.412  12.087  0.00  0.00    +0.000 A 
ATOM     25  N   UNL     1      43.487   6.718  11.358  0.00  0.00    +0.000 NA
ATOM     26  C   UNL     1      42.573   5.804  11.376  0.00  0.00    +0.000 A 
ATOM     27  N   UNL     1      42.667   4.615  12.048  0.00  0.00    +0.000 N 
ATOM     28  C   UNL     1      43.786   4.252  12.764  0.00  0.00    +0.000 A 
ATOM     29  O   UNL     1      43.862   3.155  13.309  0.00  0.00    +0.000 OA
ATOM     30  C   UNL     1      44.835   5.254  12.796  0.00  0.00    +0.000 A 
ATOM     34  H   UNL     1      41.926   3.936  12.010  0.00  0.00    +0.000 HD
ENDBRANCH  19  21
ENDBRANCH  17  18
ENDBRANCH  16  17
TORSDOF 13
ENDMDL
