MODEL 1
REMARK VINA RESULT:    -8.478      0.000      0.000
REMARK INTER + INTRA:         -10.756
REMARK INTER:                 -10.956
REMARK INTRA:                   0.201
REMARK UNBOUND:                 0.201
REMARK  Name = 
REMARK  5 active torsions:
REMARK  status: ('A' for Active; 'I' for Inactive)
REMARK    1  A    between atoms: C_2  and  C_18
REMARK    2  A    between atoms: N_3  and  C_4
REMARK    3  A    between atoms: C_4  and  C_5
REMARK    4  A    between atoms: C_8  and  C_9
REMARK    5  A    between atoms: C_9  and  N_10
REMARK                            x       y       z     vdW  Elec       q    Type
REMARK                         _______ _______ _______ _____ _____    ______ ____
ROOT
ATOM      1  O   UNL     1      49.231   6.723  13.674  0.00  0.00    +0.000 OA
ATOM      2  C   UNL     1      48.294   6.505  14.439  0.00  0.00    +0.000 C 
ATOM      3  N   UNL     1      46.988   6.532  14.014  0.00  0.00    +0.000 N 
ATOM     28  H   UNL     1      46.239   6.559  14.700  0.00  0.00    +0.000 HD
ENDROOT
BRANCH   2  18
ATOM     18  C   UNL     1      48.527   6.163  15.845  0.00  0.00    +0.000 A 
ATOM     19  C   UNL     1      49.066   7.111  16.705  0.00  0.00    +0.000 A 
ATOM     20  S   UNL     1      49.265   6.552  18.302  0.00  0.00    +0.000 S 
ATOM     21  C   UNL     1      48.592   5.037  17.914  0.00  0.00    +0.000 A 
ATOM     22  N   UNL     1      48.430   4.081  18.866  0.00  0.00    +0.000 NA
ATOM     23  C   UNL     1      47.875   2.993  18.443  0.00  0.00    +0.000 A 
ATOM     24  N   UNL     1      47.481   2.777  17.145  0.00  0.00    +0.000 N 
ATOM     25  C   UNL     1      47.666   3.699  16.141  0.00  0.00    +0.000 A 
ATOM     26  O   UNL     1      47.353   3.445  14.981  0.00  0.00    +0.000 OA
ATOM     27  C   UNL     1      48.252   4.949  16.576  0.00  0.00    +0.000 A 
ATOM     29  H   UNL     1      47.070   1.895  16.874  0.00  0.00    +0.000 HD
ENDBRANCH   2  18
BRANCH   3   4
ATOM      4  C   UNL     1      46.671   6.977  12.681  0.00  0.00    +0.000 C 
BRANCH   4   5
ATOM      5  C   UNL     1      46.030   5.895  11.857  0.00  0.00    +0.000 A 
ATOM      6  C   UNL     1      45.799   6.091  10.489  0.00  0.00    +0.000 A 
ATOM      7  C   UNL     1      45.260   5.070   9.703  0.00  0.00    +0.000 A 
ATOM      8  C   UNL     1      44.927   3.833  10.271  0.00  0.00    +0.000 A 
ATOM     16  C   UNL     1      45.113   3.654  11.649  0.00  0.00    +0.000 A 
ATOM     17  C   UNL     1      45.655   4.676  12.436  0.00  0.00    +0.000 A 
BRANCH   8   9
ATOM      9  C   UNL     1      44.340   2.728   9.418  0.00  0.00    +0.000 C 
BRANCH   9  10
ATOM     10  N   UNL     1      45.098   2.433   8.178  0.00  0.00    +0.000 NA
ATOM     11  C   UNL     1      45.777   3.643   7.682  0.00  0.00    +0.000 C 
ATOM     12  C   UNL     1      46.710   3.366   6.498  0.00  0.00    +0.000 C 
ATOM     13  C   UNL     1      47.723   2.285   6.842  0.00  0.00    +0.000 C 
ATOM     14  C   UNL     1      46.987   1.032   7.290  0.00  0.00    +0.000 C 
ATOM     15  C   UNL     1      46.045   1.338   8.455  0.00  0.00    +0.000 C 
ENDBRANCH   9  10
ENDBRANCH   8   9
ENDBRANCH   4   5
ENDBRANCH   3   4
TORSDOF 5
ENDMDL
MODEL 2
REMARK VINA RESULT:    -8.113      1.531      1.962
REMARK INTER + INTRA:         -10.284
REMARK INTER:                  -9.893
REMARK INTRA:                  -0.391
REMARK UNBOUND:                 0.201
REMARK  Name = 
REMARK  5 active torsions:
REMARK  status: ('A' for Active; 'I' for Inactive)
REMARK    1  A    between atoms: C_2  and  C_18
REMARK    2  A    between atoms: N_3  and  C_4
REMARK    3  A    between atoms: C_4  and  C_5
REMARK    4  A    between atoms: C_8  and  C_9
REMARK    5  A    between atoms: C_9  and  N_10
REMARK                            x       y       z     vdW  Elec       q    Type
REMARK                         _______ _______ _______ _____ _____    ______ ____
ROOT
ATOM      1  O   UNL     1      50.350   6.653  15.320  0.00  0.00    +0.000 OA
ATOM      2  C   UNL     1      49.214   6.762  15.775  0.00  0.00    +0.000 C 
ATOM      3  N   UNL     1      48.106   6.791  14.963  0.00  0.00    +0.000 N 
ATOM     28  H   UNL     1      47.215   7.092  15.345  0.00  0.00    +0.000 HD
ENDROOT
BRANCH   2  18
ATOM     18  C   UNL     1      48.979   6.827  17.221  0.00  0.00    +0.000 A 
ATOM     19  C   UNL     1      48.710   8.049  17.821  0.00  0.00    +0.000 A 
ATOM     20  S   UNL     1      48.456   7.946  19.502  0.00  0.00    +0.000 S 
ATOM     21  C   UNL     1      48.648   6.254  19.482  0.00  0.00    +0.000 A 
ATOM     22  N   UNL     1      48.508   5.522  20.618  0.00  0.00    +0.000 NA
ATOM     23  C   UNL     1      48.645   4.247  20.454  0.00  0.00    +0.000 A 
ATOM     24  N   UNL     1      48.922   3.645  19.251  0.00  0.00    +0.000 N 
ATOM     25  C   UNL     1      49.115   4.350  18.085  0.00  0.00    +0.000 A 
ATOM     26  O   UNL     1      49.419   3.779  17.041  0.00  0.00    +0.000 OA
ATOM     27  C   UNL     1      48.936   5.781  18.214  0.00  0.00    +0.000 A 
ATOM     29  H   UNL     1      49.036   2.643  19.193  0.00  0.00    +0.000 HD
ENDBRANCH   2  18
BRANCH   3   4
ATOM      4  C   UNL     1      48.260   6.854  13.532  0.00  0.00    +0.000 C 
BRANCH   4   5
ATOM      5  C   UNL     1      47.081   6.267  12.807  0.00  0.00    +0.000 A 
ATOM      6  C   UNL     1      46.436   6.997  11.800  0.00  0.00    +0.000 A 
ATOM      7  C   UNL     1      45.378   6.437  11.079  0.00  0.00    +0.000 A 
ATOM      8  C   UNL     1      44.933   5.138  11.360  0.00  0.00    +0.000 A 
ATOM     16  C   UNL     1      45.547   4.426  12.401  0.00  0.00    +0.000 A 
ATOM     17  C   UNL     1      46.608   4.987  13.120  0.00  0.00    +0.000 A 
BRANCH   8   9
ATOM      9  C   UNL     1      43.785   4.533  10.579  0.00  0.00    +0.000 C 
BRANCH   9  10
ATOM     10  N   UNL     1      44.190   3.744   9.391  0.00  0.00    +0.000 NA
ATOM     11  C   UNL     1      45.299   4.404   8.680  0.00  0.00    +0.000 C 
ATOM     12  C   UNL     1      45.873   3.555   7.541  0.00  0.00    +0.000 C 
ATOM     13  C   UNL     1      46.298   2.184   8.043  0.00  0.00    +0.000 C 
ATOM     14  C   UNL     1      45.114   1.506   8.714  0.00  0.00    +0.000 C 
ATOM     15  C   UNL     1      44.544   2.381   9.830  0.00  0.00    +0.000 C 
ENDBRANCH   9  10
ENDBRANCH   8   9
ENDBRANCH   4   5
ENDBRANCH   3   4
TORSDOF 5
ENDMDL
MODEL 3
REMARK VINA RESULT:    -7.882      4.196      8.969
REMARK INTER + INTRA:          -9.985
REMARK INTER:                  -9.638
REMARK INTRA:                  -0.348
REMARK UNBOUND:                 0.201
REMARK  Name = 
REMARK  5 active torsions:
REMARK  status: ('A' for Active; 'I' for Inactive)
REMARK    1  A    between atoms: C_2  and  C_18
REMARK    2  A    between atoms: N_3  and  C_4
REMARK    3  A    between atoms: C_4  and  C_5
REMARK    4  A    between atoms: C_8  and  C_9
REMARK    5  A    between atoms: C_9  and  N_10
REMARK                            x       y       z     vdW  Elec       q    Type
REMARK                         _______ _______ _______ _____ _____    ______ ____
ROOT
ATOM      1  O   UNL     1      47.246   3.144  14.078  0.00  0.00    +0.000 OA
ATOM      2  C   UNL     1      46.840   4.214  14.524  0.00  0.00    +0.000 C 
ATOM      3  N   UNL     1      46.839   4.487  15.870  0.00  0.00    +0.000 N 
ATOM     28  H   UNL     1      46.310   5.280  16.219  0.00  0.00    +0.000 HD
ENDROOT
BRANCH   2  18
ATOM     18  C   UNL     1      46.371   5.278  13.631  0.00  0.00    +0.000 A 
ATOM     19  C   UNL     1      47.216   6.332  13.310  0.00  0.00    +0.000 A 
ATOM     20  S   UNL     1      46.517   7.475  12.258  0.00  0.00    +0.000 S 
ATOM     21  C   UNL     1      45.074   6.578  12.154  0.00  0.00    +0.000 A 
ATOM     22  N   UNL     1      44.050   6.991  11.361  0.00  0.00    +0.000 NA
ATOM     23  C   UNL     1      43.030   6.198  11.348  0.00  0.00    +0.000 A 
ATOM     24  N   UNL     1      42.943   5.034  12.070  0.00  0.00    +0.000 N 
ATOM     25  C   UNL     1      43.935   4.600  12.918  0.00  0.00    +0.000 A 
ATOM     26  O   UNL     1      43.795   3.582  13.592  0.00  0.00    +0.000 OA
ATOM     27  C   UNL     1      45.115   5.439  12.938  0.00  0.00    +0.000 A 
ATOM     29  H   UNL     1      42.108   4.467  12.030  0.00  0.00    +0.000 HD
ENDBRANCH   2  18
BRANCH   3   4
ATOM      4  C   UNL     1      47.170   3.453  16.817  0.00  0.00    +0.000 C 
BRANCH   4   5
ATOM      5  C   UNL     1      48.645   3.393  17.101  0.00  0.00    +0.000 A 
ATOM      6  C   UNL     1      49.340   4.551  17.476  0.00  0.00    +0.000 A 
ATOM      7  C   UNL     1      50.698   4.494  17.800  0.00  0.00    +0.000 A 
ATOM      8  C   UNL     1      51.395   3.280  17.743  0.00  0.00    +0.000 A 
ATOM     16  C   UNL     1      50.711   2.131  17.321  0.00  0.00    +0.000 A 
ATOM     17  C   UNL     1      49.351   2.187  16.998  0.00  0.00    +0.000 A 
BRANCH   8   9
ATOM      9  C   UNL     1      52.867   3.221  18.093  0.00  0.00    +0.000 C 
BRANCH   9  10
ATOM     10  N   UNL     1      53.346   1.890  18.536  0.00  0.00    +0.000 NA
ATOM     11  C   UNL     1      53.625   1.023  17.378  0.00  0.00    +0.000 C 
ATOM     12  C   UNL     1      54.281  -0.306  17.765  0.00  0.00    +0.000 C 
ATOM     13  C   UNL     1      55.545  -0.075  18.579  0.00  0.00    +0.000 C 
ATOM     14  C   UNL     1      55.209   0.769  19.799  0.00  0.00    +0.000 C 
ATOM     15  C   UNL     1      54.535   2.078  19.389  0.00  0.00    +0.000 C 
ENDBRANCH   9  10
ENDBRANCH   8   9
ENDBRANCH   4   5
ENDBRANCH   3   4
TORSDOF 5
ENDMDL
MODEL 4
REMARK VINA RESULT:    -7.849      2.334      3.245
REMARK INTER + INTRA:          -9.943
REMARK INTER:                  -9.557
REMARK INTRA:                  -0.385
REMARK UNBOUND:                 0.201
REMARK  Name = 
REMARK  5 active torsions:
REMARK  status: ('A' for Active; 'I' for Inactive)
REMARK    1  A    between atoms: C_2  and  C_18
REMARK    2  A    between atoms: N_3  and  C_4
REMARK    3  A    between atoms: C_4  and  C_5
REMARK    4  A    between atoms: C_8  and  C_9
REMARK    5  A    between atoms: C_9  and  N_10
REMARK                            x       y       z     vdW  Elec       q    Type
REMARK                         _______ _______ _______ _____ _____    ______ ____
ROOT
ATOM      1  O   UNL     1      50.088   6.125  15.886  0.00  0.00    +0.000 OA
ATOM      2  C   UNL     1      48.929   6.370  16.214  0.00  0.00    +0.000 C 
ATOM      3  N   UNL     1      47.923   6.494  15.287  0.00  0.00    +0.000 N 
ATOM     28  H   UNL     1      47.035   6.900  15.565  0.00  0.00    +0.000 HD
ENDROOT
BRANCH   2  18
ATOM     18  C   UNL     1      48.553   6.502  17.625  0.00  0.00    +0.000 A 
ATOM     19  C   UNL     1      48.653   5.406  18.470  0.00  0.00    +0.000 A 
ATOM     20  S   UNL     1      48.183   5.734  20.075  0.00  0.00    +0.000 S 
ATOM     21  C   UNL     1      47.874   7.368  19.708  0.00  0.00    +0.000 A 
ATOM     22  N   UNL     1      47.472   8.235  20.673  0.00  0.00    +0.000 NA
ATOM     23  C   UNL     1      47.308   9.451  20.266  0.00  0.00    +0.000 A 
ATOM     24  N   UNL     1      47.501   9.868  18.972  0.00  0.00    +0.000 N 
ATOM     25  C   UNL     1      47.866   9.016  17.955  0.00  0.00    +0.000 A 
ATOM     26  O   UNL     1      47.971   9.416  16.798  0.00  0.00    +0.000 OA
ATOM     27  C   UNL     1      48.096   7.649  18.372  0.00  0.00    +0.000 A 
ATOM     29  H   UNL     1      47.338  10.830  18.713  0.00  0.00    +0.000 HD
ENDBRANCH   2  18
BRANCH   3   4
ATOM      4  C   UNL     1      48.233   6.498  13.880  0.00  0.00    +0.000 C 
BRANCH   4   5
ATOM      5  C   UNL     1      47.068   6.049  13.041  0.00  0.00    +0.000 A 
ATOM      6  C   UNL     1      46.746   6.729  11.859  0.00  0.00    +0.000 A 
ATOM      7  C   UNL     1      45.704   6.283  11.041  0.00  0.00    +0.000 A 
ATOM      8  C   UNL     1      44.952   5.155  11.396  0.00  0.00    +0.000 A 
ATOM     16  C   UNL     1      45.244   4.504  12.603  0.00  0.00    +0.000 A 
ATOM     17  C   UNL     1      46.289   4.949  13.420  0.00  0.00    +0.000 A 
BRANCH   8   9
ATOM      9  C   UNL     1      43.822   4.675  10.510  0.00  0.00    +0.000 C 
BRANCH   9  10
ATOM     10  N   UNL     1      44.250   3.869   9.341  0.00  0.00    +0.000 NA
ATOM     11  C   UNL     1      45.400   4.497   8.667  0.00  0.00    +0.000 C 
ATOM     12  C   UNL     1      45.993   3.627   7.553  0.00  0.00    +0.000 C 
ATOM     13  C   UNL     1      46.364   2.248   8.077  0.00  0.00    +0.000 C 
ATOM     14  C   UNL     1      45.140   1.605   8.708  0.00  0.00    +0.000 C 
ATOM     15  C   UNL     1      44.553   2.500   9.799  0.00  0.00    +0.000 C 
ENDBRANCH   9  10
ENDBRANCH   8   9
ENDBRANCH   4   5
ENDBRANCH   3   4
TORSDOF 5
ENDMDL
MODEL 5
REMARK VINA RESULT:    -7.777      2.301      3.910
REMARK INTER + INTRA:          -9.849
REMARK INTER:                  -9.388
REMARK INTRA:                  -0.461
REMARK UNBOUND:                 0.201
REMARK  Name = 
REMARK  5 active torsions:
REMARK  status: ('A' for Active; 'I' for Inactive)
REMARK    1  A    between atoms: C_2  and  C_18
REMARK    2  A    between atoms: N_3  and  C_4
REMARK    3  A    between atoms: C_4  and  C_5
REMARK    4  A    between atoms: C_8  and  C_9
REMARK    5  A    between atoms: C_9  and  N_10
REMARK                            x       y       z     vdW  Elec       q    Type
REMARK                         _______ _______ _______ _____ _____    ______ ____
ROOT
ATOM      1  O   UNL     1      48.782   5.467  15.775  0.00  0.00    +0.000 OA
ATOM      2  C   UNL     1      48.270   6.356  15.099  0.00  0.00    +0.000 C 
ATOM      3  N   UNL     1      47.197   6.118  14.276  0.00  0.00    +0.000 N 
ATOM     28  H   UNL     1      46.936   6.811  13.581  0.00  0.00    +0.000 HD
ENDROOT
BRANCH   2  18
ATOM     18  C   UNL     1      48.759   7.737  15.169  0.00  0.00    +0.000 A 
ATOM     19  C   UNL     1      48.724   8.420  16.378  0.00  0.00    +0.000 A 
ATOM     20  S   UNL     1      49.335  10.008  16.285  0.00  0.00    +0.000 S 
ATOM     21  C   UNL     1      49.713   9.824  14.635  0.00  0.00    +0.000 A 
ATOM     22  N   UNL     1      50.315  10.826  13.941  0.00  0.00    +0.000 NA
ATOM     23  C   UNL     1      50.577  10.540  12.709  0.00  0.00    +0.000 A 
ATOM     24  N   UNL     1      50.277   9.342  12.109  0.00  0.00    +0.000 N 
ATOM     25  C   UNL     1      49.629   8.318  12.760  0.00  0.00    +0.000 A 
ATOM     26  O   UNL     1      49.326   7.283  12.172  0.00  0.00    +0.000 OA
ATOM     27  C   UNL     1      49.347   8.579  14.155  0.00  0.00    +0.000 A 
ATOM     29  H   UNL     1      50.492   9.188  11.134  0.00  0.00    +0.000 HD
ENDBRANCH   2  18
BRANCH   3   4
ATOM      4  C   UNL     1      46.737   4.770  14.060  0.00  0.00    +0.000 C 
BRANCH   4   5
ATOM      5  C   UNL     1      46.062   4.606  12.727  0.00  0.00    +0.000 A 
ATOM      6  C   UNL     1      46.208   5.586  11.736  0.00  0.00    +0.000 A 
ATOM      7  C   UNL     1      45.635   5.415  10.473  0.00  0.00    +0.000 A 
ATOM      8  C   UNL     1      44.890   4.265  10.178  0.00  0.00    +0.000 A 
ATOM     16  C   UNL     1      44.703   3.307  11.186  0.00  0.00    +0.000 A 
ATOM     17  C   UNL     1      45.280   3.478  12.449  0.00  0.00    +0.000 A 
BRANCH   8   9
ATOM      9  C   UNL     1      44.267   4.082   8.810  0.00  0.00    +0.000 C 
BRANCH   9  10
ATOM     10  N   UNL     1      44.993   3.145   7.919  0.00  0.00    +0.000 NA
ATOM     11  C   UNL     1      46.100   3.831   7.231  0.00  0.00    +0.000 C 
ATOM     12  C   UNL     1      46.989   2.878   6.424  0.00  0.00    +0.000 C 
ATOM     13  C   UNL     1      47.517   1.752   7.300  0.00  0.00    +0.000 C 
ATOM     14  C   UNL     1      46.347   1.026   7.944  0.00  0.00    +0.000 C 
ATOM     15  C   UNL     1      45.461   2.000   8.722  0.00  0.00    +0.000 C 
ENDBRANCH   9  10
ENDBRANCH   8   9
ENDBRANCH   4   5
ENDBRANCH   3   4
TORSDOF 5
ENDMDL
MODEL 6
REMARK VINA RESULT:    -7.531      3.896      9.152
REMARK INTER + INTRA:          -9.531
REMARK INTER:                  -8.862
REMARK INTRA:                  -0.669
REMARK UNBOUND:                 0.201
REMARK  Name = 
REMARK  5 active torsions:
REMARK  status: ('A' for Active; 'I' for Inactive)
REMARK    1  A    between atoms: C_2  and  C_18
REMARK    2  A    between atoms: N_3  and  C_4
REMARK    3  A    between atoms: C_4  and  C_5
REMARK    4  A    between atoms: C_8  and  C_9
REMARK    5  A    between atoms: C_9  and  N_10
REMARK                            x       y       z     vdW  Elec       q    Type
REMARK                         _______ _______ _______ _____ _____    ______ ____
ROOT
ATOM      1  O   UNL     1      47.189   3.038  14.081  0.00  0.00    +0.000 OA
ATOM      2  C   UNL     1      46.817   4.120  14.527  0.00  0.00    +0.000 C 
ATOM      3  N   UNL     1      46.842   4.399  15.872  0.00  0.00    +0.000 N 
ATOM     28  H   UNL     1      46.338   5.207  16.224  0.00  0.00    +0.000 HD
ENDROOT
BRANCH   2  18
ATOM     18  C   UNL     1      46.362   5.191  13.636  0.00  0.00    +0.000 A 
ATOM     19  C   UNL     1      47.230   6.220  13.295  0.00  0.00    +0.000 A 
ATOM     20  S   UNL     1      46.544   7.376  12.248  0.00  0.00    +0.000 S 
ATOM     21  C   UNL     1      45.076   6.516  12.172  0.00  0.00    +0.000 A 
ATOM     22  N   UNL     1      44.052   6.952  11.393  0.00  0.00    +0.000 NA
ATOM     23  C   UNL     1      43.011   6.187  11.400  0.00  0.00    +0.000 A 
ATOM     24  N   UNL     1      42.904   5.029  12.131  0.00  0.00    +0.000 N 
ATOM     25  C   UNL     1      43.898   4.574  12.965  0.00  0.00    +0.000 A 
ATOM     26  O   UNL     1      43.742   3.564  13.647  0.00  0.00    +0.000 OA
ATOM     27  C   UNL     1      45.099   5.381  12.962  0.00  0.00    +0.000 A 
ATOM     29  H   UNL     1      42.054   4.484  12.108  0.00  0.00    +0.000 HD
ENDBRANCH   2  18
BRANCH   3   4
ATOM      4  C   UNL     1      47.160   3.362  16.820  0.00  0.00    +0.000 C 
BRANCH   4   5
ATOM      5  C   UNL     1      48.622   3.342  17.171  0.00  0.00    +0.000 A 
ATOM      6  C   UNL     1      49.388   2.190  16.945  0.00  0.00    +0.000 A 
ATOM      7  C   UNL     1      50.759   2.182  17.212  0.00  0.00    +0.000 A 
ATOM      8  C   UNL     1      51.393   3.321  17.725  0.00  0.00    +0.000 A 
ATOM     16  C   UNL     1      50.617   4.457  17.998  0.00  0.00    +0.000 A 
ATOM     17  C   UNL     1      49.245   4.466  17.728  0.00  0.00    +0.000 A 
BRANCH   8   9
ATOM      9  C   UNL     1      52.879   3.309  18.016  0.00  0.00    +0.000 C 
BRANCH   9  10
ATOM     10  N   UNL     1      53.489   4.650  18.184  0.00  0.00    +0.000 NA
ATOM     11  C   UNL     1      53.644   4.978  19.613  0.00  0.00    +0.000 C 
ATOM     12  C   UNL     1      54.420   6.277  19.851  0.00  0.00    +0.000 C 
ATOM     13  C   UNL     1      55.774   6.239  19.160  0.00  0.00    +0.000 C 
ATOM     14  C   UNL     1      55.573   5.962  17.678  0.00  0.00    +0.000 C 
ATOM     15  C   UNL     1      54.776   4.674  17.466  0.00  0.00    +0.000 C 
ENDBRANCH   9  10
ENDBRANCH   8   9
ENDBRANCH   4   5
ENDBRANCH   3   4
TORSDOF 5
ENDMDL
MODEL 7
REMARK VINA RESULT:    -7.447      3.586      8.221
REMARK INTER + INTRA:          -9.423
REMARK INTER:                  -8.635
REMARK INTRA:                  -0.788
REMARK UNBOUND:                 0.201
REMARK  Name = 
REMARK  5 active torsions:
REMARK  status: ('A' for Active; 'I' for Inactive)
REMARK    1  A    between atoms: C_2  and  C_18
REMARK    2  A    between atoms: N_3  and  C_4
REMARK    3  A    between atoms: C_4  and  C_5
REMARK    4  A    between atoms: C_8  and  C_9
REMARK    5  A    between atoms: C_9  and  N_10
REMARK                            x       y       z     vdW  Elec       q    Type
REMARK                         _______ _______ _______ _____ _____    ______ ____
ROOT
ATOM      1  O   UNL     1      49.057   6.522  12.913  0.00  0.00    +0.000 OA
ATOM      2  C   UNL     1      47.996   6.832  13.449  0.00  0.00    +0.000 C 
ATOM      3  N   UNL     1      47.954   7.565  14.610  0.00  0.00    +0.000 N 
ATOM     28  H   UNL     1      47.087   7.621  15.135  0.00  0.00    +0.000 HD
ENDROOT
BRANCH   2  18
ATOM     18  C   UNL     1      46.709   6.466  12.849  0.00  0.00    +0.000 A 
ATOM     19  C   UNL     1      45.931   7.440  12.239  0.00  0.00    +0.000 A 
ATOM     20  S   UNL     1      44.473   6.845  11.589  0.00  0.00    +0.000 S 
ATOM     21  C   UNL     1      44.851   5.252  12.057  0.00  0.00    +0.000 A 
ATOM     22  N   UNL     1      44.019   4.220  11.757  0.00  0.00    +0.000 NA
ATOM     23  C   UNL     1      44.445   3.061  12.139  0.00  0.00    +0.000 A 
ATOM     24  N   UNL     1      45.627   2.850  12.806  0.00  0.00    +0.000 N 
ATOM     25  C   UNL     1      46.477   3.869  13.168  0.00  0.00    +0.000 A 
ATOM     26  O   UNL     1      47.496   3.645  13.816  0.00  0.00    +0.000 OA
ATOM     27  C   UNL     1      46.058   5.183  12.729  0.00  0.00    +0.000 A 
ATOM     29  H   UNL     1      45.893   1.919  13.095  0.00  0.00    +0.000 HD
ENDBRANCH   2  18
BRANCH   3   4
ATOM      4  C   UNL     1      49.171   7.858  15.323  0.00  0.00    +0.000 C 
BRANCH   4   5
ATOM      5  C   UNL     1      49.649   6.688  16.138  0.00  0.00    +0.000 A 
ATOM      6  C   UNL     1      48.730   5.761  16.648  0.00  0.00    +0.000 A 
ATOM      7  C   UNL     1      49.168   4.637  17.355  0.00  0.00    +0.000 A 
ATOM      8  C   UNL     1      50.534   4.425  17.579  0.00  0.00    +0.000 A 
ATOM     16  C   UNL     1      51.450   5.378  17.111  0.00  0.00    +0.000 A 
ATOM     17  C   UNL     1      51.011   6.501  16.401  0.00  0.00    +0.000 A 
BRANCH   8   9
ATOM      9  C   UNL     1      51.007   3.208  18.347  0.00  0.00    +0.000 C 
BRANCH   9  10
ATOM     10  N   UNL     1      52.327   2.682  17.924  0.00  0.00    +0.000 NA
ATOM     11  C   UNL     1      53.333   2.886  18.981  0.00  0.00    +0.000 C 
ATOM     12  C   UNL     1      54.676   2.215  18.672  0.00  0.00    +0.000 C 
ATOM     13  C   UNL     1      54.492   0.733  18.385  0.00  0.00    +0.000 C 
ATOM     14  C   UNL     1      53.497   0.561  17.248  0.00  0.00    +0.000 C 
ATOM     15  C   UNL     1      52.175   1.259  17.569  0.00  0.00    +0.000 C 
ENDBRANCH   9  10
ENDBRANCH   8   9
ENDBRANCH   4   5
ENDBRANCH   3   4
TORSDOF 5
ENDMDL
MODEL 8
REMARK VINA RESULT:    -7.412      4.537      7.480
REMARK INTER + INTRA:          -9.377
REMARK INTER:                  -8.488
REMARK INTRA:                  -0.890
REMARK UNBOUND:                 0.201
REMARK  Name = 
REMARK  5 active torsions:
REMARK  status: ('A' for Active; 'I' for Inactive)
REMARK    1  A    between atoms: C_2  and  C_18
REMARK    2  A    between atoms: N_3  and  C_4
REMARK    3  A    between atoms: C_4  and  C_5
REMARK    4  A    between atoms: C_8  and  C_9
REMARK    5  A    between atoms: C_9  and  N_10
REMARK                            x       y       z     vdW  Elec       q    Type
REMARK                         _______ _______ _______ _____ _____    ______ ____
ROOT
ATOM      1  O   UNL     1      44.496   7.636  11.365  0.00  0.00    +0.000 OA
ATOM      2  C   UNL     1      44.975   6.699  11.999  0.00  0.00    +0.000 C 
ATOM      3  N   UNL     1      45.881   6.896  13.013  0.00  0.00    +0.000 N 
ATOM     28  H   UNL     1      46.411   6.107  13.370  0.00  0.00    +0.000 HD
ENDROOT
BRANCH   2  18
ATOM     18  C   UNL     1      44.570   5.316  11.730  0.00  0.00    +0.000 A 
ATOM     19  C   UNL     1      43.835   4.617  12.677  0.00  0.00    +0.000 A 
ATOM     20  S   UNL     1      43.442   3.028  12.203  0.00  0.00    +0.000 S 
ATOM     21  C   UNL     1      44.200   3.233  10.692  0.00  0.00    +0.000 A 
ATOM     22  N   UNL     1      44.190   2.240   9.765  0.00  0.00    +0.000 NA
ATOM     23  C   UNL     1      44.770   2.542   8.651  0.00  0.00    +0.000 A 
ATOM     24  N   UNL     1      45.370   3.749   8.390  0.00  0.00    +0.000 N 
ATOM     25  C   UNL     1      45.442   4.766   9.314  0.00  0.00    +0.000 A 
ATOM     26  O   UNL     1      46.038   5.811   9.063  0.00  0.00    +0.000 OA
ATOM     27  C   UNL     1      44.773   4.486  10.567  0.00  0.00    +0.000 A 
ATOM     29  H   UNL     1      45.824   3.916   7.504  0.00  0.00    +0.000 HD
ENDBRANCH   2  18
BRANCH   3   4
ATOM      4  C   UNL     1      46.418   8.210  13.257  0.00  0.00    +0.000 C 
BRANCH   4   5
ATOM      5  C   UNL     1      47.777   8.392  12.639  0.00  0.00    +0.000 A 
ATOM      6  C   UNL     1      48.682   7.322  12.595  0.00  0.00    +0.000 A 
ATOM      7  C   UNL     1      49.923   7.463  11.969  0.00  0.00    +0.000 A 
ATOM      8  C   UNL     1      50.293   8.683  11.387  0.00  0.00    +0.000 A 
ATOM     16  C   UNL     1      49.408   9.767  11.474  0.00  0.00    +0.000 A 
ATOM     17  C   UNL     1      48.164   9.624  12.098  0.00  0.00    +0.000 A 
BRANCH   8   9
ATOM      9  C   UNL     1      51.640   8.835  10.711  0.00  0.00    +0.000 C 
BRANCH   9  10
ATOM     10  N   UNL     1      52.431   7.585  10.615  0.00  0.00    +0.000 NA
ATOM     11  C   UNL     1      52.549   7.149   9.213  0.00  0.00    +0.000 C 
ATOM     12  C   UNL     1      53.494   5.956   9.031  0.00  0.00    +0.000 C 
ATOM     13  C   UNL     1      54.865   6.252   9.618  0.00  0.00    +0.000 C 
ATOM     14  C   UNL     1      54.712   6.637  11.082  0.00  0.00    +0.000 C 
ATOM     15  C   UNL     1      53.747   7.812  11.240  0.00  0.00    +0.000 C 
ENDBRANCH   9  10
ENDBRANCH   8   9
ENDBRANCH   4   5
ENDBRANCH   3   4
TORSDOF 5
ENDMDL
MODEL 9
REMARK VINA RESULT:    -7.293      2.642      3.628
REMARK INTER + INTRA:          -9.225
REMARK INTER:                  -8.289
REMARK INTRA:                  -0.935
REMARK UNBOUND:                 0.201
REMARK  Name = 
REMARK  5 active torsions:
REMARK  status: ('A' for Active; 'I' for Inactive)
REMARK    1  A    between atoms: C_2  and  C_18
REMARK    2  A    between atoms: N_3  and  C_4
REMARK    3  A    between atoms: C_4  and  C_5
REMARK    4  A    between atoms: C_8  and  C_9
REMARK    5  A    between atoms: C_9  and  N_10
REMARK                            x       y       z     vdW  Elec       q    Type
REMARK                         _______ _______ _______ _____ _____    ______ ____
ROOT
ATOM      1  O   UNL     1      48.357   8.774  16.250  0.00  0.00    +0.000 OA
ATOM      2  C   UNL     1      48.835   7.676  15.974  0.00  0.00    +0.000 C 
ATOM      3  N   UNL     1      49.270   7.372  14.707  0.00  0.00    +0.000 N 
ATOM     28  H   UNL     1      49.458   6.404  14.462  0.00  0.00    +0.000 HD
ENDROOT
BRANCH   2  18
ATOM     18  C   UNL     1      49.002   6.642  16.999  0.00  0.00    +0.000 A 
ATOM     19  C   UNL     1      49.681   6.940  18.173  0.00  0.00    +0.000 A 
ATOM     20  S   UNL     1      49.779   5.630  19.258  0.00  0.00    +0.000 S 
ATOM     21  C   UNL     1      48.874   4.630  18.218  0.00  0.00    +0.000 A 
ATOM     22  N   UNL     1      48.555   3.358  18.576  0.00  0.00    +0.000 NA
ATOM     23  C   UNL     1      47.835   2.724  17.710  0.00  0.00    +0.000 A 
ATOM     24  N   UNL     1      47.418   3.251  16.512  0.00  0.00    +0.000 N 
ATOM     25  C   UNL     1      47.754   4.516  16.091  0.00  0.00    +0.000 A 
ATOM     26  O   UNL     1      47.411   4.930  14.987  0.00  0.00    +0.000 OA
ATOM     27  C   UNL     1      48.531   5.278  17.046  0.00  0.00    +0.000 A 
ATOM     29  H   UNL     1      46.872   2.695  15.870  0.00  0.00    +0.000 HD
ENDBRANCH   2  18
BRANCH   3   4
ATOM      4  C   UNL     1      49.029   8.287  13.621  0.00  0.00    +0.000 C 
BRANCH   4   5
ATOM      5  C   UNL     1      47.727   8.010  12.922  0.00  0.00    +0.000 A 
ATOM      6  C   UNL     1      47.633   6.965  11.992  0.00  0.00    +0.000 A 
ATOM      7  C   UNL     1      46.413   6.661  11.383  0.00  0.00    +0.000 A 
ATOM      8  C   UNL     1      45.263   7.406  11.678  0.00  0.00    +0.000 A 
ATOM     16  C   UNL     1      45.369   8.482  12.570  0.00  0.00    +0.000 A 
ATOM     17  C   UNL     1      46.590   8.784  13.183  0.00  0.00    +0.000 A 
BRANCH   8   9
ATOM      9  C   UNL     1      43.943   7.076  11.014  0.00  0.00    +0.000 C 
BRANCH   9  10
ATOM     10  N   UNL     1      43.385   5.748  11.367  0.00  0.00    +0.000 NA
ATOM     11  C   UNL     1      43.952   4.698  10.502  0.00  0.00    +0.000 C 
ATOM     12  C   UNL     1      43.542   3.284  10.926  0.00  0.00    +0.000 C 
ATOM     13  C   UNL     1      43.895   3.027  12.383  0.00  0.00    +0.000 C 
ATOM     14  C   UNL     1      43.243   4.091  13.252  0.00  0.00    +0.000 C 
ATOM     15  C   UNL     1      43.647   5.493  12.796  0.00  0.00    +0.000 C 
ENDBRANCH   9  10
ENDBRANCH   8   9
ENDBRANCH   4   5
ENDBRANCH   3   4
TORSDOF 5
ENDMDL
