MODEL 1
REMARK VINA RESULT:    -7.186      0.000      0.000
REMARK INTER + INTRA:         -15.127
REMARK INTER:                 -12.226
REMARK INTRA:                  -2.900
REMARK UNBOUND:                -2.900
REMARK  Name = 
REMARK  13 active torsions:
REMARK  status: ('A' for Active; 'I' for Inactive)
REMARK    1  A    between atoms: C_1  and  C_2
REMARK    2  A    between atoms: C_2  and  C_3
REMARK    3  A    between atoms: C_3  and  C_4
REMARK    4  A    between atoms: C_4  and  C_5
REMARK    5  A    between atoms: C_5  and  C_6
REMARK    6  A    between atoms: C_6  and  N_7
REMARK    7  A    between atoms: N_7  and  C_8
REMARK    8  A    between atoms: N_7  and  C_15
REMARK    9  A    between atoms: C_8  and  C_9
REMARK   10  A    between atoms: C_15  and  C_16
REMARK   11  A    between atoms: C_19  and  C_20
REMARK   12  A    between atoms: C_20  and  N_21
REMARK   13  A    between atoms: C_22  and  C_24
REMARK                            x       y       z     vdW  Elec       q    Type
REMARK                         _______ _______ _______ _____ _____    ______ ____
ROOT
ATOM     16  C   UNL     1      45.602   6.900  11.354  0.00  0.00    +0.000 A 
ATOM     17  C   UNL     1      45.076   7.844  12.247  0.00  0.00    +0.000 A 
ATOM     18  C   UNL     1      45.910   8.512  13.148  0.00  0.00    +0.000 A 
ATOM     19  C   UNL     1      47.286   8.251  13.166  0.00  0.00    +0.000 A 
ATOM     34  C   UNL     1      47.813   7.322  12.259  0.00  0.00    +0.000 A 
ATOM     35  C   UNL     1      46.982   6.658  11.358  0.00  0.00    +0.000 A 
ENDROOT
BRANCH  16  15
ATOM     15  C   UNL     1      44.692   6.094  10.451  0.00  0.00    +0.000 C 
BRANCH  15   7
ATOM      7  N   UNL     1      45.044   4.657  10.346  0.00  0.00    +0.000 NA
BRANCH   7   6
ATOM      6  C   UNL     1      44.452   3.931  11.490  0.00  0.00    +0.000 C 
BRANCH   6   5
ATOM      5  C   UNL     1      45.423   3.400  12.547  0.00  0.00    +0.000 C 
BRANCH   5   4
ATOM      4  C   UNL     1      45.687   4.365  13.706  0.00  0.00    +0.000 C 
BRANCH   4   3
ATOM      3  C   UNL     1      47.097   4.120  14.247  0.00  0.00    +0.000 C 
BRANCH   3   2
ATOM      1  C   UNL     1      47.912   3.212  16.432  0.00  0.00    +0.000 C 
ATOM      2  C   UNL     1      47.205   4.372  15.747  0.00  0.00    +0.000 C 
ENDBRANCH   3   2
ENDBRANCH   4   3
ENDBRANCH   5   4
ENDBRANCH   6   5
ENDBRANCH   7   6
BRANCH   7   8
ATOM      8  C   UNL     1      44.572   4.119   9.048  0.00  0.00    +0.000 C 
BRANCH   8   9
ATOM      9  C   UNL     1      45.580   3.208   8.365  0.00  0.00    +0.000 A 
ATOM     10  C   UNL     1      46.454   3.716   7.391  0.00  0.00    +0.000 A 
ATOM     11  C   UNL     1      47.305   2.859   6.688  0.00  0.00    +0.000 A 
ATOM     12  C   UNL     1      47.301   1.493   6.958  0.00  0.00    +0.000 A 
ATOM     13  C   UNL     1      46.465   0.982   7.949  0.00  0.00    +0.000 A 
ATOM     14  C   UNL     1      45.613   1.835   8.654  0.00  0.00    +0.000 A 
ENDBRANCH   8   9
ENDBRANCH   7   8
ENDBRANCH  15   7
ENDBRANCH  16  15
BRANCH  19  20
ATOM     20  C   UNL     1      48.185   8.885  14.196  0.00  0.00    +0.000 C 
BRANCH  20  21
ATOM     21  N   UNL     1      48.375   7.997  15.317  0.00  0.00    +0.000 N 
ATOM     22  C   UNL     1      48.519   8.475  16.592  0.00  0.00    +0.000 C 
ATOM     23  O   UNL     1      48.474   9.676  16.846  0.00  0.00    +0.000 OA
ATOM     36  H   UNL     1      48.646   7.041  15.106  0.00  0.00    +0.000 HD
BRANCH  22  24
ATOM     24  C   UNL     1      48.659   7.473  17.655  0.00  0.00    +0.000 A 
ATOM     25  C   UNL     1      47.831   7.530  18.768  0.00  0.00    +0.000 A 
ATOM     26  S   UNL     1      48.089   6.263  19.879  0.00  0.00    +0.000 S 
ATOM     27  C   UNL     1      49.354   5.624  18.939  0.00  0.00    +0.000 A 
ATOM     28  N   UNL     1      50.041   4.522  19.346  0.00  0.00    +0.000 NA
ATOM     29  C   UNL     1      50.995   4.165  18.557  0.00  0.00    +0.000 A 
ATOM     30  N   UNL     1      51.325   4.806  17.390  0.00  0.00    +0.000 N 
ATOM     31  C   UNL     1      50.641   5.904  16.925  0.00  0.00    +0.000 A 
ATOM     32  O   UNL     1      50.938   6.434  15.856  0.00  0.00    +0.000 OA
ATOM     33  C   UNL     1      49.564   6.354  17.785  0.00  0.00    +0.000 A 
ATOM     37  H   UNL     1      52.080   4.471  16.810  0.00  0.00    +0.000 HD
ENDBRANCH  22  24
ENDBRANCH  20  21
ENDBRANCH  19  20
TORSDOF 12
ENDMDL
MODEL 2
REMARK VINA RESULT:    -6.990      1.451      2.263
REMARK INTER + INTRA:         -14.794
REMARK INTER:                 -12.308
REMARK INTRA:                  -2.486
REMARK UNBOUND:                -2.900
REMARK  Name = 
REMARK  13 active torsions:
REMARK  status: ('A' for Active; 'I' for Inactive)
REMARK    1  A    between atoms: C_1  and  C_2
REMARK    2  A    between atoms: C_2  and  C_3
REMARK    3  A    between atoms: C_3  and  C_4
REMARK    4  A    between atoms: C_4  and  C_5
REMARK    5  A    between atoms: C_5  and  C_6
REMARK    6  A    between atoms: C_6  and  N_7
REMARK    7  A    between atoms: N_7  and  C_8
REMARK    8  A    between atoms: N_7  and  C_15
REMARK    9  A    between atoms: C_8  and  C_9
REMARK   10  A    between atoms: C_15  and  C_16
REMARK   11  A    between atoms: C_19  and  C_20
REMARK   12  A    between atoms: C_20  and  N_21
REMARK   13  A    between atoms: C_22  and  C_24
REMARK                            x       y       z     vdW  Elec       q    Type
REMARK                         _______ _______ _______ _____ _____    ______ ____
ROOT
ATOM     16  C   UNL     1      45.181   6.470  11.122  0.00  0.00    +0.000 A 
ATOM     17  C   UNL     1      44.738   7.410  12.063  0.00  0.00    +0.000 A 
ATOM     18  C   UNL     1      45.651   8.094  12.869  0.00  0.00    +0.000 A 
ATOM     19  C   UNL     1      47.025   7.854  12.743  0.00  0.00    +0.000 A 
ATOM     34  C   UNL     1      47.468   6.928  11.789  0.00  0.00    +0.000 A 
ATOM     35  C   UNL     1      46.557   6.248  10.982  0.00  0.00    +0.000 A 
ENDROOT
BRANCH  16  15
ATOM     15  C   UNL     1      44.193   5.646  10.322  0.00  0.00    +0.000 C 
BRANCH  15   7
ATOM      7  N   UNL     1      44.645   4.266  10.019  0.00  0.00    +0.000 NA
BRANCH   7   6
ATOM      6  C   UNL     1      43.832   3.311  10.802  0.00  0.00    +0.000 C 
BRANCH   6   5
ATOM      5  C   UNL     1      43.307   3.798  12.155  0.00  0.00    +0.000 C 
BRANCH   5   4
ATOM      4  C   UNL     1      44.363   3.849  13.262  0.00  0.00    +0.000 C 
BRANCH   4   3
ATOM      3  C   UNL     1      45.645   3.183  12.759  0.00  0.00    +0.000 C 
BRANCH   3   2
ATOM      1  C   UNL     1      46.538   4.669  14.565  0.00  0.00    +0.000 C 
ATOM      2  C   UNL     1      46.863   3.532  13.607  0.00  0.00    +0.000 C 
ENDBRANCH   3   2
ENDBRANCH   4   3
ENDBRANCH   5   4
ENDBRANCH   6   5
ENDBRANCH   7   6
BRANCH   7   8
ATOM      8  C   UNL     1      44.541   4.014   8.562  0.00  0.00    +0.000 C 
BRANCH   8   9
ATOM      9  C   UNL     1      45.653   3.133   8.017  0.00  0.00    +0.000 A 
ATOM     10  C   UNL     1      46.560   3.632   7.070  0.00  0.00    +0.000 A 
ATOM     11  C   UNL     1      47.514   2.792   6.490  0.00  0.00    +0.000 A 
ATOM     12  C   UNL     1      47.581   1.451   6.859  0.00  0.00    +0.000 A 
ATOM     13  C   UNL     1      46.711   0.951   7.827  0.00  0.00    +0.000 A 
ATOM     14  C   UNL     1      45.756   1.788   8.408  0.00  0.00    +0.000 A 
ENDBRANCH   8   9
ENDBRANCH   7   8
ENDBRANCH  15   7
ENDBRANCH  16  15
BRANCH  19  20
ATOM     20  C   UNL     1      48.018   8.505  13.671  0.00  0.00    +0.000 C 
BRANCH  20  21
ATOM     21  N   UNL     1      47.966   7.895  14.977  0.00  0.00    +0.000 N 
ATOM     22  C   UNL     1      49.011   7.157  15.464  0.00  0.00    +0.000 C 
ATOM     23  O   UNL     1      50.047   6.994  14.824  0.00  0.00    +0.000 OA
ATOM     36  H   UNL     1      47.052   7.819  15.413  0.00  0.00    +0.000 HD
BRANCH  22  24
ATOM     24  C   UNL     1      48.860   6.625  16.823  0.00  0.00    +0.000 A 
ATOM     25  C   UNL     1      49.165   5.295  17.080  0.00  0.00    +0.000 A 
ATOM     26  S   UNL     1      48.987   4.854  18.717  0.00  0.00    +0.000 S 
ATOM     27  C   UNL     1      48.442   6.411  19.132  0.00  0.00    +0.000 A 
ATOM     28  N   UNL     1      48.082   6.709  20.411  0.00  0.00    +0.000 NA
ATOM     29  C   UNL     1      47.656   7.914  20.579  0.00  0.00    +0.000 A 
ATOM     30  N   UNL     1      47.561   8.854  19.586  0.00  0.00    +0.000 N 
ATOM     31  C   UNL     1      47.940   8.608  18.288  0.00  0.00    +0.000 A 
ATOM     32  O   UNL     1      47.877   9.484  17.428  0.00  0.00    +0.000 OA
ATOM     33  C   UNL     1      48.415   7.260  18.043  0.00  0.00    +0.000 A 
ATOM     37  H   UNL     1      47.227   9.786  19.784  0.00  0.00    +0.000 HD
ENDBRANCH  22  24
ENDBRANCH  20  21
ENDBRANCH  19  20
TORSDOF 12
ENDMDL
MODEL 3
REMARK VINA RESULT:    -6.230      2.063      2.850
REMARK INTER + INTRA:         -13.501
REMARK INTER:                 -11.019
REMARK INTRA:                  -2.482
REMARK UNBOUND:                -2.900
REMARK  Name = 
REMARK  13 active torsions:
REMARK  status: ('A' for Active; 'I' for Inactive)
REMARK    1  A    between atoms: C_1  and  C_2
REMARK    2  A    between atoms: C_2  and  C_3
REMARK    3  A    between atoms: C_3  and  C_4
REMARK    4  A    between atoms: C_4  and  C_5
REMARK    5  A    between atoms: C_5  and  C_6
REMARK    6  A    between atoms: C_6  and  N_7
REMARK    7  A    between atoms: N_7  and  C_8
REMARK    8  A    between atoms: N_7  and  C_15
REMARK    9  A    between atoms: C_8  and  C_9
REMARK   10  A    between atoms: C_15  and  C_16
REMARK   11  A    between atoms: C_19  and  C_20
REMARK   12  A    between atoms: C_20  and  N_21
REMARK   13  A    between atoms: C_22  and  C_24
REMARK                            x       y       z     vdW  Elec       q    Type
REMARK                         _______ _______ _______ _____ _____    ______ ____
ROOT
ATOM     16  C   UNL     1      46.314   7.124  11.958  0.00  0.00    +0.000 A 
ATOM     17  C   UNL     1      47.569   7.079  11.337  0.00  0.00    +0.000 A 
ATOM     18  C   UNL     1      48.617   7.885  11.791  0.00  0.00    +0.000 A 
ATOM     19  C   UNL     1      48.427   8.746  12.880  0.00  0.00    +0.000 A 
ATOM     34  C   UNL     1      47.177   8.775  13.512  0.00  0.00    +0.000 A 
ATOM     35  C   UNL     1      46.133   7.968  13.062  0.00  0.00    +0.000 A 
ENDROOT
BRANCH  16  15
ATOM     15  C   UNL     1      45.144   6.336  11.405  0.00  0.00    +0.000 C 
BRANCH  15   7
ATOM      7  N   UNL     1      45.377   4.875  11.305  0.00  0.00    +0.000 NA
BRANCH   7   6
ATOM      6  C   UNL     1      45.191   4.266  12.639  0.00  0.00    +0.000 C 
BRANCH   6   5
ATOM      5  C   UNL     1      46.451   3.769  13.352  0.00  0.00    +0.000 C 
BRANCH   5   4
ATOM      4  C   UNL     1      46.814   4.553  14.616  0.00  0.00    +0.000 C 
BRANCH   4   3
ATOM      3  C   UNL     1      47.492   3.610  15.611  0.00  0.00    +0.000 C 
BRANCH   3   2
ATOM      1  C   UNL     1      48.011   3.114  18.009  0.00  0.00    +0.000 C 
ATOM      2  C   UNL     1      47.153   3.939  17.061  0.00  0.00    +0.000 C 
ENDBRANCH   3   2
ENDBRANCH   4   3
ENDBRANCH   5   4
ENDBRANCH   6   5
ENDBRANCH   7   6
BRANCH   7   8
ATOM      8  C   UNL     1      44.461   4.289  10.298  0.00  0.00    +0.000 C 
BRANCH   8   9
ATOM      9  C   UNL     1      45.179   3.565   9.171  0.00  0.00    +0.000 A 
ATOM     10  C   UNL     1      45.266   2.165   9.164  0.00  0.00    +0.000 A 
ATOM     11  C   UNL     1      46.018   1.506   8.187  0.00  0.00    +0.000 A 
ATOM     12  C   UNL     1      46.677   2.237   7.201  0.00  0.00    +0.000 A 
ATOM     13  C   UNL     1      46.567   3.627   7.174  0.00  0.00    +0.000 A 
ATOM     14  C   UNL     1      45.817   4.288   8.150  0.00  0.00    +0.000 A 
ENDBRANCH   8   9
ENDBRANCH   7   8
ENDBRANCH  15   7
ENDBRANCH  16  15
BRANCH  19  20
ATOM     20  C   UNL     1      49.511   9.694  13.320  0.00  0.00    +0.000 C 
BRANCH  20  21
ATOM     21  N   UNL     1      50.324   9.092  14.349  0.00  0.00    +0.000 N 
ATOM     22  C   UNL     1      51.525   8.502  14.058  0.00  0.00    +0.000 C 
ATOM     23  O   UNL     1      51.977   8.475  12.917  0.00  0.00    +0.000 OA
ATOM     36  H   UNL     1      49.872   8.898  15.238  0.00  0.00    +0.000 HD
BRANCH  22  24
ATOM     24  C   UNL     1      52.282   7.965  15.195  0.00  0.00    +0.000 A 
ATOM     25  C   UNL     1      53.588   8.384  15.412  0.00  0.00    +0.000 A 
ATOM     26  S   UNL     1      54.303   7.706  16.802  0.00  0.00    +0.000 S 
ATOM     27  C   UNL     1      52.913   6.784  17.134  0.00  0.00    +0.000 A 
ATOM     28  N   UNL     1      52.871   5.940  18.200  0.00  0.00    +0.000 NA
ATOM     29  C   UNL     1      51.770   5.278  18.314  0.00  0.00    +0.000 A 
ATOM     30  N   UNL     1      50.702   5.386  17.462  0.00  0.00    +0.000 N 
ATOM     31  C   UNL     1      50.689   6.245  16.390  0.00  0.00    +0.000 A 
ATOM     32  O   UNL     1      49.700   6.346  15.665  0.00  0.00    +0.000 OA
ATOM     33  C   UNL     1      51.911   7.006  16.209  0.00  0.00    +0.000 A 
ATOM     37  H   UNL     1      49.863   4.845  17.611  0.00  0.00    +0.000 HD
ENDBRANCH  22  24
ENDBRANCH  20  21
ENDBRANCH  19  20
TORSDOF 12
ENDMDL
MODEL 4
REMARK VINA RESULT:    -6.188      2.942      8.857
REMARK INTER + INTRA:         -13.429
REMARK INTER:                 -10.616
REMARK INTRA:                  -2.813
REMARK UNBOUND:                -2.900
REMARK  Name = 
REMARK  13 active torsions:
REMARK  status: ('A' for Active; 'I' for Inactive)
REMARK    1  A    between atoms: C_1  and  C_2
REMARK    2  A    between atoms: C_2  and  C_3
REMARK    3  A    between atoms: C_3  and  C_4
REMARK    4  A    between atoms: C_4  and  C_5
REMARK    5  A    between atoms: C_5  and  C_6
REMARK    6  A    between atoms: C_6  and  N_7
REMARK    7  A    between atoms: N_7  and  C_8
REMARK    8  A    between atoms: N_7  and  C_15
REMARK    9  A    between atoms: C_8  and  C_9
REMARK   10  A    between atoms: C_15  and  C_16
REMARK   11  A    between atoms: C_19  and  C_20
REMARK   12  A    between atoms: C_20  and  N_21
REMARK   13  A    between atoms: C_22  and  C_24
REMARK                            x       y       z     vdW  Elec       q    Type
REMARK                         _______ _______ _______ _____ _____    ______ ____
ROOT
ATOM     16  C   UNL     1      50.572   7.410  15.181  0.00  0.00    +0.000 A 
ATOM     17  C   UNL     1      50.920   8.129  14.030  0.00  0.00    +0.000 A 
ATOM     18  C   UNL     1      49.996   8.311  12.998  0.00  0.00    +0.000 A 
ATOM     19  C   UNL     1      48.704   7.780  13.103  0.00  0.00    +0.000 A 
ATOM     34  C   UNL     1      48.351   7.077  14.263  0.00  0.00    +0.000 A 
ATOM     35  C   UNL     1      49.272   6.899  15.295  0.00  0.00    +0.000 A 
ENDROOT
BRANCH  16  15
ATOM     15  C   UNL     1      51.600   7.116  16.254  0.00  0.00    +0.000 C 
BRANCH  15   7
ATOM      7  N   UNL     1      51.100   6.283  17.375  0.00  0.00    +0.000 NA
BRANCH   7   6
ATOM      6  C   UNL     1      51.947   5.077  17.494  0.00  0.00    +0.000 C 
BRANCH   6   5
ATOM      5  C   UNL     1      51.225   3.729  17.546  0.00  0.00    +0.000 C 
BRANCH   5   4
ATOM      4  C   UNL     1      49.788   3.800  18.068  0.00  0.00    +0.000 C 
BRANCH   4   3
ATOM      3  C   UNL     1      48.894   2.922  17.191  0.00  0.00    +0.000 C 
BRANCH   3   2
ATOM      1  C   UNL     1      47.159   4.676  17.613  0.00  0.00    +0.000 C 
ATOM      2  C   UNL     1      47.409   3.189  17.407  0.00  0.00    +0.000 C 
ENDBRANCH   3   2
ENDBRANCH   4   3
ENDBRANCH   5   4
ENDBRANCH   6   5
ENDBRANCH   7   6
BRANCH   7   8
ATOM      8  C   UNL     1      51.093   7.078  18.626  0.00  0.00    +0.000 C 
BRANCH   8   9
ATOM      9  C   UNL     1      49.735   7.672  18.961  0.00  0.00    +0.000 A 
ATOM     10  C   UNL     1      48.885   7.036  19.879  0.00  0.00    +0.000 A 
ATOM     11  C   UNL     1      47.595   7.523  20.105  0.00  0.00    +0.000 A 
ATOM     12  C   UNL     1      47.147   8.656  19.429  0.00  0.00    +0.000 A 
ATOM     13  C   UNL     1      47.995   9.319  18.544  0.00  0.00    +0.000 A 
ATOM     14  C   UNL     1      49.284   8.834  18.315  0.00  0.00    +0.000 A 
ENDBRANCH   8   9
ENDBRANCH   7   8
ENDBRANCH  15   7
ENDBRANCH  16  15
BRANCH  19  20
ATOM     20  C   UNL     1      47.726   7.877  11.961  0.00  0.00    +0.000 C 
BRANCH  20  21
ATOM     21  N   UNL     1      47.011   6.635  11.799  0.00  0.00    +0.000 N 
ATOM     22  C   UNL     1      45.646   6.578  11.886  0.00  0.00    +0.000 C 
ATOM     23  O   UNL     1      44.965   7.580  12.085  0.00  0.00    +0.000 OA
ATOM     36  H   UNL     1      47.554   5.779  11.869  0.00  0.00    +0.000 HD
BRANCH  22  24
ATOM     24  C   UNL     1      45.029   5.266  11.659  0.00  0.00    +0.000 A 
ATOM     25  C   UNL     1      44.364   4.629  12.697  0.00  0.00    +0.000 A 
ATOM     26  S   UNL     1      43.660   3.142  12.251  0.00  0.00    +0.000 S 
ATOM     27  C   UNL     1      44.266   3.270  10.667  0.00  0.00    +0.000 A 
ATOM     28  N   UNL     1      44.043   2.288   9.750  0.00  0.00    +0.000 NA
ATOM     29  C   UNL     1      44.587   2.497   8.601  0.00  0.00    +0.000 A 
ATOM     30  N   UNL     1      45.331   3.602   8.278  0.00  0.00    +0.000 N 
ATOM     31  C   UNL     1      45.559   4.631   9.161  0.00  0.00    +0.000 A 
ATOM     32  O   UNL     1      46.200   5.626   8.829  0.00  0.00    +0.000 OA
ATOM     33  C   UNL     1      44.977   4.438  10.475  0.00  0.00    +0.000 A 
ATOM     37  H   UNL     1      45.724   3.711   7.355  0.00  0.00    +0.000 HD
ENDBRANCH  22  24
ENDBRANCH  20  21
ENDBRANCH  19  20
TORSDOF 12
ENDMDL
MODEL 5
REMARK VINA RESULT:    -6.155      3.000      8.397
REMARK INTER + INTRA:         -13.373
REMARK INTER:                 -10.326
REMARK INTRA:                  -3.047
REMARK UNBOUND:                -2.900
REMARK  Name = 
REMARK  13 active torsions:
REMARK  status: ('A' for Active; 'I' for Inactive)
REMARK    1  A    between atoms: C_1  and  C_2
REMARK    2  A    between atoms: C_2  and  C_3
REMARK    3  A    between atoms: C_3  and  C_4
REMARK    4  A    between atoms: C_4  and  C_5
REMARK    5  A    between atoms: C_5  and  C_6
REMARK    6  A    between atoms: C_6  and  N_7
REMARK    7  A    between atoms: N_7  and  C_8
REMARK    8  A    between atoms: N_7  and  C_15
REMARK    9  A    between atoms: C_8  and  C_9
REMARK   10  A    between atoms: C_15  and  C_16
REMARK   11  A    between atoms: C_19  and  C_20
REMARK   12  A    between atoms: C_20  and  N_21
REMARK   13  A    between atoms: C_22  and  C_24
REMARK                            x       y       z     vdW  Elec       q    Type
REMARK                         _______ _______ _______ _____ _____    ______ ____
ROOT
ATOM     16  C   UNL     1      49.402   8.192  15.587  0.00  0.00    +0.000 A 
ATOM     17  C   UNL     1      48.248   8.949  15.340  0.00  0.00    +0.000 A 
ATOM     18  C   UNL     1      47.578   8.848  14.118  0.00  0.00    +0.000 A 
ATOM     19  C   UNL     1      48.050   7.983  13.122  0.00  0.00    +0.000 A 
ATOM     34  C   UNL     1      49.193   7.213  13.377  0.00  0.00    +0.000 A 
ATOM     35  C   UNL     1      49.858   7.311  14.598  0.00  0.00    +0.000 A 
ENDROOT
BRANCH  16  15
ATOM     15  C   UNL     1      50.193   8.377  16.865  0.00  0.00    +0.000 C 
BRANCH  15   7
ATOM      7  N   UNL     1      50.451   7.124  17.616  0.00  0.00    +0.000 NA
BRANCH   7   6
ATOM      6  C   UNL     1      51.642   7.313  18.472  0.00  0.00    +0.000 C 
BRANCH   6   5
ATOM      5  C   UNL     1      52.634   6.149  18.540  0.00  0.00    +0.000 C 
BRANCH   5   4
ATOM      4  C   UNL     1      52.451   5.096  17.444  0.00  0.00    +0.000 C 
BRANCH   4   3
ATOM      3  C   UNL     1      52.308   3.719  18.094  0.00  0.00    +0.000 C 
BRANCH   3   2
ATOM      1  C   UNL     1      51.788   1.345  17.494  0.00  0.00    +0.000 C 
ATOM      2  C   UNL     1      51.369   2.797  17.323  0.00  0.00    +0.000 C 
ENDBRANCH   3   2
ENDBRANCH   4   3
ENDBRANCH   5   4
ENDBRANCH   6   5
ENDBRANCH   7   6
BRANCH   7   8
ATOM      8  C   UNL     1      49.254   6.761  18.411  0.00  0.00    +0.000 C 
BRANCH   8   9
ATOM      9  C   UNL     1      48.708   5.379  18.089  0.00  0.00    +0.000 A 
ATOM     10  C   UNL     1      48.225   5.084  16.806  0.00  0.00    +0.000 A 
ATOM     11  C   UNL     1      47.625   3.850  16.540  0.00  0.00    +0.000 A 
ATOM     12  C   UNL     1      47.513   2.895  17.549  0.00  0.00    +0.000 A 
ATOM     13  C   UNL     1      48.024   3.162  18.818  0.00  0.00    +0.000 A 
ATOM     14  C   UNL     1      48.624   4.394  19.087  0.00  0.00    +0.000 A 
ENDBRANCH   8   9
ENDBRANCH   7   8
ENDBRANCH  15   7
ENDBRANCH  16  15
BRANCH  19  20
ATOM     20  C   UNL     1      47.404   7.935  11.762  0.00  0.00    +0.000 C 
BRANCH  20  21
ATOM     21  N   UNL     1      46.745   6.667  11.560  0.00  0.00    +0.000 N 
ATOM     22  C   UNL     1      45.382   6.550  11.627  0.00  0.00    +0.000 C 
ATOM     23  O   UNL     1      44.656   7.516  11.842  0.00  0.00    +0.000 OA
ATOM     36  H   UNL     1      47.324   5.834  11.615  0.00  0.00    +0.000 HD
BRANCH  22  24
ATOM     24  C   UNL     1      44.826   5.219  11.358  0.00  0.00    +0.000 A 
ATOM     25  C   UNL     1      44.055   4.588  12.324  0.00  0.00    +0.000 A 
ATOM     26  S   UNL     1      43.442   3.075  11.831  0.00  0.00    +0.000 S 
ATOM     27  C   UNL     1      44.232   3.185  10.329  0.00  0.00    +0.000 A 
ATOM     28  N   UNL     1      44.142   2.179   9.415  0.00  0.00    +0.000 NA
ATOM     29  C   UNL     1      44.816   2.377   8.335  0.00  0.00    +0.000 A 
ATOM     30  N   UNL     1      45.570   3.493   8.078  0.00  0.00    +0.000 N 
ATOM     31  C   UNL     1      45.667   4.545   8.957  0.00  0.00    +0.000 A 
ATOM     32  O   UNL     1      46.322   5.548   8.681  0.00  0.00    +0.000 OA
ATOM     33  C   UNL     1      44.935   4.366  10.196  0.00  0.00    +0.000 A 
ATOM     37  H   UNL     1      46.069   3.593   7.206  0.00  0.00    +0.000 HD
ENDBRANCH  22  24
ENDBRANCH  20  21
ENDBRANCH  19  20
TORSDOF 12
ENDMDL
MODEL 6
REMARK VINA RESULT:    -6.085      2.265      3.946
REMARK INTER + INTRA:         -13.254
REMARK INTER:                 -11.799
REMARK INTRA:                  -1.455
REMARK UNBOUND:                -2.900
REMARK  Name = 
REMARK  13 active torsions:
REMARK  status: ('A' for Active; 'I' for Inactive)
REMARK    1  A    between atoms: C_1  and  C_2
REMARK    2  A    between atoms: C_2  and  C_3
REMARK    3  A    between atoms: C_3  and  C_4
REMARK    4  A    between atoms: C_4  and  C_5
REMARK    5  A    between atoms: C_5  and  C_6
REMARK    6  A    between atoms: C_6  and  N_7
REMARK    7  A    between atoms: N_7  and  C_8
REMARK    8  A    between atoms: N_7  and  C_15
REMARK    9  A    between atoms: C_8  and  C_9
REMARK   10  A    between atoms: C_15  and  C_16
REMARK   11  A    between atoms: C_19  and  C_20
REMARK   12  A    between atoms: C_20  and  N_21
REMARK   13  A    between atoms: C_22  and  C_24
REMARK                            x       y       z     vdW  Elec       q    Type
REMARK                         _______ _______ _______ _____ _____    ______ ____
ROOT
ATOM     16  C   UNL     1      46.933   5.253  12.987  0.00  0.00    +0.000 A 
ATOM     17  C   UNL     1      47.860   6.279  12.759  0.00  0.00    +0.000 A 
ATOM     18  C   UNL     1      48.613   6.804  13.813  0.00  0.00    +0.000 A 
ATOM     19  C   UNL     1      48.454   6.306  15.113  0.00  0.00    +0.000 A 
ATOM     34  C   UNL     1      47.540   5.267  15.335  0.00  0.00    +0.000 A 
ATOM     35  C   UNL     1      46.792   4.740  14.283  0.00  0.00    +0.000 A 
ENDROOT
BRANCH  16  15
ATOM     15  C   UNL     1      46.036   4.754  11.872  0.00  0.00    +0.000 C 
BRANCH  15   7
ATOM      7  N   UNL     1      44.604   5.105  12.029  0.00  0.00    +0.000 NA
BRANCH   7   6
ATOM      6  C   UNL     1      44.496   6.532  12.400  0.00  0.00    +0.000 C 
BRANCH   6   5
ATOM      5  C   UNL     1      44.713   7.554  11.281  0.00  0.00    +0.000 C 
BRANCH   5   4
ATOM      4  C   UNL     1      44.720   9.011  11.748  0.00  0.00    +0.000 C 
BRANCH   4   3
ATOM      3  C   UNL     1      46.017   9.284  12.512  0.00  0.00    +0.000 C 
BRANCH   3   2
ATOM      1  C   UNL     1      48.328   9.921  11.792  0.00  0.00    +0.000 C 
ATOM      2  C   UNL     1      46.874  10.361  11.856  0.00  0.00    +0.000 C 
ENDBRANCH   3   2
ENDBRANCH   4   3
ENDBRANCH   5   4
ENDBRANCH   6   5
ENDBRANCH   7   6
BRANCH   7   8
ATOM      8  C   UNL     1      43.874   4.804  10.775  0.00  0.00    +0.000 C 
BRANCH   8   9
ATOM      9  C   UNL     1      44.685   3.992   9.779  0.00  0.00    +0.000 A 
ATOM     10  C   UNL     1      45.460   4.632   8.800  0.00  0.00    +0.000 A 
ATOM     11  C   UNL     1      46.120   3.887   7.818  0.00  0.00    +0.000 A 
ATOM     12  C   UNL     1      46.022   2.497   7.813  0.00  0.00    +0.000 A 
ATOM     13  C   UNL     1      45.287   1.847   8.802  0.00  0.00    +0.000 A 
ATOM     14  C   UNL     1      44.626   2.589   9.784  0.00  0.00    +0.000 A 
ENDBRANCH   8   9
ENDBRANCH   7   8
ENDBRANCH  15   7
ENDBRANCH  16  15
BRANCH  19  20
ATOM     20  C   UNL     1      49.180   6.926  16.278  0.00  0.00    +0.000 C 
BRANCH  20  21
ATOM     21  N   UNL     1      50.250   6.066  16.723  0.00  0.00    +0.000 N 
ATOM     22  C   UNL     1      50.251   5.515  17.976  0.00  0.00    +0.000 C 
ATOM     23  O   UNL     1      49.337   5.709  18.773  0.00  0.00    +0.000 OA
ATOM     36  H   UNL     1      51.109   6.083  16.181  0.00  0.00    +0.000 HD
BRANCH  22  24
ATOM     24  C   UNL     1      51.370   4.620  18.297  0.00  0.00    +0.000 A 
ATOM     25  C   UNL     1      52.461   5.109  19.002  0.00  0.00    +0.000 A 
ATOM     26  S   UNL     1      53.644   3.928  19.338  0.00  0.00    +0.000 S 
ATOM     27  C   UNL     1      52.766   2.734  18.504  0.00  0.00    +0.000 A 
ATOM     28  N   UNL     1      53.247   1.466  18.386  0.00  0.00    +0.000 NA
ATOM     29  C   UNL     1      52.497   0.672  17.701  0.00  0.00    +0.000 A 
ATOM     30  N   UNL     1      51.304   1.027  17.125  0.00  0.00    +0.000 N 
ATOM     31  C   UNL     1      50.766   2.286  17.242  0.00  0.00    +0.000 A 
ATOM     32  O   UNL     1      49.676   2.563  16.745  0.00  0.00    +0.000 OA
ATOM     33  C   UNL     1      51.579   3.223  17.995  0.00  0.00    +0.000 A 
ATOM     37  H   UNL     1      50.758   0.355  16.607  0.00  0.00    +0.000 HD
ENDBRANCH  22  24
ENDBRANCH  20  21
ENDBRANCH  19  20
TORSDOF 12
ENDMDL
MODEL 7
REMARK VINA RESULT:    -6.016      3.121      8.568
REMARK INTER + INTRA:         -13.136
REMARK INTER:                  -9.771
REMARK INTRA:                  -3.366
REMARK UNBOUND:                -2.900
REMARK  Name = 
REMARK  13 active torsions:
REMARK  status: ('A' for Active; 'I' for Inactive)
REMARK    1  A    between atoms: C_1  and  C_2
REMARK    2  A    between atoms: C_2  and  C_3
REMARK    3  A    between atoms: C_3  and  C_4
REMARK    4  A    between atoms: C_4  and  C_5
REMARK    5  A    between atoms: C_5  and  C_6
REMARK    6  A    between atoms: C_6  and  N_7
REMARK    7  A    between atoms: N_7  and  C_8
REMARK    8  A    between atoms: N_7  and  C_15
REMARK    9  A    between atoms: C_8  and  C_9
REMARK   10  A    between atoms: C_15  and  C_16
REMARK   11  A    between atoms: C_19  and  C_20
REMARK   12  A    between atoms: C_20  and  N_21
REMARK   13  A    between atoms: C_22  and  C_24
REMARK                            x       y       z     vdW  Elec       q    Type
REMARK                         _______ _______ _______ _____ _____    ______ ____
ROOT
ATOM     16  C   UNL     1      49.067   8.049  15.996  0.00  0.00    +0.000 A 
ATOM     17  C   UNL     1      49.479   7.004  15.158  0.00  0.00    +0.000 A 
ATOM     18  C   UNL     1      49.045   6.943  13.832  0.00  0.00    +0.000 A 
ATOM     19  C   UNL     1      48.195   7.931  13.318  0.00  0.00    +0.000 A 
ATOM     34  C   UNL     1      47.800   8.986  14.152  0.00  0.00    +0.000 A 
ATOM     35  C   UNL     1      48.236   9.050  15.474  0.00  0.00    +0.000 A 
ENDROOT
BRANCH  16  15
ATOM     15  C   UNL     1      49.445   8.064  17.463  0.00  0.00    +0.000 C 
BRANCH  15   7
ATOM      7  N   UNL     1      50.486   7.078  17.842  0.00  0.00    +0.000 NA
BRANCH   7   6
ATOM      6  C   UNL     1      51.675   7.802  18.340  0.00  0.00    +0.000 C 
BRANCH   6   5
ATOM      5  C   UNL     1      52.404   8.703  17.340  0.00  0.00    +0.000 C 
BRANCH   5   4
ATOM      4  C   UNL     1      53.181   7.949  16.258  0.00  0.00    +0.000 C 
BRANCH   4   3
ATOM      3  C   UNL     1      52.792   8.504  14.886  0.00  0.00    +0.000 C 
BRANCH   3   2
ATOM      1  C   UNL     1      51.358  10.151  13.663  0.00  0.00    +0.000 C 
ATOM      2  C   UNL     1      52.060   9.839  14.976  0.00  0.00    +0.000 C 
ENDBRANCH   3   2
ENDBRANCH   4   3
ENDBRANCH   5   4
ENDBRANCH   6   5
ENDBRANCH   7   6
BRANCH   7   8
ATOM      8  C   UNL     1      49.946   6.142  18.855  0.00  0.00    +0.000 C 
BRANCH   8   9
ATOM      9  C   UNL     1      49.218   4.950  18.254  0.00  0.00    +0.000 A 
ATOM     10  C   UNL     1      49.927   3.802  17.868  0.00  0.00    +0.000 A 
ATOM     11  C   UNL     1      49.275   2.751  17.218  0.00  0.00    +0.000 A 
ATOM     12  C   UNL     1      47.908   2.830  16.960  0.00  0.00    +0.000 A 
ATOM     13  C   UNL     1      47.185   3.949  17.372  0.00  0.00    +0.000 A 
ATOM     14  C   UNL     1      47.835   5.001  18.022  0.00  0.00    +0.000 A 
ENDBRANCH   8   9
ENDBRANCH   7   8
ENDBRANCH  15   7
ENDBRANCH  16  15
BRANCH  19  20
ATOM     20  C   UNL     1      47.635   7.829  11.923  0.00  0.00    +0.000 C 
BRANCH  20  21
ATOM     21  N   UNL     1      46.931   6.583  11.751  0.00  0.00    +0.000 N 
ATOM     22  C   UNL     1      45.566   6.514  11.836  0.00  0.00    +0.000 C 
ATOM     23  O   UNL     1      44.876   7.509  12.044  0.00  0.00    +0.000 OA
ATOM     36  H   UNL     1      47.480   5.731  11.813  0.00  0.00    +0.000 HD
BRANCH  22  24
ATOM     24  C   UNL     1      44.960   5.199  11.597  0.00  0.00    +0.000 A 
ATOM     25  C   UNL     1      44.273   4.561  12.621  0.00  0.00    +0.000 A 
ATOM     26  S   UNL     1      43.586   3.071  12.160  0.00  0.00    +0.000 S 
ATOM     27  C   UNL     1      44.229   3.198  10.591  0.00  0.00    +0.000 A 
ATOM     28  N   UNL     1      44.032   2.214   9.672  0.00  0.00    +0.000 NA
ATOM     29  C   UNL     1      44.602   2.423   8.535  0.00  0.00    +0.000 A 
ATOM     30  N   UNL     1      45.350   3.530   8.228  0.00  0.00    +0.000 N 
ATOM     31  C   UNL     1      45.552   4.561   9.113  0.00  0.00    +0.000 A 
ATOM     32  O   UNL     1      46.197   5.558   8.795  0.00  0.00    +0.000 OA
ATOM     33  C   UNL     1      44.940   4.369  10.414  0.00  0.00    +0.000 A 
ATOM     37  H   UNL     1      45.764   3.639   7.314  0.00  0.00    +0.000 HD
ENDBRANCH  22  24
ENDBRANCH  20  21
ENDBRANCH  19  20
TORSDOF 12
ENDMDL
MODEL 8
REMARK VINA RESULT:    -6.002      3.246      8.379
REMARK INTER + INTRA:         -13.113
REMARK INTER:                 -10.016
REMARK INTRA:                  -3.096
REMARK UNBOUND:                -2.900
REMARK  Name = 
REMARK  13 active torsions:
REMARK  status: ('A' for Active; 'I' for Inactive)
REMARK    1  A    between atoms: C_1  and  C_2
REMARK    2  A    between atoms: C_2  and  C_3
REMARK    3  A    between atoms: C_3  and  C_4
REMARK    4  A    between atoms: C_4  and  C_5
REMARK    5  A    between atoms: C_5  and  C_6
REMARK    6  A    between atoms: C_6  and  N_7
REMARK    7  A    between atoms: N_7  and  C_8
REMARK    8  A    between atoms: N_7  and  C_15
REMARK    9  A    between atoms: C_8  and  C_9
REMARK   10  A    between atoms: C_15  and  C_16
REMARK   11  A    between atoms: C_19  and  C_20
REMARK   12  A    between atoms: C_20  and  N_21
REMARK   13  A    between atoms: C_22  and  C_24
REMARK                            x       y       z     vdW  Elec       q    Type
REMARK                         _______ _______ _______ _____ _____    ______ ____
ROOT
ATOM     16  C   UNL     1      49.813   7.565  18.364  0.00  0.00    +0.000 A 
ATOM     17  C   UNL     1      50.505   7.112  17.233  0.00  0.00    +0.000 A 
ATOM     18  C   UNL     1      50.103   7.496  15.951  0.00  0.00    +0.000 A 
ATOM     19  C   UNL     1      49.003   8.346  15.780  0.00  0.00    +0.000 A 
ATOM     34  C   UNL     1      48.323   8.814  16.913  0.00  0.00    +0.000 A 
ATOM     35  C   UNL     1      48.727   8.433  18.192  0.00  0.00    +0.000 A 
ENDROOT
BRANCH  16  15
ATOM     15  C   UNL     1      50.175   7.066  19.748  0.00  0.00    +0.000 C 
BRANCH  15   7
ATOM      7  N   UNL     1      50.404   5.603  19.836  0.00  0.00    +0.000 NA
BRANCH   7   6
ATOM      6  C   UNL     1      51.249   5.319  21.016  0.00  0.00    +0.000 C 
BRANCH   6   5
ATOM      5  C   UNL     1      52.477   4.434  20.788  0.00  0.00    +0.000 C 
BRANCH   5   4
ATOM      4  C   UNL     1      52.689   4.008  19.333  0.00  0.00    +0.000 C 
BRANCH   4   3
ATOM      3  C   UNL     1      53.616   2.792  19.300  0.00  0.00    +0.000 C 
BRANCH   3   2
ATOM      1  C   UNL     1      52.486   1.158  17.778  0.00  0.00    +0.000 C 
ATOM      2  C   UNL     1      53.656   2.118  17.933  0.00  0.00    +0.000 C 
ENDBRANCH   3   2
ENDBRANCH   4   3
ENDBRANCH   5   4
ENDBRANCH   6   5
ENDBRANCH   7   6
BRANCH   7   8
ATOM      8  C   UNL     1      49.104   4.895  19.905  0.00  0.00    +0.000 C 
BRANCH   8   9
ATOM      9  C   UNL     1      48.689   4.256  18.590  0.00  0.00    +0.000 A 
ATOM     10  C   UNL     1      47.520   4.669  17.934  0.00  0.00    +0.000 A 
ATOM     11  C   UNL     1      47.082   4.009  16.782  0.00  0.00    +0.000 A 
ATOM     12  C   UNL     1      47.814   2.941  16.268  0.00  0.00    +0.000 A 
ATOM     13  C   UNL     1      48.998   2.546  16.889  0.00  0.00    +0.000 A 
ATOM     14  C   UNL     1      49.437   3.203  18.040  0.00  0.00    +0.000 A 
ENDBRANCH   8   9
ENDBRANCH   7   8
ENDBRANCH  15   7
ENDBRANCH  16  15
BRANCH  19  20
ATOM     20  C   UNL     1      48.491   8.691  14.405  0.00  0.00    +0.000 C 
BRANCH  20  21
ATOM     21  N   UNL     1      47.463   7.763  14.001  0.00  0.00    +0.000 N 
ATOM     22  C   UNL     1      47.743   6.692  13.194  0.00  0.00    +0.000 C 
ATOM     23  O   UNL     1      48.880   6.459  12.793  0.00  0.00    +0.000 OA
ATOM     36  H   UNL     1      46.500   8.062  14.122  0.00  0.00    +0.000 HD
BRANCH  22  24
ATOM     24  C   UNL     1      46.624   5.793  12.889  0.00  0.00    +0.000 A 
ATOM     25  C   UNL     1      46.740   4.435  13.153  0.00  0.00    +0.000 A 
ATOM     26  S   UNL     1      45.333   3.543  12.791  0.00  0.00    +0.000 S 
ATOM     27  C   UNL     1      44.537   4.931  12.216  0.00  0.00    +0.000 A 
ATOM     28  N   UNL     1      43.272   4.857  11.719  0.00  0.00    +0.000 NA
ATOM     29  C   UNL     1      42.801   5.977  11.287  0.00  0.00    +0.000 A 
ATOM     30  N   UNL     1      43.477   7.170  11.311  0.00  0.00    +0.000 N 
ATOM     31  C   UNL     1      44.743   7.298  11.829  0.00  0.00    +0.000 A 
ATOM     32  O   UNL     1      45.309   8.389  11.869  0.00  0.00    +0.000 OA
ATOM     33  C   UNL     1      45.324   6.062  12.318  0.00  0.00    +0.000 A 
ATOM     37  H   UNL     1      43.048   8.015  10.964  0.00  0.00    +0.000 HD
ENDBRANCH  22  24
ENDBRANCH  20  21
ENDBRANCH  19  20
TORSDOF 12
ENDMDL
MODEL 9
REMARK VINA RESULT:    -5.999      3.298      8.335
REMARK INTER + INTRA:         -13.108
REMARK INTER:                  -9.826
REMARK INTRA:                  -3.282
REMARK UNBOUND:                -2.900
REMARK  Name = 
REMARK  13 active torsions:
REMARK  status: ('A' for Active; 'I' for Inactive)
REMARK    1  A    between atoms: C_1  and  C_2
REMARK    2  A    between atoms: C_2  and  C_3
REMARK    3  A    between atoms: C_3  and  C_4
REMARK    4  A    between atoms: C_4  and  C_5
REMARK    5  A    between atoms: C_5  and  C_6
REMARK    6  A    between atoms: C_6  and  N_7
REMARK    7  A    between atoms: N_7  and  C_8
REMARK    8  A    between atoms: N_7  and  C_15
REMARK    9  A    between atoms: C_8  and  C_9
REMARK   10  A    between atoms: C_15  and  C_16
REMARK   11  A    between atoms: C_19  and  C_20
REMARK   12  A    between atoms: C_20  and  N_21
REMARK   13  A    between atoms: C_22  and  C_24
REMARK                            x       y       z     vdW  Elec       q    Type
REMARK                         _______ _______ _______ _____ _____    ______ ____
ROOT
ATOM     16  C   UNL     1      48.635   7.714  16.367  0.00  0.00    +0.000 A 
ATOM     17  C   UNL     1      48.834   6.625  15.507  0.00  0.00    +0.000 A 
ATOM     18  C   UNL     1      48.722   6.782  14.123  0.00  0.00    +0.000 A 
ATOM     19  C   UNL     1      48.414   8.034  13.575  0.00  0.00    +0.000 A 
ATOM     34  C   UNL     1      48.235   9.126  14.435  0.00  0.00    +0.000 A 
ATOM     35  C   UNL     1      48.350   8.970  15.816  0.00  0.00    +0.000 A 
ENDROOT
BRANCH  16  15
ATOM     15  C   UNL     1      48.646   7.529  17.871  0.00  0.00    +0.000 C 
BRANCH  15   7
ATOM      7  N   UNL     1      49.818   6.783  18.391  0.00  0.00    +0.000 NA
BRANCH   7   6
ATOM      6  C   UNL     1      50.653   7.700  19.196  0.00  0.00    +0.000 C 
BRANCH   6   5
ATOM      5  C   UNL     1      51.728   8.491  18.447  0.00  0.00    +0.000 C 
BRANCH   5   4
ATOM      4  C   UNL     1      52.258   7.803  17.187  0.00  0.00    +0.000 C 
BRANCH   4   3
ATOM      3  C   UNL     1      52.057   8.733  15.989  0.00  0.00    +0.000 C 
BRANCH   3   2
ATOM      1  C   UNL     1      51.958   8.584  13.492  0.00  0.00    +0.000 C 
ATOM      2  C   UNL     1      52.768   8.240  14.733  0.00  0.00    +0.000 C 
ENDBRANCH   3   2
ENDBRANCH   4   3
ENDBRANCH   5   4
ENDBRANCH   6   5
ENDBRANCH   7   6
BRANCH   7   8
ATOM      8  C   UNL     1      49.359   5.617  19.182  0.00  0.00    +0.000 C 
BRANCH   8   9
ATOM      9  C   UNL     1      49.206   4.347  18.360  0.00  0.00    +0.000 A 
ATOM     10  C   UNL     1      50.336   3.621  17.955  0.00  0.00    +0.000 A 
ATOM     11  C   UNL     1      50.202   2.516  17.110  0.00  0.00    +0.000 A 
ATOM     12  C   UNL     1      48.940   2.118  16.674  0.00  0.00    +0.000 A 
ATOM     13  C   UNL     1      47.807   2.808  17.101  0.00  0.00    +0.000 A 
ATOM     14  C   UNL     1      47.938   3.913  17.945  0.00  0.00    +0.000 A 
ENDBRANCH   8   9
ENDBRANCH   7   8
ENDBRANCH  15   7
ENDBRANCH  16  15
BRANCH  19  20
ATOM     20  C   UNL     1      48.190   8.202  12.095  0.00  0.00    +0.000 C 
BRANCH  20  21
ATOM     21  N   UNL     1      47.521   7.046  11.550  0.00  0.00    +0.000 N 
ATOM     22  C   UNL     1      46.158   7.001  11.423  0.00  0.00    +0.000 C 
ATOM     23  O   UNL     1      45.443   7.945  11.747  0.00  0.00    +0.000 OA
ATOM     36  H   UNL     1      48.058   6.185  11.499  0.00  0.00    +0.000 HD
BRANCH  22  24
ATOM     24  C   UNL     1      45.597   5.790  10.813  0.00  0.00    +0.000 A 
ATOM     25  C   UNL     1      45.797   5.545   9.461  0.00  0.00    +0.000 A 
ATOM     26  S   UNL     1      45.127   4.072   8.925  0.00  0.00    +0.000 S 
ATOM     27  C   UNL     1      44.499   3.734  10.469  0.00  0.00    +0.000 A 
ATOM     28  N   UNL     1      43.772   2.606  10.697  0.00  0.00    +0.000 NA
ATOM     29  C   UNL     1      43.327   2.492  11.902  0.00  0.00    +0.000 A 
ATOM     30  N   UNL     1      43.547   3.401  12.905  0.00  0.00    +0.000 N 
ATOM     31  C   UNL     1      44.298   4.538  12.728  0.00  0.00    +0.000 A 
ATOM     32  O   UNL     1      44.507   5.315  13.658  0.00  0.00    +0.000 OA
ATOM     33  C   UNL     1      44.811   4.720  11.384  0.00  0.00    +0.000 A 
ATOM     37  H   UNL     1      43.178   3.249  13.832  0.00  0.00    +0.000 HD
ENDBRANCH  22  24
ENDBRANCH  20  21
ENDBRANCH  19  20
TORSDOF 12
ENDMDL
