MODEL 1
REMARK VINA RESULT:    -6.196      0.000      0.000
REMARK INTER + INTRA:          -7.217
REMARK INTER:                  -7.102
REMARK INTRA:                  -0.115
REMARK UNBOUND:                -0.115
REMARK  Name = 
REMARK  3 active torsions:
REMARK  status: ('A' for Active; 'I' for Inactive)
REMARK    1  A    between atoms: O_1  and  C_2
REMARK    2  A    between atoms: C_2  and  C_3
REMARK    3  A    between atoms: C_5  and  C_6
REMARK                            x       y       z     vdW  Elec       q    Type
REMARK                         _______ _______ _______ _____ _____    ______ ____
ROOT
ATOM      3  C   UNL     1      43.342   4.148  10.969  0.00  0.00    +0.000 A 
ATOM      4  C   UNL     1      44.185   4.287   9.845  0.00  0.00    +0.000 A 
ATOM      5  C   UNL     1      44.678   3.028   9.589  0.00  0.00    +0.000 A 
ATOM     11  N   UNL     1      44.093   2.219  10.526  0.00  0.00    +0.000 N 
ATOM     12  N   UNL     1      43.279   2.872  11.381  0.00  0.00    +0.000 NA
ATOM     14  H   UNL     1      44.216   1.219  10.639  0.00  0.00    +0.000 HD
ENDROOT
BRANCH   5   6
ATOM      6  C   UNL     1      45.600   2.601   8.581  0.00  0.00    +0.000 A 
ATOM      7  C   UNL     1      46.018   1.302   8.360  0.00  0.00    +0.000 A 
ATOM      8  C   UNL     1      46.965   1.201   7.302  0.00  0.00    +0.000 A 
ATOM      9  C   UNL     1      47.233   2.427   6.739  0.00  0.00    +0.000 A 
ATOM     10  S   UNL     1      46.332   3.682   7.473  0.00  0.00    +0.000 S 
ENDBRANCH   5   6
BRANCH   3   2
ATOM      2  C   UNL     1      42.602   5.234  11.671  0.00  0.00    +0.000 C 
BRANCH   2   1
ATOM      1  O   UNL     1      42.587   6.447  10.912  0.00  0.00    +0.000 OA
ATOM     13  H   UNL     1      42.874   6.204  10.016  0.00  0.00    +0.000 HD
ENDBRANCH   2   1
ENDBRANCH   3   2
TORSDOF 3
ENDMDL
MODEL 2
REMARK VINA RESULT:    -5.939      2.114      2.364
REMARK INTER + INTRA:          -6.921
REMARK INTER:                  -6.807
REMARK INTRA:                  -0.115
REMARK UNBOUND:                -0.115
REMARK  Name = 
REMARK  3 active torsions:
REMARK  status: ('A' for Active; 'I' for Inactive)
REMARK    1  A    between atoms: O_1  and  C_2
REMARK    2  A    between atoms: C_2  and  C_3
REMARK    3  A    between atoms: C_5  and  C_6
REMARK                            x       y       z     vdW  Elec       q    Type
REMARK                         _______ _______ _______ _____ _____    ______ ____
ROOT
ATOM      3  C   UNL     1      43.934   3.497  10.655  0.00  0.00    +0.000 A 
ATOM      4  C   UNL     1      44.920   2.702  10.031  0.00  0.00    +0.000 A 
ATOM      5  C   UNL     1      45.113   3.256   8.786  0.00  0.00    +0.000 A 
ATOM     11  N   UNL     1      44.281   4.342   8.746  0.00  0.00    +0.000 N 
ATOM     12  N   UNL     1      43.549   4.512   9.866  0.00  0.00    +0.000 NA
ATOM     14  H   UNL     1      44.161   4.997   7.982  0.00  0.00    +0.000 HD
ENDROOT
BRANCH   5   6
ATOM      6  C   UNL     1      45.979   2.831   7.727  0.00  0.00    +0.000 A 
ATOM      7  C   UNL     1      46.335   3.578   6.620  0.00  0.00    +0.000 A 
ATOM      8  C   UNL     1      47.187   2.868   5.728  0.00  0.00    +0.000 A 
ATOM      9  C   UNL     1      47.465   1.602   6.188  0.00  0.00    +0.000 A 
ATOM     10  S   UNL     1      46.717   1.286   7.694  0.00  0.00    +0.000 S 
ENDBRANCH   5   6
BRANCH   3   2
ATOM      2  C   UNL     1      43.338   3.286  12.005  0.00  0.00    +0.000 C 
BRANCH   2   1
ATOM      1  O   UNL     1      43.446   1.924  12.429  0.00  0.00    +0.000 OA
ATOM     13  H   UNL     1      43.199   1.917  13.368  0.00  0.00    +0.000 HD
ENDBRANCH   2   1
ENDBRANCH   3   2
TORSDOF 3
ENDMDL
MODEL 3
REMARK VINA RESULT:    -5.568      3.051      5.261
REMARK INTER + INTRA:          -6.496
REMARK INTER:                  -6.375
REMARK INTRA:                  -0.122
REMARK UNBOUND:                -0.115
REMARK  Name = 
REMARK  3 active torsions:
REMARK  status: ('A' for Active; 'I' for Inactive)
REMARK    1  A    between atoms: O_1  and  C_2
REMARK    2  A    between atoms: C_2  and  C_3
REMARK    3  A    between atoms: C_5  and  C_6
REMARK                            x       y       z     vdW  Elec       q    Type
REMARK                         _______ _______ _______ _____ _____    ______ ____
ROOT
ATOM      3  C   UNL     1      45.982   3.016   7.768  0.00  0.00    +0.000 A 
ATOM      4  C   UNL     1      45.361   4.036   8.523  0.00  0.00    +0.000 A 
ATOM      5  C   UNL     1      44.843   3.414   9.636  0.00  0.00    +0.000 A 
ATOM     11  N   UNL     1      45.201   2.100   9.509  0.00  0.00    +0.000 N 
ATOM     12  N   UNL     1      45.890   1.826   8.382  0.00  0.00    +0.000 NA
ATOM     14  H   UNL     1      44.997   1.341  10.150  0.00  0.00    +0.000 HD
ENDROOT
BRANCH   5   6
ATOM      6  C   UNL     1      44.089   3.971  10.718  0.00  0.00    +0.000 A 
ATOM      7  C   UNL     1      43.371   5.152  10.685  0.00  0.00    +0.000 A 
ATOM      8  C   UNL     1      42.751   5.454  11.930  0.00  0.00    +0.000 A 
ATOM      9  C   UNL     1      43.007   4.487  12.875  0.00  0.00    +0.000 A 
ATOM     10  S   UNL     1      43.970   3.218  12.252  0.00  0.00    +0.000 S 
ENDBRANCH   5   6
BRANCH   3   2
ATOM      2  C   UNL     1      46.653   3.165   6.446  0.00  0.00    +0.000 C 
BRANCH   2   1
ATOM      1  O   UNL     1      48.063   2.940   6.536  0.00  0.00    +0.000 OA
ATOM     13  H   UNL     1      48.187   1.981   6.440  0.00  0.00    +0.000 HD
ENDBRANCH   2   1
ENDBRANCH   3   2
TORSDOF 3
ENDMDL
MODEL 4
REMARK VINA RESULT:    -4.785      4.914      5.798
REMARK INTER + INTRA:          -5.599
REMARK INTER:                  -5.490
REMARK INTRA:                  -0.110
REMARK UNBOUND:                -0.115
REMARK  Name = 
REMARK  3 active torsions:
REMARK  status: ('A' for Active; 'I' for Inactive)
REMARK    1  A    between atoms: O_1  and  C_2
REMARK    2  A    between atoms: C_2  and  C_3
REMARK    3  A    between atoms: C_5  and  C_6
REMARK                            x       y       z     vdW  Elec       q    Type
REMARK                         _______ _______ _______ _____ _____    ______ ____
ROOT
ATOM      3  C   UNL     1      47.312   4.385  15.097  0.00  0.00    +0.000 A 
ATOM      4  C   UNL     1      46.293   5.085  14.416  0.00  0.00    +0.000 A 
ATOM      5  C   UNL     1      45.873   4.248  13.408  0.00  0.00    +0.000 A 
ATOM     11  N   UNL     1      46.618   3.110  13.557  0.00  0.00    +0.000 N 
ATOM     12  N   UNL     1      47.504   3.165  14.572  0.00  0.00    +0.000 NA
ATOM     14  H   UNL     1      46.576   2.268  12.993  0.00  0.00    +0.000 HD
ENDROOT
BRANCH   5   6
ATOM      6  C   UNL     1      44.881   4.467  12.399  0.00  0.00    +0.000 A 
ATOM      7  C   UNL     1      45.042   4.256  11.042  0.00  0.00    +0.000 A 
ATOM      8  C   UNL     1      43.882   4.595  10.291  0.00  0.00    +0.000 A 
ATOM      9  C   UNL     1      42.864   5.046  11.100  0.00  0.00    +0.000 A 
ATOM     10  S   UNL     1      43.306   5.038  12.752  0.00  0.00    +0.000 S 
ENDBRANCH   5   6
BRANCH   3   2
ATOM      2  C   UNL     1      48.123   4.880  16.245  0.00  0.00    +0.000 C 
BRANCH   2   1
ATOM      1  O   UNL     1      49.157   3.958  16.605  0.00  0.00    +0.000 OA
ATOM     13  H   UNL     1      49.860   4.490  17.012  0.00  0.00    +0.000 HD
ENDBRANCH   2   1
ENDBRANCH   3   2
TORSDOF 3
ENDMDL
MODEL 5
REMARK VINA RESULT:    -4.745      4.346      5.551
REMARK INTER + INTRA:          -5.553
REMARK INTER:                  -5.431
REMARK INTRA:                  -0.121
REMARK UNBOUND:                -0.115
REMARK  Name = 
REMARK  3 active torsions:
REMARK  status: ('A' for Active; 'I' for Inactive)
REMARK    1  A    between atoms: O_1  and  C_2
REMARK    2  A    between atoms: C_2  and  C_3
REMARK    3  A    between atoms: C_5  and  C_6
REMARK                            x       y       z     vdW  Elec       q    Type
REMARK                         _______ _______ _______ _____ _____    ______ ____
ROOT
ATOM      3  C   UNL     1      43.851   4.315  11.993  0.00  0.00    +0.000 A 
ATOM      4  C   UNL     1      45.084   4.919  11.664  0.00  0.00    +0.000 A 
ATOM      5  C   UNL     1      45.080   6.143  12.292  0.00  0.00    +0.000 A 
ATOM     11  N   UNL     1      43.894   6.191  12.972  0.00  0.00    +0.000 N 
ATOM     12  N   UNL     1      43.123   5.096  12.806  0.00  0.00    +0.000 NA
ATOM     14  H   UNL     1      43.549   6.944  13.557  0.00  0.00    +0.000 HD
ENDROOT
BRANCH   5   6
ATOM      6  C   UNL     1      46.071   7.177  12.273  0.00  0.00    +0.000 A 
ATOM      7  C   UNL     1      47.378   7.041  11.845  0.00  0.00    +0.000 A 
ATOM      8  C   UNL     1      48.128   8.244  11.977  0.00  0.00    +0.000 A 
ATOM      9  C   UNL     1      47.366   9.266  12.494  0.00  0.00    +0.000 A 
ATOM     10  S   UNL     1      45.755   8.777  12.795  0.00  0.00    +0.000 S 
ENDBRANCH   5   6
BRANCH   3   2
ATOM      2  C   UNL     1      43.348   2.994  11.521  0.00  0.00    +0.000 C 
BRANCH   2   1
ATOM      1  O   UNL     1      43.475   1.984  12.527  0.00  0.00    +0.000 OA
ATOM     13  H   UNL     1      42.786   2.175  13.185  0.00  0.00    +0.000 HD
ENDBRANCH   2   1
ENDBRANCH   3   2
TORSDOF 3
ENDMDL
MODEL 6
REMARK VINA RESULT:    -4.731      5.672      6.422
REMARK INTER + INTRA:          -5.537
REMARK INTER:                  -5.422
REMARK INTRA:                  -0.115
REMARK UNBOUND:                -0.115
REMARK  Name = 
REMARK  3 active torsions:
REMARK  status: ('A' for Active; 'I' for Inactive)
REMARK    1  A    between atoms: O_1  and  C_2
REMARK    2  A    between atoms: C_2  and  C_3
REMARK    3  A    between atoms: C_5  and  C_6
REMARK                            x       y       z     vdW  Elec       q    Type
REMARK                         _______ _______ _______ _____ _____    ______ ____
ROOT
ATOM      3  C   UNL     1      47.601   4.364  16.126  0.00  0.00    +0.000 A 
ATOM      4  C   UNL     1      46.794   4.009  15.023  0.00  0.00    +0.000 A 
ATOM      5  C   UNL     1      46.938   5.030  14.111  0.00  0.00    +0.000 A 
ATOM     11  N   UNL     1      47.825   5.899  14.686  0.00  0.00    +0.000 N 
ATOM     12  N   UNL     1      48.242   5.523  15.913  0.00  0.00    +0.000 NA
ATOM     14  H   UNL     1      48.176   6.768  14.298  0.00  0.00    +0.000 HD
ENDROOT
BRANCH   5   6
ATOM      6  C   UNL     1      46.321   5.197  12.830  0.00  0.00    +0.000 A 
ATOM      7  C   UNL     1      46.568   6.223  11.937  0.00  0.00    +0.000 A 
ATOM      8  C   UNL     1      45.774   6.130  10.759  0.00  0.00    +0.000 A 
ATOM      9  C   UNL     1      44.952   5.028  10.784  0.00  0.00    +0.000 A 
ATOM     10  S   UNL     1      45.155   4.106  12.210  0.00  0.00    +0.000 S 
ENDBRANCH   5   6
BRANCH   3   2
ATOM      2  C   UNL     1      47.755   3.608  17.401  0.00  0.00    +0.000 C 
BRANCH   2   1
ATOM      1  O   UNL     1      46.592   2.832  17.705  0.00  0.00    +0.000 OA
ATOM     13  H   UNL     1      46.820   2.306  18.489  0.00  0.00    +0.000 HD
ENDBRANCH   2   1
ENDBRANCH   3   2
TORSDOF 3
ENDMDL
MODEL 7
REMARK VINA RESULT:    -4.663      5.201      6.261
REMARK INTER + INTRA:          -5.459
REMARK INTER:                  -5.342
REMARK INTRA:                  -0.117
REMARK UNBOUND:                -0.115
REMARK  Name = 
REMARK  3 active torsions:
REMARK  status: ('A' for Active; 'I' for Inactive)
REMARK    1  A    between atoms: O_1  and  C_2
REMARK    2  A    between atoms: C_2  and  C_3
REMARK    3  A    between atoms: C_5  and  C_6
REMARK                            x       y       z     vdW  Elec       q    Type
REMARK                         _______ _______ _______ _____ _____    ______ ____
ROOT
ATOM      3  C   UNL     1      44.612   4.068  12.407  0.00  0.00    +0.000 A 
ATOM      4  C   UNL     1      45.234   5.133  13.095  0.00  0.00    +0.000 A 
ATOM      5  C   UNL     1      46.304   4.577  13.757  0.00  0.00    +0.000 A 
ATOM     11  N   UNL     1      46.286   3.252  13.413  0.00  0.00    +0.000 N 
ATOM     12  N   UNL     1      45.267   2.913  12.597  0.00  0.00    +0.000 NA
ATOM     14  H   UNL     1      46.934   2.531  13.709  0.00  0.00    +0.000 HD
ENDROOT
BRANCH   5   6
ATOM      6  C   UNL     1      47.257   5.198  14.627  0.00  0.00    +0.000 A 
ATOM      7  C   UNL     1      48.008   6.322  14.338  0.00  0.00    +0.000 A 
ATOM      8  C   UNL     1      48.891   6.681  15.395  0.00  0.00    +0.000 A 
ATOM      9  C   UNL     1      48.780   5.823  16.465  0.00  0.00    +0.000 A 
ATOM     10  S   UNL     1      47.603   4.611  16.198  0.00  0.00    +0.000 S 
ENDBRANCH   5   6
BRANCH   3   2
ATOM      2  C   UNL     1      43.377   4.140  11.576  0.00  0.00    +0.000 C 
BRANCH   2   1
ATOM      1  O   UNL     1      42.772   2.855  11.408  0.00  0.00    +0.000 OA
ATOM     13  H   UNL     1      43.419   2.210  11.739  0.00  0.00    +0.000 HD
ENDBRANCH   2   1
ENDBRANCH   3   2
TORSDOF 3
ENDMDL
MODEL 8
REMARK VINA RESULT:    -4.567      4.061      5.799
REMARK INTER + INTRA:          -5.350
REMARK INTER:                  -5.236
REMARK INTRA:                  -0.113
REMARK UNBOUND:                -0.115
REMARK  Name = 
REMARK  3 active torsions:
REMARK  status: ('A' for Active; 'I' for Inactive)
REMARK    1  A    between atoms: O_1  and  C_2
REMARK    2  A    between atoms: C_2  and  C_3
REMARK    3  A    between atoms: C_5  and  C_6
REMARK                            x       y       z     vdW  Elec       q    Type
REMARK                         _______ _______ _______ _____ _____    ______ ____
ROOT
ATOM      3  C   UNL     1      43.553   4.570  11.499  0.00  0.00    +0.000 A 
ATOM      4  C   UNL     1      44.726   5.255  11.882  0.00  0.00    +0.000 A 
ATOM      5  C   UNL     1      44.460   6.591  11.688  0.00  0.00    +0.000 A 
ATOM     11  N   UNL     1      43.166   6.635  11.245  0.00  0.00    +0.000 N 
ATOM     12  N   UNL     1      42.590   5.423  11.116  0.00  0.00    +0.000 NA
ATOM     14  H   UNL     1      42.625   7.459  11.005  0.00  0.00    +0.000 HD
ENDROOT
BRANCH   5   6
ATOM      6  C   UNL     1      45.310   7.726  11.889  0.00  0.00    +0.000 A 
ATOM      7  C   UNL     1      44.945   9.051  11.739  0.00  0.00    +0.000 A 
ATOM      8  C   UNL     1      46.023   9.949  11.980  0.00  0.00    +0.000 A 
ATOM      9  C   UNL     1      47.178   9.280  12.317  0.00  0.00    +0.000 A 
ATOM     10  S   UNL     1      46.951   7.586  12.361  0.00  0.00    +0.000 S 
ENDBRANCH   5   6
BRANCH   3   2
ATOM      2  C   UNL     1      43.344   3.095  11.480  0.00  0.00    +0.000 C 
BRANCH   2   1
ATOM      1  O   UNL     1      43.914   2.460  12.629  0.00  0.00    +0.000 OA
ATOM     13  H   UNL     1      43.930   1.510  12.428  0.00  0.00    +0.000 HD
ENDBRANCH   2   1
ENDBRANCH   3   2
TORSDOF 3
ENDMDL
MODEL 9
REMARK VINA RESULT:    -4.520      4.127      4.698
REMARK INTER + INTRA:          -5.295
REMARK INTER:                  -5.182
REMARK INTRA:                  -0.113
REMARK UNBOUND:                -0.115
REMARK  Name = 
REMARK  3 active torsions:
REMARK  status: ('A' for Active; 'I' for Inactive)
REMARK    1  A    between atoms: O_1  and  C_2
REMARK    2  A    between atoms: C_2  and  C_3
REMARK    3  A    between atoms: C_5  and  C_6
REMARK                            x       y       z     vdW  Elec       q    Type
REMARK                         _______ _______ _______ _____ _____    ______ ____
ROOT
ATOM      3  C   UNL     1      46.550   7.801  12.659  0.00  0.00    +0.000 A 
ATOM      4  C   UNL     1      46.823   6.716  11.798  0.00  0.00    +0.000 A 
ATOM      5  C   UNL     1      45.599   6.288  11.336  0.00  0.00    +0.000 A 
ATOM     11  N   UNL     1      44.688   7.138  11.902  0.00  0.00    +0.000 N 
ATOM     12  N   UNL     1      45.235   8.065  12.715  0.00  0.00    +0.000 NA
ATOM     14  H   UNL     1      43.681   7.130  11.782  0.00  0.00    +0.000 HD
ENDROOT
BRANCH   5   6
ATOM      6  C   UNL     1      45.289   5.201  10.457  0.00  0.00    +0.000 A 
ATOM      7  C   UNL     1      45.682   5.087   9.137  0.00  0.00    +0.000 A 
ATOM      8  C   UNL     1      45.191   3.904   8.517  0.00  0.00    +0.000 A 
ATOM      9  C   UNL     1      44.445   3.143   9.388  0.00  0.00    +0.000 A 
ATOM     10  S   UNL     1      44.360   3.847  10.944  0.00  0.00    +0.000 S 
ENDBRANCH   5   6
BRANCH   3   2
ATOM      2  C   UNL     1      47.539   8.586  13.450  0.00  0.00    +0.000 C 
BRANCH   2   1
ATOM      1  O   UNL     1      47.056   8.885  14.763  0.00  0.00    +0.000 OA
ATOM     13  H   UNL     1      47.844   9.053  15.306  0.00  0.00    +0.000 HD
ENDBRANCH   2   1
ENDBRANCH   3   2
TORSDOF 3
ENDMDL
