MODEL 1
REMARK VINA RESULT:    -8.470      0.000      0.000
REMARK INTER + INTRA:         -11.974
REMARK INTER:                 -11.194
REMARK INTRA:                  -0.780
REMARK UNBOUND:                -0.780
REMARK  Name = 
REMARK  8 active torsions:
REMARK  status: ('A' for Active; 'I' for Inactive)
REMARK    1  A    between atoms: C_1  and  C_2
REMARK    2  A    between atoms: C_2  and  C_3
REMARK    3  A    between atoms: C_2  and  C_4
REMARK    4  A    between atoms: C_2  and  C_15
REMARK    5  A    between atoms: C_4  and  N_5
REMARK    6  A    between atoms: C_9  and  C_10
REMARK    7  A    between atoms: C_19  and  C_20
REMARK    8  A    between atoms: C_20  and  N_21
REMARK                            x       y       z     vdW  Elec       q    Type
REMARK                         _______ _______ _______ _____ _____    ______ ____
ROOT
ATOM      4  C   UNL     1      43.393   4.334  10.943  0.00  0.00    +0.000 C 
ENDROOT
BRANCH   4   5
ATOM      5  N   UNL     1      43.861   4.703   9.615  0.00  0.00    +0.000 N 
ATOM      6  C   UNL     1      44.844   3.963   8.987  0.00  0.00    +0.000 A 
ATOM      7  C   UNL     1      45.014   2.595   9.167  0.00  0.00    +0.000 A 
ATOM      8  C   UNL     1      45.989   1.915   8.436  0.00  0.00    +0.000 A 
ATOM      9  C   UNL     1      46.766   2.607   7.510  0.00  0.00    +0.000 A 
ATOM     13  C   UNL     1      46.529   3.964   7.387  0.00  0.00    +0.000 A 
ATOM     14  N   UNL     1      45.599   4.647   8.106  0.00  0.00    +0.000 NA
ATOM     23  H   UNL     1      44.075   5.690   9.477  0.00  0.00    +0.000 HD
BRANCH   9  10
ATOM     10  C   UNL     1      47.771   1.860   6.709  0.00  0.00    +0.000 C 
ATOM     11  N   UNL     1      48.411   2.497   5.686  0.00  0.00    +0.000 N 
ATOM     12  O   UNL     1      48.025   0.682   6.956  0.00  0.00    +0.000 OA
ATOM     24  H   UNL     1      48.260   3.448   5.381  0.00  0.00    +0.000 HD
ATOM     25  H   UNL     1      49.074   1.939   5.155  0.00  0.00    +0.000 HD
ENDBRANCH   9  10
ENDBRANCH   4   5
BRANCH   4   2
ATOM      1  C   UNL     1      43.020   6.791  11.403  0.00  0.00    +0.000 C 
ATOM      2  C   UNL     1      43.599   5.478  11.988  0.00  0.00    +0.000 C 
ATOM      3  C   UNL     1      42.743   5.122  13.229  0.00  0.00    +0.000 C 
BRANCH   2  15
ATOM     15  C   UNL     1      45.078   5.610  12.404  0.00  0.00    +0.000 A 
ATOM     16  C   UNL     1      45.946   6.462  11.701  0.00  0.00    +0.000 A 
ATOM     17  C   UNL     1      47.271   6.635  12.106  0.00  0.00    +0.000 A 
ATOM     18  C   UNL     1      47.759   5.965  13.227  0.00  0.00    +0.000 A 
ATOM     19  C   UNL     1      46.937   5.090  13.940  0.00  0.00    +0.000 A 
ATOM     22  C   UNL     1      45.608   4.923  13.514  0.00  0.00    +0.000 A 
BRANCH  19  20
ATOM     20  C   UNL     1      47.382   4.411  15.215  0.00  0.00    +0.000 C 
BRANCH  20  21
ATOM     21  N   UNL     1      47.743   3.009  15.043  0.00  0.00    +0.000 NA
ATOM     26  H   UNL     1      46.982   2.536  14.558  0.00  0.00    +0.000 HD
ATOM     27  H   UNL     1      47.811   2.575  15.962  0.00  0.00    +0.000 HD
ENDBRANCH  20  21
ENDBRANCH  19  20
ENDBRANCH   2  15
ENDBRANCH   4   2
TORSDOF 6
ENDMDL
MODEL 2
REMARK VINA RESULT:    -7.805      1.316      1.934
REMARK INTER + INTRA:         -11.094
REMARK INTER:                 -10.280
REMARK INTRA:                  -0.814
REMARK UNBOUND:                -0.780
REMARK  Name = 
REMARK  8 active torsions:
REMARK  status: ('A' for Active; 'I' for Inactive)
REMARK    1  A    between atoms: C_1  and  C_2
REMARK    2  A    between atoms: C_2  and  C_3
REMARK    3  A    between atoms: C_2  and  C_4
REMARK    4  A    between atoms: C_2  and  C_15
REMARK    5  A    between atoms: C_4  and  N_5
REMARK    6  A    between atoms: C_9  and  C_10
REMARK    7  A    between atoms: C_19  and  C_20
REMARK    8  A    between atoms: C_20  and  N_21
REMARK                            x       y       z     vdW  Elec       q    Type
REMARK                         _______ _______ _______ _____ _____    ______ ____
ROOT
ATOM      4  C   UNL     1      43.490   4.294  10.908  0.00  0.00    +0.000 C 
ENDROOT
BRANCH   4   5
ATOM      5  N   UNL     1      43.972   4.746   9.611  0.00  0.00    +0.000 N 
ATOM      6  C   UNL     1      44.936   4.027   8.931  0.00  0.00    +0.000 A 
ATOM      7  C   UNL     1      45.068   2.645   9.011  0.00  0.00    +0.000 A 
ATOM      8  C   UNL     1      46.026   1.995   8.233  0.00  0.00    +0.000 A 
ATOM      9  C   UNL     1      46.824   2.730   7.360  0.00  0.00    +0.000 A 
ATOM     13  C   UNL     1      46.623   4.100   7.336  0.00  0.00    +0.000 A 
ATOM     14  N   UNL     1      45.711   4.753   8.102  0.00  0.00    +0.000 NA
ATOM     23  H   UNL     1      44.212   5.734   9.546  0.00  0.00    +0.000 HD
BRANCH   9  10
ATOM     10  C   UNL     1      47.810   2.017   6.506  0.00  0.00    +0.000 C 
ATOM     11  N   UNL     1      48.179   2.569   5.315  0.00  0.00    +0.000 N 
ATOM     12  O   UNL     1      48.288   0.941   6.861  0.00  0.00    +0.000 OA
ATOM     24  H   UNL     1      47.830   3.429   4.917  0.00  0.00    +0.000 HD
ATOM     25  H   UNL     1      48.841   2.035   4.759  0.00  0.00    +0.000 HD
ENDBRANCH   9  10
ENDBRANCH   4   5
BRANCH   4   2
ATOM      1  C   UNL     1      43.052   6.712  11.501  0.00  0.00    +0.000 C 
ATOM      2  C   UNL     1      43.657   5.381  12.019  0.00  0.00    +0.000 C 
ATOM      3  C   UNL     1      42.796   4.935  13.227  0.00  0.00    +0.000 C 
BRANCH   2  15
ATOM     15  C   UNL     1      45.127   5.525  12.459  0.00  0.00    +0.000 A 
ATOM     16  C   UNL     1      45.708   4.591  13.333  0.00  0.00    +0.000 A 
ATOM     17  C   UNL     1      47.055   4.677  13.690  0.00  0.00    +0.000 A 
ATOM     18  C   UNL     1      47.856   5.696  13.178  0.00  0.00    +0.000 A 
ATOM     19  C   UNL     1      47.314   6.661  12.325  0.00  0.00    +0.000 A 
ATOM     22  C   UNL     1      45.954   6.561  11.982  0.00  0.00    +0.000 A 
BRANCH  19  20
ATOM     20  C   UNL     1      48.153   7.730  11.666  0.00  0.00    +0.000 C 
BRANCH  20  21
ATOM     21  N   UNL     1      49.549   7.732  12.090  0.00  0.00    +0.000 NA
ATOM     26  H   UNL     1      49.751   6.840  12.539  0.00  0.00    +0.000 HD
ATOM     27  H   UNL     1      49.672   8.446  12.805  0.00  0.00    +0.000 HD
ENDBRANCH  20  21
ENDBRANCH  19  20
ENDBRANCH   2  15
ENDBRANCH   4   2
TORSDOF 6
ENDMDL
MODEL 3
REMARK VINA RESULT:    -7.610      1.322      1.541
REMARK INTER + INTRA:         -10.836
REMARK INTER:                  -9.969
REMARK INTRA:                  -0.867
REMARK UNBOUND:                -0.780
REMARK  Name = 
REMARK  8 active torsions:
REMARK  status: ('A' for Active; 'I' for Inactive)
REMARK    1  A    between atoms: C_1  and  C_2
REMARK    2  A    between atoms: C_2  and  C_3
REMARK    3  A    between atoms: C_2  and  C_4
REMARK    4  A    between atoms: C_2  and  C_15
REMARK    5  A    between atoms: C_4  and  N_5
REMARK    6  A    between atoms: C_9  and  C_10
REMARK    7  A    between atoms: C_19  and  C_20
REMARK    8  A    between atoms: C_20  and  N_21
REMARK                            x       y       z     vdW  Elec       q    Type
REMARK                         _______ _______ _______ _____ _____    ______ ____
ROOT
ATOM      4  C   UNL     1      43.399   4.100  10.690  0.00  0.00    +0.000 C 
ENDROOT
BRANCH   4   5
ATOM      5  N   UNL     1      44.373   3.031  10.520  0.00  0.00    +0.000 N 
ATOM      6  C   UNL     1      45.107   2.929   9.354  0.00  0.00    +0.000 A 
ATOM      7  C   UNL     1      45.491   4.023   8.586  0.00  0.00    +0.000 A 
ATOM      8  C   UNL     1      46.293   3.832   7.461  0.00  0.00    +0.000 A 
ATOM      9  C   UNL     1      46.728   2.551   7.131  0.00  0.00    +0.000 A 
ATOM     13  C   UNL     1      46.306   1.519   7.951  0.00  0.00    +0.000 A 
ATOM     14  N   UNL     1      45.508   1.683   9.038  0.00  0.00    +0.000 NA
ATOM     23  H   UNL     1      44.056   2.096  10.774  0.00  0.00    +0.000 HD
BRANCH   9  10
ATOM     10  C   UNL     1      47.618   2.370   5.953  0.00  0.00    +0.000 C 
ATOM     11  N   UNL     1      47.465   3.187   4.873  0.00  0.00    +0.000 N 
ATOM     12  O   UNL     1      48.480   1.493   5.946  0.00  0.00    +0.000 OA
ATOM     24  H   UNL     1      46.775   3.917   4.763  0.00  0.00    +0.000 HD
ATOM     25  H   UNL     1      48.083   3.012   4.086  0.00  0.00    +0.000 HD
ENDBRANCH   9  10
ENDBRANCH   4   5
BRANCH   4   2
ATOM      1  C   UNL     1      42.473   5.944  12.150  0.00  0.00    +0.000 C 
ATOM      2  C   UNL     1      43.551   4.833  12.062  0.00  0.00    +0.000 C 
ATOM      3  C   UNL     1      43.226   3.801  13.170  0.00  0.00    +0.000 C 
BRANCH   2  15
ATOM     15  C   UNL     1      44.982   5.371  12.265  0.00  0.00    +0.000 A 
ATOM     16  C   UNL     1      45.569   6.222  11.313  0.00  0.00    +0.000 A 
ATOM     17  C   UNL     1      46.839   6.764  11.516  0.00  0.00    +0.000 A 
ATOM     18  C   UNL     1      47.552   6.474  12.678  0.00  0.00    +0.000 A 
ATOM     19  C   UNL     1      47.017   5.613  13.639  0.00  0.00    +0.000 A 
ATOM     22  C   UNL     1      45.739   5.072  13.414  0.00  0.00    +0.000 A 
BRANCH  19  20
ATOM     20  C   UNL     1      47.702   5.338  14.957  0.00  0.00    +0.000 C 
BRANCH  20  21
ATOM     21  N   UNL     1      48.784   6.264  15.267  0.00  0.00    +0.000 NA
ATOM     26  H   UNL     1      48.377   7.141  15.588  0.00  0.00    +0.000 HD
ATOM     27  H   UNL     1      49.285   6.480  14.407  0.00  0.00    +0.000 HD
ENDBRANCH  20  21
ENDBRANCH  19  20
ENDBRANCH   2  15
ENDBRANCH   4   2
TORSDOF 6
ENDMDL
MODEL 4
REMARK VINA RESULT:    -6.779      3.403      6.400
REMARK INTER + INTRA:          -9.738
REMARK INTER:                  -8.871
REMARK INTRA:                  -0.867
REMARK UNBOUND:                -0.780
REMARK  Name = 
REMARK  8 active torsions:
REMARK  status: ('A' for Active; 'I' for Inactive)
REMARK    1  A    between atoms: C_1  and  C_2
REMARK    2  A    between atoms: C_2  and  C_3
REMARK    3  A    between atoms: C_2  and  C_4
REMARK    4  A    between atoms: C_2  and  C_15
REMARK    5  A    between atoms: C_4  and  N_5
REMARK    6  A    between atoms: C_9  and  C_10
REMARK    7  A    between atoms: C_19  and  C_20
REMARK    8  A    between atoms: C_20  and  N_21
REMARK                            x       y       z     vdW  Elec       q    Type
REMARK                         _______ _______ _______ _____ _____    ______ ____
ROOT
ATOM      4  C   UNL     1      45.071   4.605  12.370  0.00  0.00    +0.000 C 
ENDROOT
BRANCH   4   5
ATOM      5  N   UNL     1      44.912   6.043  12.528  0.00  0.00    +0.000 N 
ATOM      6  C   UNL     1      46.006   6.884  12.452  0.00  0.00    +0.000 A 
ATOM      7  C   UNL     1      47.118   6.632  11.655  0.00  0.00    +0.000 A 
ATOM      8  C   UNL     1      48.146   7.572  11.584  0.00  0.00    +0.000 A 
ATOM      9  C   UNL     1      48.040   8.768  12.290  0.00  0.00    +0.000 A 
ATOM     13  C   UNL     1      46.899   8.942  13.054  0.00  0.00    +0.000 A 
ATOM     14  N   UNL     1      45.897   8.029  13.152  0.00  0.00    +0.000 NA
ATOM     23  H   UNL     1      44.340   6.343  13.317  0.00  0.00    +0.000 HD
BRANCH   9  10
ATOM     10  C   UNL     1      49.125   9.777  12.171  0.00  0.00    +0.000 C 
ATOM     11  N   UNL     1      49.952   9.993  13.233  0.00  0.00    +0.000 N 
ATOM     12  O   UNL     1      49.278  10.417  11.131  0.00  0.00    +0.000 OA
ATOM     24  H   UNL     1      49.898   9.546  14.138  0.00  0.00    +0.000 HD
ATOM     25  H   UNL     1      50.665  10.706  13.109  0.00  0.00    +0.000 HD
ENDBRANCH   9  10
ENDBRANCH   4   5
BRANCH   4   2
ATOM      1  C   UNL     1      43.450   2.741  11.834  0.00  0.00    +0.000 C 
ATOM      2  C   UNL     1      44.127   4.017  11.271  0.00  0.00    +0.000 C 
ATOM      3  C   UNL     1      43.003   5.056  11.033  0.00  0.00    +0.000 C 
BRANCH   2  15
ATOM     15  C   UNL     1      44.880   3.762   9.951  0.00  0.00    +0.000 A 
ATOM     16  C   UNL     1      45.341   4.835   9.169  0.00  0.00    +0.000 A 
ATOM     17  C   UNL     1      46.077   4.614   8.003  0.00  0.00    +0.000 A 
ATOM     18  C   UNL     1      46.374   3.316   7.592  0.00  0.00    +0.000 A 
ATOM     19  C   UNL     1      45.914   2.220   8.325  0.00  0.00    +0.000 A 
ATOM     22  C   UNL     1      45.169   2.461   9.494  0.00  0.00    +0.000 A 
BRANCH  19  20
ATOM     20  C   UNL     1      46.284   0.796   7.981  0.00  0.00    +0.000 C 
BRANCH  20  21
ATOM     21  N   UNL     1      47.180   0.678   6.836  0.00  0.00    +0.000 NA
ATOM     26  H   UNL     1      47.436  -0.302   6.726  0.00  0.00    +0.000 HD
ATOM     27  H   UNL     1      48.042   1.178   7.043  0.00  0.00    +0.000 HD
ENDBRANCH  20  21
ENDBRANCH  19  20
ENDBRANCH   2  15
ENDBRANCH   4   2
TORSDOF 6
ENDMDL
MODEL 5
REMARK VINA RESULT:    -6.731      3.652      6.368
REMARK INTER + INTRA:          -9.675
REMARK INTER:                  -9.093
REMARK INTRA:                  -0.582
REMARK UNBOUND:                -0.780
REMARK  Name = 
REMARK  8 active torsions:
REMARK  status: ('A' for Active; 'I' for Inactive)
REMARK    1  A    between atoms: C_1  and  C_2
REMARK    2  A    between atoms: C_2  and  C_3
REMARK    3  A    between atoms: C_2  and  C_4
REMARK    4  A    between atoms: C_2  and  C_15
REMARK    5  A    between atoms: C_4  and  N_5
REMARK    6  A    between atoms: C_9  and  C_10
REMARK    7  A    between atoms: C_19  and  C_20
REMARK    8  A    between atoms: C_20  and  N_21
REMARK                            x       y       z     vdW  Elec       q    Type
REMARK                         _______ _______ _______ _____ _____    ______ ____
ROOT
ATOM      4  C   UNL     1      47.719   4.882  15.986  0.00  0.00    +0.000 C 
ENDROOT
BRANCH   4   5
ATOM      5  N   UNL     1      47.426   3.868  14.984  0.00  0.00    +0.000 N 
ATOM      6  C   UNL     1      46.700   4.188  13.853  0.00  0.00    +0.000 A 
ATOM      7  C   UNL     1      46.732   5.437  13.243  0.00  0.00    +0.000 A 
ATOM      8  C   UNL     1      46.021   5.650  12.062  0.00  0.00    +0.000 A 
ATOM      9  C   UNL     1      45.306   4.603  11.487  0.00  0.00    +0.000 A 
ATOM     13  C   UNL     1      45.331   3.390  12.154  0.00  0.00    +0.000 A 
ATOM     14  N   UNL     1      46.000   3.170  13.316  0.00  0.00    +0.000 NA
ATOM     23  H   UNL     1      47.077   2.979  15.340  0.00  0.00    +0.000 HD
BRANCH   9  10
ATOM     10  C   UNL     1      44.588   4.834  10.205  0.00  0.00    +0.000 C 
ATOM     11  N   UNL     1      45.307   4.948   9.052  0.00  0.00    +0.000 N 
ATOM     12  O   UNL     1      43.362   4.926  10.178  0.00  0.00    +0.000 OA
ATOM     24  H   UNL     1      46.313   4.915   8.965  0.00  0.00    +0.000 HD
ATOM     25  H   UNL     1      44.773   5.124   8.206  0.00  0.00    +0.000 HD
ENDBRANCH   9  10
ENDBRANCH   4   5
BRANCH   4   2
ATOM      1  C   UNL     1      47.341   5.176  18.468  0.00  0.00    +0.000 C 
ATOM      2  C   UNL     1      47.994   4.266  17.396  0.00  0.00    +0.000 C 
ATOM      3  C   UNL     1      47.257   2.905  17.451  0.00  0.00    +0.000 C 
BRANCH   2  15
ATOM     15  C   UNL     1      49.501   4.045  17.637  0.00  0.00    +0.000 A 
ATOM     16  C   UNL     1      50.288   5.052  18.221  0.00  0.00    +0.000 A 
ATOM     17  C   UNL     1      51.640   4.839  18.499  0.00  0.00    +0.000 A 
ATOM     18  C   UNL     1      52.236   3.614  18.206  0.00  0.00    +0.000 A 
ATOM     19  C   UNL     1      51.497   2.594  17.603  0.00  0.00    +0.000 A 
ATOM     22  C   UNL     1      50.138   2.828  17.325  0.00  0.00    +0.000 A 
BRANCH  19  20
ATOM     20  C   UNL     1      52.064   1.217  17.350  0.00  0.00    +0.000 C 
BRANCH  20  21
ATOM     21  N   UNL     1      51.508   0.181  18.212  0.00  0.00    +0.000 NA
ATOM     26  H   UNL     1      50.748  -0.281  17.715  0.00  0.00    +0.000 HD
ATOM     27  H   UNL     1      51.089   0.624  19.027  0.00  0.00    +0.000 HD
ENDBRANCH  20  21
ENDBRANCH  19  20
ENDBRANCH   2  15
ENDBRANCH   4   2
TORSDOF 6
ENDMDL
MODEL 6
REMARK VINA RESULT:    -6.689      3.353      7.557
REMARK INTER + INTRA:          -9.620
REMARK INTER:                  -9.051
REMARK INTRA:                  -0.569
REMARK UNBOUND:                -0.780
REMARK  Name = 
REMARK  8 active torsions:
REMARK  status: ('A' for Active; 'I' for Inactive)
REMARK    1  A    between atoms: C_1  and  C_2
REMARK    2  A    between atoms: C_2  and  C_3
REMARK    3  A    between atoms: C_2  and  C_4
REMARK    4  A    between atoms: C_2  and  C_15
REMARK    5  A    between atoms: C_4  and  N_5
REMARK    6  A    between atoms: C_9  and  C_10
REMARK    7  A    between atoms: C_19  and  C_20
REMARK    8  A    between atoms: C_20  and  N_21
REMARK                            x       y       z     vdW  Elec       q    Type
REMARK                         _______ _______ _______ _____ _____    ______ ____
ROOT
ATOM      4  C   UNL     1      45.709   5.553  13.256  0.00  0.00    +0.000 C 
ENDROOT
BRANCH   4   5
ATOM      5  N   UNL     1      47.062   5.825  13.718  0.00  0.00    +0.000 N 
ATOM      6  C   UNL     1      47.498   5.345  14.938  0.00  0.00    +0.000 A 
ATOM      7  C   UNL     1      47.054   4.154  15.501  0.00  0.00    +0.000 A 
ATOM      8  C   UNL     1      47.602   3.711  16.706  0.00  0.00    +0.000 A 
ATOM      9  C   UNL     1      48.609   4.451  17.321  0.00  0.00    +0.000 A 
ATOM     13  C   UNL     1      48.997   5.620  16.690  0.00  0.00    +0.000 A 
ATOM     14  N   UNL     1      48.460   6.078  15.530  0.00  0.00    +0.000 NA
ATOM     23  H   UNL     1      47.376   6.791  13.630  0.00  0.00    +0.000 HD
BRANCH   9  10
ATOM     10  C   UNL     1      49.213   3.943  18.581  0.00  0.00    +0.000 C 
ATOM     11  N   UNL     1      48.421   3.297  19.484  0.00  0.00    +0.000 N 
ATOM     12  O   UNL     1      50.410   4.103  18.815  0.00  0.00    +0.000 OA
ATOM     24  H   UNL     1      47.427   3.137  19.405  0.00  0.00    +0.000 HD
ATOM     25  H   UNL     1      48.875   2.986  20.338  0.00  0.00    +0.000 HD
ENDBRANCH   9  10
ENDBRANCH   4   5
BRANCH   4   2
ATOM      1  C   UNL     1      44.400   7.043  11.689  0.00  0.00    +0.000 C 
ATOM      2  C   UNL     1      45.497   5.950  11.759  0.00  0.00    +0.000 C 
ATOM      3  C   UNL     1      46.814   6.603  11.270  0.00  0.00    +0.000 C 
BRANCH   2  15
ATOM     15  C   UNL     1      45.175   4.723  10.884  0.00  0.00    +0.000 A 
ATOM     16  C   UNL     1      44.375   3.680  11.380  0.00  0.00    +0.000 A 
ATOM     17  C   UNL     1      44.026   2.593  10.575  0.00  0.00    +0.000 A 
ATOM     18  C   UNL     1      44.464   2.525   9.253  0.00  0.00    +0.000 A 
ATOM     19  C   UNL     1      45.281   3.528   8.727  0.00  0.00    +0.000 A 
ATOM     22  C   UNL     1      45.627   4.612   9.555  0.00  0.00    +0.000 A 
BRANCH  19  20
ATOM     20  C   UNL     1      45.707   3.555   7.278  0.00  0.00    +0.000 C 
BRANCH  20  21
ATOM     21  N   UNL     1      46.973   4.240   7.046  0.00  0.00    +0.000 NA
ATOM     26  H   UNL     1      47.695   3.539   6.882  0.00  0.00    +0.000 HD
ATOM     27  H   UNL     1      47.239   4.731   7.898  0.00  0.00    +0.000 HD
ENDBRANCH  20  21
ENDBRANCH  19  20
ENDBRANCH   2  15
ENDBRANCH   4   2
TORSDOF 6
ENDMDL
MODEL 7
REMARK VINA RESULT:    -6.645      2.082      3.186
REMARK INTER + INTRA:          -9.561
REMARK INTER:                  -8.725
REMARK INTRA:                  -0.836
REMARK UNBOUND:                -0.780
REMARK  Name = 
REMARK  8 active torsions:
REMARK  status: ('A' for Active; 'I' for Inactive)
REMARK    1  A    between atoms: C_1  and  C_2
REMARK    2  A    between atoms: C_2  and  C_3
REMARK    3  A    between atoms: C_2  and  C_4
REMARK    4  A    between atoms: C_2  and  C_15
REMARK    5  A    between atoms: C_4  and  N_5
REMARK    6  A    between atoms: C_9  and  C_10
REMARK    7  A    between atoms: C_19  and  C_20
REMARK    8  A    between atoms: C_20  and  N_21
REMARK                            x       y       z     vdW  Elec       q    Type
REMARK                         _______ _______ _______ _____ _____    ______ ____
ROOT
ATOM      4  C   UNL     1      43.815   4.604  10.800  0.00  0.00    +0.000 C 
ENDROOT
BRANCH   4   5
ATOM      5  N   UNL     1      44.581   3.387  10.571  0.00  0.00    +0.000 N 
ATOM      6  C   UNL     1      45.293   3.216   9.400  0.00  0.00    +0.000 A 
ATOM      7  C   UNL     1      45.874   4.261   8.690  0.00  0.00    +0.000 A 
ATOM      8  C   UNL     1      46.637   3.988   7.554  0.00  0.00    +0.000 A 
ATOM      9  C   UNL     1      46.835   2.668   7.156  0.00  0.00    +0.000 A 
ATOM     13  C   UNL     1      46.228   1.688   7.921  0.00  0.00    +0.000 A 
ATOM     14  N   UNL     1      45.464   1.936   9.017  0.00  0.00    +0.000 NA
ATOM     23  H   UNL     1      44.098   2.513  10.776  0.00  0.00    +0.000 HD
BRANCH   9  10
ATOM     10  C   UNL     1      47.686   2.391   5.969  0.00  0.00    +0.000 C 
ATOM     11  N   UNL     1      47.625   3.231   4.897  0.00  0.00    +0.000 N 
ATOM     12  O   UNL     1      48.435   1.416   5.945  0.00  0.00    +0.000 OA
ATOM     24  H   UNL     1      47.028   4.041   4.800  0.00  0.00    +0.000 HD
ATOM     25  H   UNL     1      48.211   2.989   4.103  0.00  0.00    +0.000 HD
ENDBRANCH   9  10
ENDBRANCH   4   5
BRANCH   4   2
ATOM      1  C   UNL     1      42.666   5.512  12.860  0.00  0.00    +0.000 C 
ATOM      2  C   UNL     1      44.046   5.195  12.228  0.00  0.00    +0.000 C 
ATOM      3  C   UNL     1      44.687   4.076  13.087  0.00  0.00    +0.000 C 
BRANCH   2  15
ATOM     15  C   UNL     1      44.983   6.418  12.194  0.00  0.00    +0.000 A 
ATOM     16  C   UNL     1      46.377   6.252  12.150  0.00  0.00    +0.000 A 
ATOM     17  C   UNL     1      47.232   7.352  12.057  0.00  0.00    +0.000 A 
ATOM     18  C   UNL     1      46.714   8.645  12.000  0.00  0.00    +0.000 A 
ATOM     19  C   UNL     1      45.335   8.857  12.066  0.00  0.00    +0.000 A 
ATOM     22  C   UNL     1      44.490   7.738  12.166  0.00  0.00    +0.000 A 
BRANCH  19  20
ATOM     20  C   UNL     1      44.714  10.226  11.915  0.00  0.00    +0.000 C 
BRANCH  20  21
ATOM     21  N   UNL     1      45.320  11.039  10.867  0.00  0.00    +0.000 NA
ATOM     26  H   UNL     1      45.035  10.666   9.963  0.00  0.00    +0.000 HD
ATOM     27  H   UNL     1      46.332  10.931  10.915  0.00  0.00    +0.000 HD
ENDBRANCH  20  21
ENDBRANCH  19  20
ENDBRANCH   2  15
ENDBRANCH   4   2
TORSDOF 6
ENDMDL
MODEL 8
REMARK VINA RESULT:    -6.474      3.109      7.190
REMARK INTER + INTRA:          -9.335
REMARK INTER:                  -8.796
REMARK INTRA:                  -0.539
REMARK UNBOUND:                -0.780
REMARK  Name = 
REMARK  8 active torsions:
REMARK  status: ('A' for Active; 'I' for Inactive)
REMARK    1  A    between atoms: C_1  and  C_2
REMARK    2  A    between atoms: C_2  and  C_3
REMARK    3  A    between atoms: C_2  and  C_4
REMARK    4  A    between atoms: C_2  and  C_15
REMARK    5  A    between atoms: C_4  and  N_5
REMARK    6  A    between atoms: C_9  and  C_10
REMARK    7  A    between atoms: C_19  and  C_20
REMARK    8  A    between atoms: C_20  and  N_21
REMARK                            x       y       z     vdW  Elec       q    Type
REMARK                         _______ _______ _______ _____ _____    ______ ____
ROOT
ATOM      4  C   UNL     1      45.465   4.912  12.253  0.00  0.00    +0.000 C 
ENDROOT
BRANCH   4   5
ATOM      5  N   UNL     1      45.492   4.410  13.619  0.00  0.00    +0.000 N 
ATOM      6  C   UNL     1      46.564   4.684  14.446  0.00  0.00    +0.000 A 
ATOM      7  C   UNL     1      47.316   5.851  14.373  0.00  0.00    +0.000 A 
ATOM      8  C   UNL     1      48.338   6.076  15.297  0.00  0.00    +0.000 A 
ATOM      9  C   UNL     1      48.578   5.143  16.302  0.00  0.00    +0.000 A 
ATOM     13  C   UNL     1      47.780   4.013  16.308  0.00  0.00    +0.000 A 
ATOM     14  N   UNL     1      46.796   3.766  15.404  0.00  0.00    +0.000 NA
ATOM     23  H   UNL     1      45.248   3.427  13.736  0.00  0.00    +0.000 HD
BRANCH   9  10
ATOM     10  C   UNL     1      49.642   5.418  17.305  0.00  0.00    +0.000 C 
ATOM     11  N   UNL     1      49.602   6.583  18.013  0.00  0.00    +0.000 N 
ATOM     12  O   UNL     1      50.551   4.611  17.495  0.00  0.00    +0.000 OA
ATOM     24  H   UNL     1      48.921   7.322  17.917  0.00  0.00    +0.000 HD
ATOM     25  H   UNL     1      50.361   6.733  18.672  0.00  0.00    +0.000 HD
ENDBRANCH   9  10
ENDBRANCH   4   5
BRANCH   4   2
ATOM      1  C   UNL     1      43.946   2.895  12.131  0.00  0.00    +0.000 C 
ATOM      2  C   UNL     1      44.445   4.141  11.354  0.00  0.00    +0.000 C 
ATOM      3  C   UNL     1      43.220   5.068  11.154  0.00  0.00    +0.000 C 
BRANCH   2  15
ATOM     15  C   UNL     1      45.050   3.785   9.981  0.00  0.00    +0.000 A 
ATOM     16  C   UNL     1      45.469   4.796   9.099  0.00  0.00    +0.000 A 
ATOM     17  C   UNL     1      46.075   4.485   7.880  0.00  0.00    +0.000 A 
ATOM     18  C   UNL     1      46.281   3.156   7.515  0.00  0.00    +0.000 A 
ATOM     19  C   UNL     1      45.858   2.119   8.350  0.00  0.00    +0.000 A 
ATOM     22  C   UNL     1      45.245   2.452   9.571  0.00  0.00    +0.000 A 
BRANCH  19  20
ATOM     20  C   UNL     1      46.139   0.665   8.050  0.00  0.00    +0.000 C 
BRANCH  20  21
ATOM     21  N   UNL     1      47.143   0.458   7.013  0.00  0.00    +0.000 NA
ATOM     26  H   UNL     1      46.760   0.779   6.125  0.00  0.00    +0.000 HD
ATOM     27  H   UNL     1      47.304  -0.542   6.911  0.00  0.00    +0.000 HD
ENDBRANCH  20  21
ENDBRANCH  19  20
ENDBRANCH   2  15
ENDBRANCH   4   2
TORSDOF 6
ENDMDL
MODEL 9
REMARK VINA RESULT:    -6.317      3.872      6.087
REMARK INTER + INTRA:          -9.127
REMARK INTER:                  -8.253
REMARK INTRA:                  -0.874
REMARK UNBOUND:                -0.780
REMARK  Name = 
REMARK  8 active torsions:
REMARK  status: ('A' for Active; 'I' for Inactive)
REMARK    1  A    between atoms: C_1  and  C_2
REMARK    2  A    between atoms: C_2  and  C_3
REMARK    3  A    between atoms: C_2  and  C_4
REMARK    4  A    between atoms: C_2  and  C_15
REMARK    5  A    between atoms: C_4  and  N_5
REMARK    6  A    between atoms: C_9  and  C_10
REMARK    7  A    between atoms: C_19  and  C_20
REMARK    8  A    between atoms: C_20  and  N_21
REMARK                            x       y       z     vdW  Elec       q    Type
REMARK                         _______ _______ _______ _____ _____    ______ ____
ROOT
ATOM      4  C   UNL     1      48.745   7.006  14.154  0.00  0.00    +0.000 C 
ENDROOT
BRANCH   4   5
ATOM      5  N   UNL     1      47.315   7.220  13.993  0.00  0.00    +0.000 N 
ATOM      6  C   UNL     1      46.517   6.242  13.432  0.00  0.00    +0.000 A 
ATOM      7  C   UNL     1      46.763   4.879  13.557  0.00  0.00    +0.000 A 
ATOM      8  C   UNL     1      45.864   3.960  13.017  0.00  0.00    +0.000 A 
ATOM      9  C   UNL     1      44.711   4.413  12.380  0.00  0.00    +0.000 A 
ATOM     13  C   UNL     1      44.538   5.784  12.305  0.00  0.00    +0.000 A 
ATOM     14  N   UNL     1      45.413   6.694  12.805  0.00  0.00    +0.000 NA
ATOM     23  H   UNL     1      47.041   8.117  13.592  0.00  0.00    +0.000 HD
BRANCH   9  10
ATOM     10  C   UNL     1      43.741   3.420  11.848  0.00  0.00    +0.000 C 
ATOM     11  N   UNL     1      43.659   2.191  12.433  0.00  0.00    +0.000 N 
ATOM     12  O   UNL     1      43.021   3.695  10.889  0.00  0.00    +0.000 OA
ATOM     24  H   UNL     1      44.219   1.853  13.203  0.00  0.00    +0.000 HD
ATOM     25  H   UNL     1      42.996   1.541  12.021  0.00  0.00    +0.000 HD
ENDBRANCH   9  10
ENDBRANCH   4   5
BRANCH   4   2
ATOM      1  C   UNL     1      50.839   7.763  15.351  0.00  0.00    +0.000 C 
ATOM      2  C   UNL     1      49.299   7.634  15.473  0.00  0.00    +0.000 C 
ATOM      3  C   UNL     1      48.733   9.073  15.566  0.00  0.00    +0.000 C 
BRANCH   2  15
ATOM     15  C   UNL     1      48.863   6.830  16.714  0.00  0.00    +0.000 A 
ATOM     16  C   UNL     1      48.563   7.481  17.922  0.00  0.00    +0.000 A 
ATOM     17  C   UNL     1      48.109   6.768  19.033  0.00  0.00    +0.000 A 
ATOM     18  C   UNL     1      47.939   5.386  18.962  0.00  0.00    +0.000 A 
ATOM     19  C   UNL     1      48.249   4.695  17.789  0.00  0.00    +0.000 A 
ATOM     22  C   UNL     1      48.710   5.430  16.682  0.00  0.00    +0.000 A 
BRANCH  19  20
ATOM     20  C   UNL     1      47.995   3.215  17.624  0.00  0.00    +0.000 C 
BRANCH  20  21
ATOM     21  N   UNL     1      46.583   2.851  17.641  0.00  0.00    +0.000 NA
ATOM     26  H   UNL     1      46.052   3.593  17.186  0.00  0.00    +0.000 HD
ATOM     27  H   UNL     1      46.265   2.824  18.608  0.00  0.00    +0.000 HD
ENDBRANCH  20  21
ENDBRANCH  19  20
ENDBRANCH   2  15
ENDBRANCH   4   2
TORSDOF 6
ENDMDL
