MODEL 1
REMARK VINA RESULT:    -7.485      0.000      0.000
REMARK INTER + INTRA:          -8.746
REMARK INTER:                  -8.798
REMARK INTRA:                   0.051
REMARK UNBOUND:                 0.051
REMARK  Name = 
REMARK  5 active torsions:
REMARK  status: ('A' for Active; 'I' for Inactive)
REMARK    1  A    between atoms: C_1  and  C_2
REMARK    2  A    between atoms: C_2  and  C_3
REMARK    3  A    between atoms: C_2  and  N_4
REMARK    4  A    between atoms: C_2  and  C_14
REMARK    5  A    between atoms: C_8  and  C_9
REMARK                            x       y       z     vdW  Elec       q    Type
REMARK                         _______ _______ _______ _____ _____    ______ ____
ROOT
ATOM      4  N   UNL     1      43.681   3.756  10.967  0.00  0.00    +0.000 N 
ATOM      5  C   UNL     1      44.478   3.460   9.869  0.00  0.00    +0.000 A 
ATOM      6  C   UNL     1      44.815   2.125   9.650  0.00  0.00    +0.000 A 
ATOM      7  C   UNL     1      45.700   1.796   8.623  0.00  0.00    +0.000 A 
ATOM      8  C   UNL     1      46.203   2.803   7.799  0.00  0.00    +0.000 A 
ATOM     12  C   UNL     1      45.759   4.091   8.047  0.00  0.00    +0.000 A 
ATOM     13  N   UNL     1      44.912   4.432   9.050  0.00  0.00    +0.000 NA
ATOM     20  H   UNL     1      42.732   3.446  10.785  0.00  0.00    +0.000 HD
ENDROOT
BRANCH   8   9
ATOM      9  C   UNL     1      47.178   2.458   6.737  0.00  0.00    +0.000 C 
ATOM     10  N   UNL     1      47.223   3.220   5.601  0.00  0.00    +0.000 N 
ATOM     11  O   UNL     1      47.945   1.512   6.869  0.00  0.00    +0.000 OA
ATOM     21  H   UNL     1      46.657   4.028   5.403  0.00  0.00    +0.000 HD
ATOM     22  H   UNL     1      47.919   2.956   4.913  0.00  0.00    +0.000 HD
ENDBRANCH   8   9
BRANCH   4   2
ATOM      1  C   UNL     1      43.343   6.215  10.664  0.00  0.00    +0.000 C 
ATOM      2  C   UNL     1      43.718   5.074  11.640  0.00  0.00    +0.000 C 
ATOM      3  C   UNL     1      42.772   5.053  12.857  0.00  0.00    +0.000 C 
BRANCH   2  14
ATOM     14  C   UNL     1      45.164   5.332  12.145  0.00  0.00    +0.000 A 
ATOM     15  C   UNL     1      45.920   6.406  11.629  0.00  0.00    +0.000 A 
ATOM     16  C   UNL     1      47.222   6.663  12.067  0.00  0.00    +0.000 A 
ATOM     17  C   UNL     1      47.799   5.859  13.045  0.00  0.00    +0.000 A 
ATOM     18  C   UNL     1      47.081   4.790  13.570  0.00  0.00    +0.000 A 
ATOM     19  C   UNL     1      45.782   4.524  13.120  0.00  0.00    +0.000 A 
ENDBRANCH   2  14
ENDBRANCH   4   2
TORSDOF 3
ENDMDL
MODEL 2
REMARK VINA RESULT:    -6.337      3.251      6.042
REMARK INTER + INTRA:          -7.397
REMARK INTER:                  -7.760
REMARK INTRA:                   0.363
REMARK UNBOUND:                 0.051
REMARK  Name = 
REMARK  5 active torsions:
REMARK  status: ('A' for Active; 'I' for Inactive)
REMARK    1  A    between atoms: C_1  and  C_2
REMARK    2  A    between atoms: C_2  and  C_3
REMARK    3  A    between atoms: C_2  and  N_4
REMARK    4  A    between atoms: C_2  and  C_14
REMARK    5  A    between atoms: C_8  and  C_9
REMARK                            x       y       z     vdW  Elec       q    Type
REMARK                         _______ _______ _______ _____ _____    ______ ____
ROOT
ATOM      4  N   UNL     1      45.435   3.453  12.505  0.00  0.00    +0.000 N 
ATOM      5  C   UNL     1      46.210   4.519  12.941  0.00  0.00    +0.000 A 
ATOM      6  C   UNL     1      46.778   4.434  14.211  0.00  0.00    +0.000 A 
ATOM      7  C   UNL     1      47.474   5.527  14.731  0.00  0.00    +0.000 A 
ATOM      8  C   UNL     1      47.631   6.675  13.954  0.00  0.00    +0.000 A 
ATOM     12  C   UNL     1      47.092   6.643  12.679  0.00  0.00    +0.000 A 
ATOM     13  N   UNL     1      46.401   5.597  12.163  0.00  0.00    +0.000 NA
ATOM     20  H   UNL     1      46.039   2.666  12.287  0.00  0.00    +0.000 HD
ENDROOT
BRANCH   8   9
ATOM      9  C   UNL     1      48.330   7.851  14.523  0.00  0.00    +0.000 C 
ATOM     10  N   UNL     1      47.592   8.902  14.993  0.00  0.00    +0.000 N 
ATOM     11  O   UNL     1      49.554   7.888  14.587  0.00  0.00    +0.000 OA
ATOM     21  H   UNL     1      46.588   8.964  15.010  0.00  0.00    +0.000 HD
ATOM     22  H   UNL     1      48.115   9.675  15.391  0.00  0.00    +0.000 HD
ENDBRANCH   8   9
BRANCH   4   2
ATOM      1  C   UNL     1      43.260   2.536  11.682  0.00  0.00    +0.000 C 
ATOM      2  C   UNL     1      44.353   3.616  11.508  0.00  0.00    +0.000 C 
ATOM      3  C   UNL     1      43.757   5.033  11.627  0.00  0.00    +0.000 C 
BRANCH   2  14
ATOM     14  C   UNL     1      44.962   3.456  10.087  0.00  0.00    +0.000 A 
ATOM     15  C   UNL     1      45.191   2.172   9.549  0.00  0.00    +0.000 A 
ATOM     16  C   UNL     1      45.735   1.998   8.273  0.00  0.00    +0.000 A 
ATOM     17  C   UNL     1      46.052   3.106   7.495  0.00  0.00    +0.000 A 
ATOM     18  C   UNL     1      45.842   4.385   8.000  0.00  0.00    +0.000 A 
ATOM     19  C   UNL     1      45.311   4.559   9.283  0.00  0.00    +0.000 A 
ENDBRANCH   2  14
ENDBRANCH   4   2
TORSDOF 3
ENDMDL
MODEL 3
REMARK VINA RESULT:    -6.302      3.266      5.975
REMARK INTER + INTRA:          -7.355
REMARK INTER:                  -7.740
REMARK INTRA:                   0.385
REMARK UNBOUND:                 0.051
REMARK  Name = 
REMARK  5 active torsions:
REMARK  status: ('A' for Active; 'I' for Inactive)
REMARK    1  A    between atoms: C_1  and  C_2
REMARK    2  A    between atoms: C_2  and  C_3
REMARK    3  A    between atoms: C_2  and  N_4
REMARK    4  A    between atoms: C_2  and  C_14
REMARK    5  A    between atoms: C_8  and  C_9
REMARK                            x       y       z     vdW  Elec       q    Type
REMARK                         _______ _______ _______ _____ _____    ______ ____
ROOT
ATOM      4  N   UNL     1      45.465   3.459  12.517  0.00  0.00    +0.000 N 
ATOM      5  C   UNL     1      46.221   4.539  12.954  0.00  0.00    +0.000 A 
ATOM      6  C   UNL     1      46.803   4.457  14.218  0.00  0.00    +0.000 A 
ATOM      7  C   UNL     1      47.480   5.560  14.739  0.00  0.00    +0.000 A 
ATOM      8  C   UNL     1      47.604   6.717  13.970  0.00  0.00    +0.000 A 
ATOM     12  C   UNL     1      47.054   6.683  12.700  0.00  0.00    +0.000 A 
ATOM     13  N   UNL     1      46.380   5.627  12.183  0.00  0.00    +0.000 NA
ATOM     20  H   UNL     1      46.084   2.687  12.288  0.00  0.00    +0.000 HD
ENDROOT
BRANCH   8   9
ATOM      9  C   UNL     1      48.284   7.904  14.541  0.00  0.00    +0.000 C 
ATOM     10  N   UNL     1      47.528   8.915  15.068  0.00  0.00    +0.000 N 
ATOM     11  O   UNL     1      49.507   7.984  14.556  0.00  0.00    +0.000 OA
ATOM     21  H   UNL     1      46.524   8.939  15.126  0.00  0.00    +0.000 HD
ATOM     22  H   UNL     1      48.038   9.696  15.464  0.00  0.00    +0.000 HD
ENDBRANCH   8   9
BRANCH   4   2
ATOM      1  C   UNL     1      43.279   2.530  11.739  0.00  0.00    +0.000 C 
ATOM      2  C   UNL     1      44.370   3.606  11.532  0.00  0.00    +0.000 C 
ATOM      3  C   UNL     1      43.776   5.025  11.636  0.00  0.00    +0.000 C 
BRANCH   2  14
ATOM     14  C   UNL     1      44.960   3.423  10.106  0.00  0.00    +0.000 A 
ATOM     15  C   UNL     1      45.294   4.548   9.323  0.00  0.00    +0.000 A 
ATOM     16  C   UNL     1      45.829   4.414   8.039  0.00  0.00    +0.000 A 
ATOM     17  C   UNL     1      46.057   3.149   7.508  0.00  0.00    +0.000 A 
ATOM     18  C   UNL     1      45.734   2.021   8.255  0.00  0.00    +0.000 A 
ATOM     19  C   UNL     1      45.185   2.155   9.535  0.00  0.00    +0.000 A 
ENDBRANCH   2  14
ENDBRANCH   4   2
TORSDOF 3
ENDMDL
MODEL 4
REMARK VINA RESULT:    -6.213      3.404      6.113
REMARK INTER + INTRA:          -7.252
REMARK INTER:                  -7.828
REMARK INTRA:                   0.576
REMARK UNBOUND:                 0.051
REMARK  Name = 
REMARK  5 active torsions:
REMARK  status: ('A' for Active; 'I' for Inactive)
REMARK    1  A    between atoms: C_1  and  C_2
REMARK    2  A    between atoms: C_2  and  C_3
REMARK    3  A    between atoms: C_2  and  N_4
REMARK    4  A    between atoms: C_2  and  C_14
REMARK    5  A    between atoms: C_8  and  C_9
REMARK                            x       y       z     vdW  Elec       q    Type
REMARK                         _______ _______ _______ _____ _____    ______ ____
ROOT
ATOM      4  N   UNL     1      45.244   6.141  11.238  0.00  0.00    +0.000 N 
ATOM      5  C   UNL     1      46.296   6.397  12.108  0.00  0.00    +0.000 A 
ATOM      6  C   UNL     1      47.218   7.377  11.743  0.00  0.00    +0.000 A 
ATOM      7  C   UNL     1      48.347   7.591  12.535  0.00  0.00    +0.000 A 
ATOM      8  C   UNL     1      48.516   6.851  13.705  0.00  0.00    +0.000 A 
ATOM     12  C   UNL     1      47.515   5.949  14.023  0.00  0.00    +0.000 A 
ATOM     13  N   UNL     1      46.420   5.717  13.259  0.00  0.00    +0.000 NA
ATOM     20  H   UNL     1      44.584   6.912  11.274  0.00  0.00    +0.000 HD
ENDROOT
BRANCH   8   9
ATOM      9  C   UNL     1      49.738   7.046  14.521  0.00  0.00    +0.000 C 
ATOM     10  N   UNL     1      50.761   7.804  14.019  0.00  0.00    +0.000 N 
ATOM     11  O   UNL     1      49.839   6.547  15.637  0.00  0.00    +0.000 OA
ATOM     21  H   UNL     1      50.771   8.275  13.130  0.00  0.00    +0.000 HD
ATOM     22  H   UNL     1      51.567   7.924  14.622  0.00  0.00    +0.000 HD
ENDBRANCH   8   9
BRANCH   4   2
ATOM      1  C   UNL     1      44.868   3.983  12.441  0.00  0.00    +0.000 C 
ATOM      2  C   UNL     1      44.563   4.828  11.183  0.00  0.00    +0.000 C 
ATOM      3  C   UNL     1      43.046   5.046  11.016  0.00  0.00    +0.000 C 
BRANCH   2  14
ATOM     14  C   UNL     1      45.088   4.051   9.943  0.00  0.00    +0.000 A 
ATOM     15  C   UNL     1      44.966   2.647   9.878  0.00  0.00    +0.000 A 
ATOM     16  C   UNL     1      45.426   1.922   8.775  0.00  0.00    +0.000 A 
ATOM     17  C   UNL     1      46.009   2.584   7.701  0.00  0.00    +0.000 A 
ATOM     18  C   UNL     1      46.146   3.968   7.737  0.00  0.00    +0.000 A 
ATOM     19  C   UNL     1      45.699   4.692   8.848  0.00  0.00    +0.000 A 
ENDBRANCH   2  14
ENDBRANCH   4   2
TORSDOF 3
ENDMDL
MODEL 5
REMARK VINA RESULT:    -6.212      3.516      6.015
REMARK INTER + INTRA:          -7.250
REMARK INTER:                  -7.570
REMARK INTRA:                   0.320
REMARK UNBOUND:                 0.051
REMARK  Name = 
REMARK  5 active torsions:
REMARK  status: ('A' for Active; 'I' for Inactive)
REMARK    1  A    between atoms: C_1  and  C_2
REMARK    2  A    between atoms: C_2  and  C_3
REMARK    3  A    between atoms: C_2  and  N_4
REMARK    4  A    between atoms: C_2  and  C_14
REMARK    5  A    between atoms: C_8  and  C_9
REMARK                            x       y       z     vdW  Elec       q    Type
REMARK                         _______ _______ _______ _____ _____    ______ ____
ROOT
ATOM      4  N   UNL     1      45.227   4.161  12.542  0.00  0.00    +0.000 N 
ATOM      5  C   UNL     1      46.286   4.880  13.080  0.00  0.00    +0.000 A 
ATOM      6  C   UNL     1      46.602   4.669  14.421  0.00  0.00    +0.000 A 
ATOM      7  C   UNL     1      47.588   5.447  15.029  0.00  0.00    +0.000 A 
ATOM      8  C   UNL     1      48.275   6.398  14.275  0.00  0.00    +0.000 A 
ATOM     12  C   UNL     1      47.942   6.491  12.935  0.00  0.00    +0.000 A 
ATOM     13  N   UNL     1      46.978   5.755  12.330  0.00  0.00    +0.000 NA
ATOM     20  H   UNL     1      45.506   3.192  12.422  0.00  0.00    +0.000 HD
ENDROOT
BRANCH   8   9
ATOM      9  C   UNL     1      49.290   7.256  14.933  0.00  0.00    +0.000 C 
ATOM     10  N   UNL     1      50.494   7.457  14.316  0.00  0.00    +0.000 N 
ATOM     11  O   UNL     1      49.060   7.791  16.012  0.00  0.00    +0.000 OA
ATOM     21  H   UNL     1      50.775   7.086  13.424  0.00  0.00    +0.000 HD
ATOM     22  H   UNL     1      51.147   8.066  14.795  0.00  0.00    +0.000 HD
ENDBRANCH   8   9
BRANCH   4   2
ATOM      1  C   UNL     1      42.940   4.286  11.539  0.00  0.00    +0.000 C 
ATOM      2  C   UNL     1      44.434   4.658  11.394  0.00  0.00    +0.000 C 
ATOM      3  C   UNL     1      44.616   6.184  11.269  0.00  0.00    +0.000 C 
BRANCH   2  14
ATOM     14  C   UNL     1      44.971   3.991  10.097  0.00  0.00    +0.000 A 
ATOM     15  C   UNL     1      45.536   4.778   9.071  0.00  0.00    +0.000 A 
ATOM     16  C   UNL     1      46.029   4.206   7.896  0.00  0.00    +0.000 A 
ATOM     17  C   UNL     1      45.983   2.827   7.720  0.00  0.00    +0.000 A 
ATOM     18  C   UNL     1      45.429   2.025   8.712  0.00  0.00    +0.000 A 
ATOM     19  C   UNL     1      44.922   2.599   9.883  0.00  0.00    +0.000 A 
ENDBRANCH   2  14
ENDBRANCH   4   2
TORSDOF 3
ENDMDL
MODEL 6
REMARK VINA RESULT:    -6.186      3.046      6.097
REMARK INTER + INTRA:          -7.220
REMARK INTER:                  -7.640
REMARK INTRA:                   0.420
REMARK UNBOUND:                 0.051
REMARK  Name = 
REMARK  5 active torsions:
REMARK  status: ('A' for Active; 'I' for Inactive)
REMARK    1  A    between atoms: C_1  and  C_2
REMARK    2  A    between atoms: C_2  and  C_3
REMARK    3  A    between atoms: C_2  and  N_4
REMARK    4  A    between atoms: C_2  and  C_14
REMARK    5  A    between atoms: C_8  and  C_9
REMARK                            x       y       z     vdW  Elec       q    Type
REMARK                         _______ _______ _______ _____ _____    ______ ____
ROOT
ATOM      4  N   UNL     1      45.516   3.330  10.942  0.00  0.00    +0.000 N 
ATOM      5  C   UNL     1      45.686   4.621  11.424  0.00  0.00    +0.000 A 
ATOM      6  C   UNL     1      45.956   4.779  12.782  0.00  0.00    +0.000 A 
ATOM      7  C   UNL     1      46.028   6.061  13.328  0.00  0.00    +0.000 A 
ATOM      8  C   UNL     1      45.872   7.171  12.498  0.00  0.00    +0.000 A 
ATOM     12  C   UNL     1      45.676   6.920  11.151  0.00  0.00    +0.000 A 
ATOM     13  N   UNL     1      45.588   5.682  10.605  0.00  0.00    +0.000 NA
ATOM     20  H   UNL     1      46.416   2.861  10.916  0.00  0.00    +0.000 HD
ENDROOT
BRANCH   8   9
ATOM      9  C   UNL     1      45.903   8.531  13.086  0.00  0.00    +0.000 C 
ATOM     10  N   UNL     1      46.771   8.795  14.110  0.00  0.00    +0.000 N 
ATOM     11  O   UNL     1      45.171   9.419  12.662  0.00  0.00    +0.000 OA
ATOM     21  H   UNL     1      47.428   8.149  14.515  0.00  0.00    +0.000 HD
ATOM     22  H   UNL     1      46.769   9.745  14.466  0.00  0.00    +0.000 HD
ENDBRANCH   8   9
BRANCH   4   2
ATOM      1  C   UNL     1      43.848   1.757   9.946  0.00  0.00    +0.000 C 
ATOM      2  C   UNL     1      44.698   3.033   9.745  0.00  0.00    +0.000 C 
ATOM      3  C   UNL     1      43.806   4.248   9.421  0.00  0.00    +0.000 C 
BRANCH   2  14
ATOM     14  C   UNL     1      45.652   2.789   8.542  0.00  0.00    +0.000 A 
ATOM     15  C   UNL     1      46.204   1.510   8.318  0.00  0.00    +0.000 A 
ATOM     16  C   UNL     1      47.063   1.261   7.244  0.00  0.00    +0.000 A 
ATOM     17  C   UNL     1      47.382   2.282   6.356  0.00  0.00    +0.000 A 
ATOM     18  C   UNL     1      46.857   3.555   6.554  0.00  0.00    +0.000 A 
ATOM     19  C   UNL     1      46.009   3.808   7.638  0.00  0.00    +0.000 A 
ENDBRANCH   2  14
ENDBRANCH   4   2
TORSDOF 3
ENDMDL
MODEL 7
REMARK VINA RESULT:    -5.940      3.392      6.075
REMARK INTER + INTRA:          -6.931
REMARK INTER:                  -7.560
REMARK INTRA:                   0.630
REMARK UNBOUND:                 0.051
REMARK  Name = 
REMARK  5 active torsions:
REMARK  status: ('A' for Active; 'I' for Inactive)
REMARK    1  A    between atoms: C_1  and  C_2
REMARK    2  A    between atoms: C_2  and  C_3
REMARK    3  A    between atoms: C_2  and  N_4
REMARK    4  A    between atoms: C_2  and  C_14
REMARK    5  A    between atoms: C_8  and  C_9
REMARK                            x       y       z     vdW  Elec       q    Type
REMARK                         _______ _______ _______ _____ _____    ______ ____
ROOT
ATOM      4  N   UNL     1      43.886   5.148  11.500  0.00  0.00    +0.000 N 
ATOM      5  C   UNL     1      44.660   6.216  11.936  0.00  0.00    +0.000 A 
ATOM      6  C   UNL     1      44.343   7.487  11.458  0.00  0.00    +0.000 A 
ATOM      7  C   UNL     1      45.159   8.571  11.785  0.00  0.00    +0.000 A 
ATOM      8  C   UNL     1      46.257   8.377  12.622  0.00  0.00    +0.000 A 
ATOM     12  C   UNL     1      46.455   7.094  13.104  0.00  0.00    +0.000 A 
ATOM     13  N   UNL     1      45.682   6.027  12.786  0.00  0.00    +0.000 NA
ATOM     20  H   UNL     1      42.974   5.193  11.944  0.00  0.00    +0.000 HD
ENDROOT
BRANCH   8   9
ATOM      9  C   UNL     1      47.149   9.519  12.931  0.00  0.00    +0.000 C 
ATOM     10  N   UNL     1      47.803   9.548  14.133  0.00  0.00    +0.000 N 
ATOM     11  O   UNL     1      47.315  10.427  12.124  0.00  0.00    +0.000 OA
ATOM     21  H   UNL     1      47.756   8.847  14.853  0.00  0.00    +0.000 HD
ATOM     22  H   UNL     1      48.416  10.340  14.290  0.00  0.00    +0.000 HD
ENDBRANCH   8   9
BRANCH   4   2
ATOM      1  C   UNL     1      45.516   3.534  12.495  0.00  0.00    +0.000 C 
ATOM      2  C   UNL     1      44.409   3.765  11.439  0.00  0.00    +0.000 C 
ATOM      3  C   UNL     1      43.246   2.771  11.629  0.00  0.00    +0.000 C 
BRANCH   2  14
ATOM     14  C   UNL     1      45.030   3.533  10.034  0.00  0.00    +0.000 A 
ATOM     15  C   UNL     1      45.204   2.223   9.538  0.00  0.00    +0.000 A 
ATOM     16  C   UNL     1      45.757   1.984   8.277  0.00  0.00    +0.000 A 
ATOM     17  C   UNL     1      46.140   3.051   7.472  0.00  0.00    +0.000 A 
ATOM     18  C   UNL     1      45.985   4.353   7.934  0.00  0.00    +0.000 A 
ATOM     19  C   UNL     1      45.445   4.592   9.203  0.00  0.00    +0.000 A 
ENDBRANCH   2  14
ENDBRANCH   4   2
TORSDOF 3
ENDMDL
MODEL 8
REMARK VINA RESULT:    -5.864      3.227      4.933
REMARK INTER + INTRA:          -6.841
REMARK INTER:                  -6.919
REMARK INTRA:                   0.078
REMARK UNBOUND:                 0.051
REMARK  Name = 
REMARK  5 active torsions:
REMARK  status: ('A' for Active; 'I' for Inactive)
REMARK    1  A    between atoms: C_1  and  C_2
REMARK    2  A    between atoms: C_2  and  C_3
REMARK    3  A    between atoms: C_2  and  N_4
REMARK    4  A    between atoms: C_2  and  C_14
REMARK    5  A    between atoms: C_8  and  C_9
REMARK                            x       y       z     vdW  Elec       q    Type
REMARK                         _______ _______ _______ _____ _____    ______ ____
ROOT
ATOM      4  N   UNL     1      47.177   6.097  14.136  0.00  0.00    +0.000 N 
ATOM      5  C   UNL     1      46.392   5.566  13.122  0.00  0.00    +0.000 A 
ATOM      6  C   UNL     1      45.916   4.265  13.280  0.00  0.00    +0.000 A 
ATOM      7  C   UNL     1      45.214   3.655  12.239  0.00  0.00    +0.000 A 
ATOM      8  C   UNL     1      44.959   4.371  11.070  0.00  0.00    +0.000 A 
ATOM     12  C   UNL     1      45.410   5.680  11.029  0.00  0.00    +0.000 A 
ATOM     13  N   UNL     1      46.106   6.284  12.023  0.00  0.00    +0.000 NA
ATOM     20  H   UNL     1      46.591   6.306  14.939  0.00  0.00    +0.000 HD
ENDROOT
BRANCH   8   9
ATOM      9  C   UNL     1      44.254   3.708   9.947  0.00  0.00    +0.000 C 
ATOM     10  N   UNL     1      44.082   4.388   8.773  0.00  0.00    +0.000 N 
ATOM     11  O   UNL     1      43.835   2.561  10.056  0.00  0.00    +0.000 OA
ATOM     21  H   UNL     1      44.406   5.319   8.572  0.00  0.00    +0.000 HD
ATOM     22  H   UNL     1      43.611   3.886   8.029  0.00  0.00    +0.000 HD
ENDBRANCH   8   9
BRANCH   4   2
ATOM      1  C   UNL     1      48.857   6.980  12.509  0.00  0.00    +0.000 C 
ATOM      2  C   UNL     1      48.181   7.156  13.889  0.00  0.00    +0.000 C 
ATOM      3  C   UNL     1      47.505   8.537  14.003  0.00  0.00    +0.000 C 
BRANCH   2  14
ATOM     14  C   UNL     1      49.284   7.057  14.980  0.00  0.00    +0.000 A 
ATOM     15  C   UNL     1      50.542   7.664  14.780  0.00  0.00    +0.000 A 
ATOM     16  C   UNL     1      51.551   7.594  15.744  0.00  0.00    +0.000 A 
ATOM     17  C   UNL     1      51.324   6.924  16.941  0.00  0.00    +0.000 A 
ATOM     18  C   UNL     1      50.096   6.311  17.165  0.00  0.00    +0.000 A 
ATOM     19  C   UNL     1      49.090   6.369  16.194  0.00  0.00    +0.000 A 
ENDBRANCH   2  14
ENDBRANCH   4   2
TORSDOF 3
ENDMDL
MODEL 9
REMARK VINA RESULT:    -5.759      3.167      5.057
REMARK INTER + INTRA:          -6.718
REMARK INTER:                  -6.948
REMARK INTRA:                   0.230
REMARK UNBOUND:                 0.051
REMARK  Name = 
REMARK  5 active torsions:
REMARK  status: ('A' for Active; 'I' for Inactive)
REMARK    1  A    between atoms: C_1  and  C_2
REMARK    2  A    between atoms: C_2  and  C_3
REMARK    3  A    between atoms: C_2  and  N_4
REMARK    4  A    between atoms: C_2  and  C_14
REMARK    5  A    between atoms: C_8  and  C_9
REMARK                            x       y       z     vdW  Elec       q    Type
REMARK                         _______ _______ _______ _____ _____    ______ ____
ROOT
ATOM      4  N   UNL     1      46.309   7.546  13.427  0.00  0.00    +0.000 N 
ATOM      5  C   UNL     1      45.757   6.690  12.483  0.00  0.00    +0.000 A 
ATOM      6  C   UNL     1      44.693   5.882  12.881  0.00  0.00    +0.000 A 
ATOM      7  C   UNL     1      44.179   4.932  11.998  0.00  0.00    +0.000 A 
ATOM      8  C   UNL     1      44.708   4.833  10.711  0.00  0.00    +0.000 A 
ATOM     12  C   UNL     1      45.716   5.723  10.381  0.00  0.00    +0.000 A 
ATOM     13  N   UNL     1      46.238   6.641  11.230  0.00  0.00    +0.000 NA
ATOM     20  H   UNL     1      45.666   8.313  13.600  0.00  0.00    +0.000 HD
ENDROOT
BRANCH   8   9
ATOM      9  C   UNL     1      44.193   3.793   9.789  0.00  0.00    +0.000 C 
ATOM     10  N   UNL     1      44.178   4.044   8.444  0.00  0.00    +0.000 N 
ATOM     11  O   UNL     1      43.792   2.715  10.214  0.00  0.00    +0.000 OA
ATOM     21  H   UNL     1      44.503   4.881   7.990  0.00  0.00    +0.000 HD
ATOM     22  H   UNL     1      43.834   3.295   7.853  0.00  0.00    +0.000 HD
ENDBRANCH   8   9
BRANCH   4   2
ATOM      1  C   UNL     1      48.249   8.407  14.748  0.00  0.00    +0.000 C 
ATOM      2  C   UNL     1      47.715   8.004  13.354  0.00  0.00    +0.000 C 
ATOM      3  C   UNL     1      48.582   6.893  12.728  0.00  0.00    +0.000 C 
BRANCH   2  14
ATOM     14  C   UNL     1      47.780   9.256  12.434  0.00  0.00    +0.000 A 
ATOM     15  C   UNL     1      48.999   9.638  11.836  0.00  0.00    +0.000 A 
ATOM     16  C   UNL     1      49.087  10.756  11.002  0.00  0.00    +0.000 A 
ATOM     17  C   UNL     1      47.953  11.516  10.735  0.00  0.00    +0.000 A 
ATOM     18  C   UNL     1      46.738  11.166  11.314  0.00  0.00    +0.000 A 
ATOM     19  C   UNL     1      46.653  10.055  12.160  0.00  0.00    +0.000 A 
ENDBRANCH   2  14
ENDBRANCH   4   2
TORSDOF 3
ENDMDL
