MODEL 1
REMARK VINA RESULT:    -7.872      0.000      0.000
REMARK INTER + INTRA:          -8.412
REMARK INTER:                  -9.253
REMARK INTRA:                   0.841
REMARK UNBOUND:                 0.841
REMARK  Name = 
REMARK  4 active torsions:
REMARK  status: ('A' for Active; 'I' for Inactive)
REMARK    1  A    between atoms: C_1  and  C_2
REMARK    2  A    between atoms: C_2  and  N_3
REMARK    3  A    between atoms: C_2  and  C_13
REMARK    4  A    between atoms: C_7  and  C_8
REMARK                            x       y       z     vdW  Elec       q    Type
REMARK                         _______ _______ _______ _____ _____    ______ ____
ROOT
ATOM      3  N   UNL     1      44.758   5.259   9.903  0.00  0.00    +0.000 N 
ATOM      4  C   UNL     1      45.479   5.266  11.099  0.00  0.00    +0.000 A 
ATOM      5  C   UNL     1      46.382   6.309  11.292  0.00  0.00    +0.000 A 
ATOM      6  C   UNL     1      47.120   6.376  12.471  0.00  0.00    +0.000 A 
ATOM      7  C   UNL     1      46.912   5.424  13.467  0.00  0.00    +0.000 A 
ATOM     11  C   UNL     1      45.971   4.437  13.204  0.00  0.00    +0.000 A 
ATOM     12  N   UNL     1      45.263   4.334  12.045  0.00  0.00    +0.000 NA
ATOM     19  H   UNL     1      44.024   5.960   9.983  0.00  0.00    +0.000 HD
ENDROOT
BRANCH   7   8
ATOM      8  C   UNL     1      47.692   5.523  14.725  0.00  0.00    +0.000 C 
ATOM      9  N   UNL     1      47.236   4.885  15.847  0.00  0.00    +0.000 N 
ATOM     10  O   UNL     1      48.732   6.167  14.775  0.00  0.00    +0.000 OA
ATOM     20  H   UNL     1      46.387   4.349  15.921  0.00  0.00    +0.000 HD
ATOM     21  H   UNL     1      47.799   4.990  16.679  0.00  0.00    +0.000 HD
ENDBRANCH   7   8
BRANCH   3   2
ATOM      1  C   UNL     1      43.805   3.099  10.614  0.00  0.00    +0.000 C 
ATOM      2  C   UNL     1      44.214   3.985   9.430  0.00  0.00    +0.000 C 
BRANCH   2  13
ATOM     13  C   UNL     1      45.295   3.247   8.639  0.00  0.00    +0.000 A 
ATOM     14  C   UNL     1      46.067   3.940   7.691  0.00  0.00    +0.000 A 
ATOM     15  C   UNL     1      47.004   3.265   6.905  0.00  0.00    +0.000 A 
ATOM     16  C   UNL     1      47.188   1.891   7.057  0.00  0.00    +0.000 A 
ATOM     17  C   UNL     1      46.433   1.190   7.992  0.00  0.00    +0.000 A 
ATOM     18  C   UNL     1      45.489   1.860   8.771  0.00  0.00    +0.000 A 
ENDBRANCH   2  13
ENDBRANCH   3   2
TORSDOF 3
ENDMDL
MODEL 2
REMARK VINA RESULT:    -7.633      1.963      2.425
REMARK INTER + INTRA:          -8.131
REMARK INTER:                  -7.775
REMARK INTRA:                  -0.356
REMARK UNBOUND:                 0.841
REMARK  Name = 
REMARK  4 active torsions:
REMARK  status: ('A' for Active; 'I' for Inactive)
REMARK    1  A    between atoms: C_1  and  C_2
REMARK    2  A    between atoms: C_2  and  N_3
REMARK    3  A    between atoms: C_2  and  C_13
REMARK    4  A    between atoms: C_7  and  C_8
REMARK                            x       y       z     vdW  Elec       q    Type
REMARK                         _______ _______ _______ _____ _____    ______ ____
ROOT
ATOM      3  N   UNL     1      45.288   2.963  10.723  0.00  0.00    +0.000 N 
ATOM      4  C   UNL     1      45.350   4.266  11.218  0.00  0.00    +0.000 A 
ATOM      5  C   UNL     1      45.518   4.418  12.593  0.00  0.00    +0.000 A 
ATOM      6  C   UNL     1      45.599   5.694  13.143  0.00  0.00    +0.000 A 
ATOM      7  C   UNL     1      45.560   6.808  12.306  0.00  0.00    +0.000 A 
ATOM     11  C   UNL     1      45.422   6.565  10.946  0.00  0.00    +0.000 A 
ATOM     12  N   UNL     1      45.308   5.327  10.391  0.00  0.00    +0.000 NA
ATOM     19  H   UNL     1      46.237   2.594  10.709  0.00  0.00    +0.000 HD
ENDROOT
BRANCH   7   8
ATOM      8  C   UNL     1      45.669   8.159  12.908  0.00  0.00    +0.000 C 
ATOM      9  N   UNL     1      44.728   9.104  12.605  0.00  0.00    +0.000 N 
ATOM     10  O   UNL     1      46.588   8.441  13.667  0.00  0.00    +0.000 OA
ATOM     20  H   UNL     1      43.947   8.986  11.980  0.00  0.00    +0.000 HD
ATOM     21  H   UNL     1      44.851  10.011  13.035  0.00  0.00    +0.000 HD
ENDBRANCH   7   8
BRANCH   3   2
ATOM      1  C   UNL     1      43.789   1.454   9.473  0.00  0.00    +0.000 C 
ATOM      2  C   UNL     1      44.624   2.741   9.437  0.00  0.00    +0.000 C 
BRANCH   2  13
ATOM     13  C   UNL     1      45.688   2.583   8.350  0.00  0.00    +0.000 A 
ATOM     14  C   UNL     1      45.952   3.644   7.467  0.00  0.00    +0.000 A 
ATOM     15  C   UNL     1      46.864   3.488   6.420  0.00  0.00    +0.000 A 
ATOM     16  C   UNL     1      47.530   2.277   6.243  0.00  0.00    +0.000 A 
ATOM     17  C   UNL     1      47.282   1.216   7.110  0.00  0.00    +0.000 A 
ATOM     18  C   UNL     1      46.363   1.365   8.150  0.00  0.00    +0.000 A 
ENDBRANCH   2  13
ENDBRANCH   3   2
TORSDOF 3
ENDMDL
MODEL 3
REMARK VINA RESULT:    -7.608      3.087      6.103
REMARK INTER + INTRA:          -8.101
REMARK INTER:                  -8.623
REMARK INTRA:                   0.522
REMARK UNBOUND:                 0.841
REMARK  Name = 
REMARK  4 active torsions:
REMARK  status: ('A' for Active; 'I' for Inactive)
REMARK    1  A    between atoms: C_1  and  C_2
REMARK    2  A    between atoms: C_2  and  N_3
REMARK    3  A    between atoms: C_2  and  C_13
REMARK    4  A    between atoms: C_7  and  C_8
REMARK                            x       y       z     vdW  Elec       q    Type
REMARK                         _______ _______ _______ _____ _____    ______ ____
ROOT
ATOM      3  N   UNL     1      43.812   2.977  10.666  0.00  0.00    +0.000 N 
ATOM      4  C   UNL     1      44.696   2.984   9.586  0.00  0.00    +0.000 A 
ATOM      5  C   UNL     1      45.194   1.753   9.163  0.00  0.00    +0.000 A 
ATOM      6  C   UNL     1      46.070   1.696   8.083  0.00  0.00    +0.000 A 
ATOM      7  C   UNL     1      46.402   2.867   7.404  0.00  0.00    +0.000 A 
ATOM     11  C   UNL     1      45.837   4.045   7.873  0.00  0.00    +0.000 A 
ATOM     12  N   UNL     1      45.004   4.128   8.948  0.00  0.00    +0.000 NA
ATOM     19  H   UNL     1      42.907   2.662  10.321  0.00  0.00    +0.000 HD
ENDROOT
BRANCH   7   8
ATOM      8  C   UNL     1      47.320   2.784   6.242  0.00  0.00    +0.000 C 
ATOM      9  N   UNL     1      48.645   2.516   6.454  0.00  0.00    +0.000 N 
ATOM     10  O   UNL     1      46.912   2.953   5.100  0.00  0.00    +0.000 OA
ATOM     20  H   UNL     1      49.088   2.382   7.349  0.00  0.00    +0.000 HD
ATOM     21  H   UNL     1      49.230   2.478   5.631  0.00  0.00    +0.000 HD
ENDBRANCH   7   8
BRANCH   3   2
ATOM      1  C   UNL     1      43.323   5.392  10.546  0.00  0.00    +0.000 C 
ATOM      2  C   UNL     1      43.670   4.204  11.453  0.00  0.00    +0.000 C 
BRANCH   2  13
ATOM     13  C   UNL     1      45.003   4.508  12.140  0.00  0.00    +0.000 A 
ATOM     14  C   UNL     1      45.663   3.503  12.867  0.00  0.00    +0.000 A 
ATOM     15  C   UNL     1      46.839   3.786  13.565  0.00  0.00    +0.000 A 
ATOM     16  C   UNL     1      47.377   5.072  13.543  0.00  0.00    +0.000 A 
ATOM     17  C   UNL     1      46.737   6.079  12.826  0.00  0.00    +0.000 A 
ATOM     18  C   UNL     1      45.555   5.802  12.137  0.00  0.00    +0.000 A 
ENDBRANCH   2  13
ENDBRANCH   3   2
TORSDOF 3
ENDMDL
MODEL 4
REMARK VINA RESULT:    -7.428      1.473      2.384
REMARK INTER + INTRA:          -7.890
REMARK INTER:                  -7.428
REMARK INTRA:                  -0.462
REMARK UNBOUND:                 0.841
REMARK  Name = 
REMARK  4 active torsions:
REMARK  status: ('A' for Active; 'I' for Inactive)
REMARK    1  A    between atoms: C_1  and  C_2
REMARK    2  A    between atoms: C_2  and  N_3
REMARK    3  A    between atoms: C_2  and  C_13
REMARK    4  A    between atoms: C_7  and  C_8
REMARK                            x       y       z     vdW  Elec       q    Type
REMARK                         _______ _______ _______ _____ _____    ______ ____
ROOT
ATOM      3  N   UNL     1      45.270   3.978  12.229  0.00  0.00    +0.000 N 
ATOM      4  C   UNL     1      46.175   4.773  12.934  0.00  0.00    +0.000 A 
ATOM      5  C   UNL     1      46.442   4.416  14.255  0.00  0.00    +0.000 A 
ATOM      6  C   UNL     1      47.346   5.164  15.004  0.00  0.00    +0.000 A 
ATOM      7  C   UNL     1      48.012   6.234  14.410  0.00  0.00    +0.000 A 
ATOM     11  C   UNL     1      47.709   6.501  13.082  0.00  0.00    +0.000 A 
ATOM     12  N   UNL     1      46.805   5.804  12.341  0.00  0.00    +0.000 NA
ATOM     19  H   UNL     1      45.755   3.122  11.964  0.00  0.00    +0.000 HD
ENDROOT
BRANCH   7   8
ATOM      8  C   UNL     1      48.987   7.007  15.218  0.00  0.00    +0.000 C 
ATOM      9  N   UNL     1      48.536   7.777  16.255  0.00  0.00    +0.000 N 
ATOM     10  O   UNL     1      50.186   6.969  14.969  0.00  0.00    +0.000 OA
ATOM     20  H   UNL     1      47.575   7.896  16.532  0.00  0.00    +0.000 HD
ATOM     21  H   UNL     1      49.239   8.289  16.769  0.00  0.00    +0.000 HD
ENDBRANCH   7   8
BRANCH   3   2
ATOM      1  C   UNL     1      43.071   4.315  11.165  0.00  0.00    +0.000 C 
ATOM      2  C   UNL     1      44.583   4.566  11.079  0.00  0.00    +0.000 C 
BRANCH   2  13
ATOM     13  C   UNL     1      45.100   3.904   9.800  0.00  0.00    +0.000 A 
ATOM     14  C   UNL     1      45.063   2.505   9.671  0.00  0.00    +0.000 A 
ATOM     15  C   UNL     1      45.603   1.881   8.544  0.00  0.00    +0.000 A 
ATOM     16  C   UNL     1      46.181   2.642   7.529  0.00  0.00    +0.000 A 
ATOM     17  C   UNL     1      46.223   4.028   7.640  0.00  0.00    +0.000 A 
ATOM     18  C   UNL     1      45.695   4.654   8.770  0.00  0.00    +0.000 A 
ENDBRANCH   2  13
ENDBRANCH   3   2
TORSDOF 3
ENDMDL
MODEL 5
REMARK VINA RESULT:    -7.262      3.342      7.354
REMARK INTER + INTRA:          -7.694
REMARK INTER:                  -7.248
REMARK INTRA:                  -0.446
REMARK UNBOUND:                 0.841
REMARK  Name = 
REMARK  4 active torsions:
REMARK  status: ('A' for Active; 'I' for Inactive)
REMARK    1  A    between atoms: C_1  and  C_2
REMARK    2  A    between atoms: C_2  and  N_3
REMARK    3  A    between atoms: C_2  and  C_13
REMARK    4  A    between atoms: C_7  and  C_8
REMARK                            x       y       z     vdW  Elec       q    Type
REMARK                         _______ _______ _______ _____ _____    ______ ____
ROOT
ATOM      3  N   UNL     1      47.634   5.119  15.467  0.00  0.00    +0.000 N 
ATOM      4  C   UNL     1      46.891   4.856  14.315  0.00  0.00    +0.000 A 
ATOM      5  C   UNL     1      46.576   5.940  13.498  0.00  0.00    +0.000 A 
ATOM      6  C   UNL     1      45.848   5.737  12.329  0.00  0.00    +0.000 A 
ATOM      7  C   UNL     1      45.484   4.443  11.962  0.00  0.00    +0.000 A 
ATOM     11  C   UNL     1      45.865   3.418  12.817  0.00  0.00    +0.000 A 
ATOM     12  N   UNL     1      46.548   3.598  13.981  0.00  0.00    +0.000 NA
ATOM     19  H   UNL     1      48.601   5.264  15.183  0.00  0.00    +0.000 HD
ENDROOT
BRANCH   7   8
ATOM      8  C   UNL     1      44.727   4.244  10.702  0.00  0.00    +0.000 C 
ATOM      9  N   UNL     1      45.029   5.013   9.611  0.00  0.00    +0.000 N 
ATOM     10  O   UNL     1      43.837   3.407  10.624  0.00  0.00    +0.000 OA
ATOM     20  H   UNL     1      45.723   5.742   9.572  0.00  0.00    +0.000 HD
ATOM     21  H   UNL     1      44.479   4.844   8.780  0.00  0.00    +0.000 HD
ENDBRANCH   7   8
BRANCH   3   2
ATOM      1  C   UNL     1      46.989   4.844  17.831  0.00  0.00    +0.000 C 
ATOM      2  C   UNL     1      47.553   4.167  16.575  0.00  0.00    +0.000 C 
BRANCH   2  13
ATOM     13  C   UNL     1      48.961   3.665  16.902  0.00  0.00    +0.000 A 
ATOM     14  C   UNL     1      49.277   2.306  16.735  0.00  0.00    +0.000 A 
ATOM     15  C   UNL     1      50.533   1.818  17.103  0.00  0.00    +0.000 A 
ATOM     16  C   UNL     1      51.492   2.677  17.635  0.00  0.00    +0.000 A 
ATOM     17  C   UNL     1      51.196   4.027  17.805  0.00  0.00    +0.000 A 
ATOM     18  C   UNL     1      49.938   4.515  17.450  0.00  0.00    +0.000 A 
ENDBRANCH   2  13
ENDBRANCH   3   2
TORSDOF 3
ENDMDL
MODEL 6
REMARK VINA RESULT:    -7.196      3.350      7.324
REMARK INTER + INTRA:          -7.617
REMARK INTER:                  -7.163
REMARK INTRA:                  -0.455
REMARK UNBOUND:                 0.841
REMARK  Name = 
REMARK  4 active torsions:
REMARK  status: ('A' for Active; 'I' for Inactive)
REMARK    1  A    between atoms: C_1  and  C_2
REMARK    2  A    between atoms: C_2  and  N_3
REMARK    3  A    between atoms: C_2  and  C_13
REMARK    4  A    between atoms: C_7  and  C_8
REMARK                            x       y       z     vdW  Elec       q    Type
REMARK                         _______ _______ _______ _____ _____    ______ ____
ROOT
ATOM      3  N   UNL     1      47.767   5.112  15.611  0.00  0.00    +0.000 N 
ATOM      4  C   UNL     1      47.028   4.857  14.455  0.00  0.00    +0.000 A 
ATOM      5  C   UNL     1      46.769   5.938  13.614  0.00  0.00    +0.000 A 
ATOM      6  C   UNL     1      46.047   5.743  12.439  0.00  0.00    +0.000 A 
ATOM      7  C   UNL     1      45.632   4.458  12.093  0.00  0.00    +0.000 A 
ATOM     11  C   UNL     1      45.959   3.435  12.973  0.00  0.00    +0.000 A 
ATOM     12  N   UNL     1      46.635   3.609  14.142  0.00  0.00    +0.000 NA
ATOM     19  H   UNL     1      48.743   5.210  15.336  0.00  0.00    +0.000 HD
ENDROOT
BRANCH   7   8
ATOM      8  C   UNL     1      44.882   4.266  10.827  0.00  0.00    +0.000 C 
ATOM      9  N   UNL     1      44.251   5.337  10.254  0.00  0.00    +0.000 N 
ATOM     10  O   UNL     1      44.816   3.167  10.292  0.00  0.00    +0.000 OA
ATOM     20  H   UNL     1      44.224   6.275  10.620  0.00  0.00    +0.000 HD
ATOM     21  H   UNL     1      43.748   5.152   9.398  0.00  0.00    +0.000 HD
ENDBRANCH   7   8
BRANCH   3   2
ATOM      1  C   UNL     1      47.102   4.916  17.978  0.00  0.00    +0.000 C 
ATOM      2  C   UNL     1      47.633   4.186  16.736  0.00  0.00    +0.000 C 
BRANCH   2  13
ATOM     13  C   UNL     1      49.011   3.616  17.077  0.00  0.00    +0.000 A 
ATOM     14  C   UNL     1      50.017   4.461  17.574  0.00  0.00    +0.000 A 
ATOM     15  C   UNL     1      51.303   3.972  17.814  0.00  0.00    +0.000 A 
ATOM     16  C   UNL     1      51.602   2.633  17.569  0.00  0.00    +0.000 A 
ATOM     17  C   UNL     1      50.616   1.781  17.079  0.00  0.00    +0.000 A 
ATOM     18  C   UNL     1      49.334   2.269  16.827  0.00  0.00    +0.000 A 
ENDBRANCH   2  13
ENDBRANCH   3   2
TORSDOF 3
ENDMDL
MODEL 7
REMARK VINA RESULT:    -6.705      3.618      6.856
REMARK INTER + INTRA:          -7.040
REMARK INTER:                  -6.574
REMARK INTRA:                  -0.465
REMARK UNBOUND:                 0.841
REMARK  Name = 
REMARK  4 active torsions:
REMARK  status: ('A' for Active; 'I' for Inactive)
REMARK    1  A    between atoms: C_1  and  C_2
REMARK    2  A    between atoms: C_2  and  N_3
REMARK    3  A    between atoms: C_2  and  C_13
REMARK    4  A    between atoms: C_7  and  C_8
REMARK                            x       y       z     vdW  Elec       q    Type
REMARK                         _______ _______ _______ _____ _____    ______ ____
ROOT
ATOM      3  N   UNL     1      44.429   5.747  10.696  0.00  0.00    +0.000 N 
ATOM      4  C   UNL     1      45.044   5.008   9.683  0.00  0.00    +0.000 A 
ATOM      5  C   UNL     1      44.439   3.808   9.314  0.00  0.00    +0.000 A 
ATOM      6  C   UNL     1      44.999   3.034   8.301  0.00  0.00    +0.000 A 
ATOM      7  C   UNL     1      46.133   3.493   7.632  0.00  0.00    +0.000 A 
ATOM     11  C   UNL     1      46.652   4.713   8.043  0.00  0.00    +0.000 A 
ATOM     12  N   UNL     1      46.140   5.469   9.053  0.00  0.00    +0.000 NA
ATOM     19  H   UNL     1      43.618   6.210  10.290  0.00  0.00    +0.000 HD
ENDROOT
BRANCH   7   8
ATOM      8  C   UNL     1      46.703   2.665   6.541  0.00  0.00    +0.000 C 
ATOM      9  N   UNL     1      47.089   3.269   5.376  0.00  0.00    +0.000 N 
ATOM     10  O   UNL     1      46.830   1.454   6.667  0.00  0.00    +0.000 OA
ATOM     20  H   UNL     1      47.009   4.249   5.160  0.00  0.00    +0.000 HD
ATOM     21  H   UNL     1      47.464   2.660   4.661  0.00  0.00    +0.000 HD
ENDBRANCH   7   8
BRANCH   3   2
ATOM      1  C   UNL     1      45.295   6.305  12.937  0.00  0.00    +0.000 C 
ATOM      2  C   UNL     1      45.247   6.695  11.453  0.00  0.00    +0.000 C 
BRANCH   2  13
ATOM     13  C   UNL     1      44.616   8.085  11.351  0.00  0.00    +0.000 A 
ATOM     14  C   UNL     1      45.258   9.192  11.933  0.00  0.00    +0.000 A 
ATOM     15  C   UNL     1      44.657  10.453  11.917  0.00  0.00    +0.000 A 
ATOM     16  C   UNL     1      43.412  10.629  11.317  0.00  0.00    +0.000 A 
ATOM     17  C   UNL     1      42.763   9.545  10.734  0.00  0.00    +0.000 A 
ATOM     18  C   UNL     1      43.355   8.282  10.759  0.00  0.00    +0.000 A 
ENDBRANCH   2  13
ENDBRANCH   3   2
TORSDOF 3
ENDMDL
MODEL 8
REMARK VINA RESULT:    -6.658      2.070      3.581
REMARK INTER + INTRA:          -6.985
REMARK INTER:                  -6.562
REMARK INTRA:                  -0.423
REMARK UNBOUND:                 0.841
REMARK  Name = 
REMARK  4 active torsions:
REMARK  status: ('A' for Active; 'I' for Inactive)
REMARK    1  A    between atoms: C_1  and  C_2
REMARK    2  A    between atoms: C_2  and  N_3
REMARK    3  A    between atoms: C_2  and  C_13
REMARK    4  A    between atoms: C_7  and  C_8
REMARK                            x       y       z     vdW  Elec       q    Type
REMARK                         _______ _______ _______ _____ _____    ______ ____
ROOT
ATOM      3  N   UNL     1      46.221   4.320  13.400  0.00  0.00    +0.000 N 
ATOM      4  C   UNL     1      47.037   4.798  14.426  0.00  0.00    +0.000 A 
ATOM      5  C   UNL     1      47.107   4.037  15.591  0.00  0.00    +0.000 A 
ATOM      6  C   UNL     1      47.915   4.458  16.644  0.00  0.00    +0.000 A 
ATOM      7  C   UNL     1      48.684   5.612  16.502  0.00  0.00    +0.000 A 
ATOM     11  C   UNL     1      48.577   6.292  15.297  0.00  0.00    +0.000 A 
ATOM     12  N   UNL     1      47.769   5.917  14.268  0.00  0.00    +0.000 NA
ATOM     19  H   UNL     1      46.716   3.556  12.944  0.00  0.00    +0.000 HD
ENDROOT
BRANCH   7   8
ATOM      8  C   UNL     1      49.555   6.033  17.627  0.00  0.00    +0.000 C 
ATOM      9  N   UNL     1      49.827   5.144  18.631  0.00  0.00    +0.000 N 
ATOM     10  O   UNL     1      50.029   7.161  17.672  0.00  0.00    +0.000 OA
ATOM     20  H   UNL     1      49.474   4.204  18.704  0.00  0.00    +0.000 HD
ATOM     21  H   UNL     1      50.419   5.482  19.378  0.00  0.00    +0.000 HD
ENDBRANCH   7   8
BRANCH   3   2
ATOM      1  C   UNL     1      44.427   5.941  12.915  0.00  0.00    +0.000 C 
ATOM      2  C   UNL     1      45.716   5.276  12.414  0.00  0.00    +0.000 C 
BRANCH   2  13
ATOM     13  C   UNL     1      45.390   4.529  11.119  0.00  0.00    +0.000 A 
ATOM     14  C   UNL     1      45.623   5.143   9.877  0.00  0.00    +0.000 A 
ATOM     15  C   UNL     1      45.257   4.505   8.689  0.00  0.00    +0.000 A 
ATOM     16  C   UNL     1      44.660   3.246   8.722  0.00  0.00    +0.000 A 
ATOM     17  C   UNL     1      44.424   2.623   9.944  0.00  0.00    +0.000 A 
ATOM     18  C   UNL     1      44.778   3.262  11.133  0.00  0.00    +0.000 A 
ENDBRANCH   2  13
ENDBRANCH   3   2
TORSDOF 3
ENDMDL
MODEL 9
REMARK VINA RESULT:    -6.590      2.672      3.785
REMARK INTER + INTRA:          -6.905
REMARK INTER:                  -6.493
REMARK INTRA:                  -0.412
REMARK UNBOUND:                 0.841
REMARK  Name = 
REMARK  4 active torsions:
REMARK  status: ('A' for Active; 'I' for Inactive)
REMARK    1  A    between atoms: C_1  and  C_2
REMARK    2  A    between atoms: C_2  and  N_3
REMARK    3  A    between atoms: C_2  and  C_13
REMARK    4  A    between atoms: C_7  and  C_8
REMARK                            x       y       z     vdW  Elec       q    Type
REMARK                         _______ _______ _______ _____ _____    ______ ____
ROOT
ATOM      3  N   UNL     1      46.416   5.776  12.350  0.00  0.00    +0.000 N 
ATOM      4  C   UNL     1      47.554   6.469  12.767  0.00  0.00    +0.000 A 
ATOM      5  C   UNL     1      47.907   6.361  14.111  0.00  0.00    +0.000 A 
ATOM      6  C   UNL     1      49.039   7.020  14.583  0.00  0.00    +0.000 A 
ATOM      7  C   UNL     1      49.836   7.741  13.696  0.00  0.00    +0.000 A 
ATOM     11  C   UNL     1      49.427   7.770  12.369  0.00  0.00    +0.000 A 
ATOM     12  N   UNL     1      48.307   7.161  11.893  0.00  0.00    +0.000 NA
ATOM     19  H   UNL     1      46.668   4.792  12.268  0.00  0.00    +0.000 HD
ENDROOT
BRANCH   7   8
ATOM      8  C   UNL     1      51.050   8.419  14.213  0.00  0.00    +0.000 C 
ATOM      9  N   UNL     1      52.271   7.825  14.043  0.00  0.00    +0.000 N 
ATOM     10  O   UNL     1      50.975   9.496  14.790  0.00  0.00    +0.000 OA
ATOM     20  H   UNL     1      52.443   6.935  13.604  0.00  0.00    +0.000 HD
ATOM     21  H   UNL     1      53.065   8.323  14.420  0.00  0.00    +0.000 HD
ENDBRANCH   7   8
BRANCH   3   2
ATOM      1  C   UNL     1      44.479   7.053  11.514  0.00  0.00    +0.000 C 
ATOM      2  C   UNL     1      45.727   6.240  11.145  0.00  0.00    +0.000 C 
BRANCH   2  13
ATOM     13  C   UNL     1      45.276   5.024  10.333  0.00  0.00    +0.000 A 
ATOM     14  C   UNL     1      44.540   4.000  10.953  0.00  0.00    +0.000 A 
ATOM     15  C   UNL     1      44.188   2.848  10.246  0.00  0.00    +0.000 A 
ATOM     16  C   UNL     1      44.559   2.704   8.910  0.00  0.00    +0.000 A 
ATOM     17  C   UNL     1      45.286   3.709   8.280  0.00  0.00    +0.000 A 
ATOM     18  C   UNL     1      45.649   4.856   8.987  0.00  0.00    +0.000 A 
ENDBRANCH   2  13
ENDBRANCH   3   2
TORSDOF 3
ENDMDL
