MODEL 1
REMARK VINA RESULT:    -7.770      0.000      0.000
REMARK INTER + INTRA:         -10.286
REMARK INTER:                  -9.587
REMARK INTRA:                  -0.699
REMARK UNBOUND:                -0.699
REMARK  Name = 
REMARK  6 active torsions:
REMARK  status: ('A' for Active; 'I' for Inactive)
REMARK    1  A    between atoms: C_1  and  C_2
REMARK    2  A    between atoms: C_2  and  C_3
REMARK    3  A    between atoms: C_2  and  C_4
REMARK    4  A    between atoms: C_2  and  C_15
REMARK    5  A    between atoms: C_4  and  N_5
REMARK    6  A    between atoms: C_9  and  C_10
REMARK                            x       y       z     vdW  Elec       q    Type
REMARK                         _______ _______ _______ _____ _____    ______ ____
ROOT
ATOM      5  N   UNL     1      43.991   2.953  10.228  0.00  0.00    +0.000 N 
ATOM      6  C   UNL     1      44.929   2.824   9.188  0.00  0.00    +0.000 A 
ATOM      7  C   UNL     1      45.340   1.547   8.817  0.00  0.00    +0.000 A 
ATOM      8  C   UNL     1      46.263   1.390   7.778  0.00  0.00    +0.000 A 
ATOM      9  C   UNL     1      46.766   2.518   7.123  0.00  0.00    +0.000 A 
ATOM     13  C   UNL     1      46.325   3.747   7.576  0.00  0.00    +0.000 A 
ATOM     14  N   UNL     1      45.435   3.921   8.585  0.00  0.00    +0.000 NA
ATOM     21  H   UNL     1      43.171   2.394  10.002  0.00  0.00    +0.000 HD
ENDROOT
BRANCH   9  10
ATOM     10  C   UNL     1      47.715   2.346   6.001  0.00  0.00    +0.000 C 
ATOM     11  N   UNL     1      47.653   3.211   4.942  0.00  0.00    +0.000 N 
ATOM     12  O   UNL     1      48.542   1.440   6.002  0.00  0.00    +0.000 OA
ATOM     22  H   UNL     1      47.012   3.977   4.828  0.00  0.00    +0.000 HD
ATOM     23  H   UNL     1      48.314   3.042   4.188  0.00  0.00    +0.000 HD
ENDBRANCH   9  10
BRANCH   5   4
ATOM      4  C   UNL     1      43.630   4.343  10.524  0.00  0.00    +0.000 C 
BRANCH   4   2
ATOM      1  C   UNL     1      42.593   5.570  12.474  0.00  0.00    +0.000 C 
ATOM      2  C   UNL     1      43.791   4.693  12.035  0.00  0.00    +0.000 C 
ATOM      3  C   UNL     1      43.680   3.366  12.829  0.00  0.00    +0.000 C 
BRANCH   2  15
ATOM     15  C   UNL     1      45.155   5.347  12.344  0.00  0.00    +0.000 A 
ATOM     16  C   UNL     1      45.863   5.072  13.531  0.00  0.00    +0.000 A 
ATOM     17  C   UNL     1      47.134   5.607  13.764  0.00  0.00    +0.000 A 
ATOM     18  C   UNL     1      47.724   6.439  12.823  0.00  0.00    +0.000 A 
ATOM     19  C   UNL     1      47.034   6.754  11.656  0.00  0.00    +0.000 A 
ATOM     20  C   UNL     1      45.763   6.217  11.421  0.00  0.00    +0.000 A 
ENDBRANCH   2  15
ENDBRANCH   4   2
ENDBRANCH   5   4
TORSDOF 4
ENDMDL
MODEL 2
REMARK VINA RESULT:    -6.737      4.162      6.250
REMARK INTER + INTRA:          -9.011
REMARK INTER:                  -8.543
REMARK INTRA:                  -0.468
REMARK UNBOUND:                -0.699
REMARK  Name = 
REMARK  6 active torsions:
REMARK  status: ('A' for Active; 'I' for Inactive)
REMARK    1  A    between atoms: C_1  and  C_2
REMARK    2  A    between atoms: C_2  and  C_3
REMARK    3  A    between atoms: C_2  and  C_4
REMARK    4  A    between atoms: C_2  and  C_15
REMARK    5  A    between atoms: C_4  and  N_5
REMARK    6  A    between atoms: C_9  and  C_10
REMARK                            x       y       z     vdW  Elec       q    Type
REMARK                         _______ _______ _______ _____ _____    ______ ____
ROOT
ATOM      5  N   UNL     1      47.083   5.413  14.693  0.00  0.00    +0.000 N 
ATOM      6  C   UNL     1      46.375   4.961  13.565  0.00  0.00    +0.000 A 
ATOM      7  C   UNL     1      46.036   5.884  12.580  0.00  0.00    +0.000 A 
ATOM      8  C   UNL     1      45.341   5.459  11.442  0.00  0.00    +0.000 A 
ATOM      9  C   UNL     1      44.992   4.113  11.307  0.00  0.00    +0.000 A 
ATOM     13  C   UNL     1      45.344   3.273  12.347  0.00  0.00    +0.000 A 
ATOM     14  N   UNL     1      46.012   3.665  13.460  0.00  0.00    +0.000 NA
ATOM     21  H   UNL     1      47.927   5.890  14.382  0.00  0.00    +0.000 HD
ENDROOT
BRANCH   9  10
ATOM     10  C   UNL     1      44.290   3.662  10.086  0.00  0.00    +0.000 C 
ATOM     11  N   UNL     1      44.083   4.555   9.071  0.00  0.00    +0.000 N 
ATOM     12  O   UNL     1      43.884   2.509   9.976  0.00  0.00    +0.000 OA
ATOM     22  H   UNL     1      44.357   5.522   9.056  0.00  0.00    +0.000 HD
ATOM     23  H   UNL     1      43.581   4.202   8.259  0.00  0.00    +0.000 HD
ENDBRANCH   9  10
BRANCH   5   4
ATOM      4  C   UNL     1      47.391   4.350  15.657  0.00  0.00    +0.000 C 
BRANCH   4   2
ATOM      1  C   UNL     1      48.595   6.348  16.628  0.00  0.00    +0.000 C 
ATOM      2  C   UNL     1      48.205   4.871  16.881  0.00  0.00    +0.000 C 
ATOM      3  C   UNL     1      47.251   4.870  18.103  0.00  0.00    +0.000 C 
BRANCH   2  15
ATOM     15  C   UNL     1      49.424   3.977  17.198  0.00  0.00    +0.000 A 
ATOM     16  C   UNL     1      49.398   2.583  17.002  0.00  0.00    +0.000 A 
ATOM     17  C   UNL     1      50.532   1.793  17.217  0.00  0.00    +0.000 A 
ATOM     18  C   UNL     1      51.717   2.376  17.645  0.00  0.00    +0.000 A 
ATOM     19  C   UNL     1      51.762   3.747  17.879  0.00  0.00    +0.000 A 
ATOM     20  C   UNL     1      50.628   4.538  17.661  0.00  0.00    +0.000 A 
ENDBRANCH   2  15
ENDBRANCH   4   2
ENDBRANCH   5   4
TORSDOF 4
ENDMDL
MODEL 3
REMARK VINA RESULT:    -6.692      4.646      7.669
REMARK INTER + INTRA:          -8.955
REMARK INTER:                  -8.467
REMARK INTRA:                  -0.489
REMARK UNBOUND:                -0.699
REMARK  Name = 
REMARK  6 active torsions:
REMARK  status: ('A' for Active; 'I' for Inactive)
REMARK    1  A    between atoms: C_1  and  C_2
REMARK    2  A    between atoms: C_2  and  C_3
REMARK    3  A    between atoms: C_2  and  C_4
REMARK    4  A    between atoms: C_2  and  C_15
REMARK    5  A    between atoms: C_4  and  N_5
REMARK    6  A    between atoms: C_9  and  C_10
REMARK                            x       y       z     vdW  Elec       q    Type
REMARK                         _______ _______ _______ _____ _____    ______ ____
ROOT
ATOM      5  N   UNL     1      46.521   5.473  13.744  0.00  0.00    +0.000 N 
ATOM      6  C   UNL     1      47.159   5.079  14.933  0.00  0.00    +0.000 A 
ATOM      7  C   UNL     1      48.161   5.893  15.451  0.00  0.00    +0.000 A 
ATOM      8  C   UNL     1      48.804   5.529  16.639  0.00  0.00    +0.000 A 
ATOM      9  C   UNL     1      48.436   4.351  17.293  0.00  0.00    +0.000 A 
ATOM     13  C   UNL     1      47.451   3.589  16.692  0.00  0.00    +0.000 A 
ATOM     14  N   UNL     1      46.819   3.921  15.538  0.00  0.00    +0.000 NA
ATOM     21  H   UNL     1      46.153   6.415  13.864  0.00  0.00    +0.000 HD
ENDROOT
BRANCH   9  10
ATOM     10  C   UNL     1      49.092   3.989  18.568  0.00  0.00    +0.000 C 
ATOM     11  N   UNL     1      48.420   3.199  19.460  0.00  0.00    +0.000 N 
ATOM     12  O   UNL     1      50.219   4.393  18.839  0.00  0.00    +0.000 OA
ATOM     22  H   UNL     1      47.493   2.824  19.352  0.00  0.00    +0.000 HD
ATOM     23  H   UNL     1      48.906   2.991  20.329  0.00  0.00    +0.000 HD
ENDBRANCH   9  10
BRANCH   5   4
ATOM      4  C   UNL     1      45.478   4.541  13.299  0.00  0.00    +0.000 C 
BRANCH   4   2
ATOM      1  C   UNL     1      43.121   5.126  12.604  0.00  0.00    +0.000 C 
ATOM      2  C   UNL     1      44.601   5.129  12.151  0.00  0.00    +0.000 C 
ATOM      3  C   UNL     1      45.008   6.615  11.976  0.00  0.00    +0.000 C 
BRANCH   2  15
ATOM     15  C   UNL     1      44.818   4.392  10.811  0.00  0.00    +0.000 A 
ATOM     16  C   UNL     1      44.372   3.072  10.605  0.00  0.00    +0.000 A 
ATOM     17  C   UNL     1      44.503   2.443   9.362  0.00  0.00    +0.000 A 
ATOM     18  C   UNL     1      45.093   3.113   8.300  0.00  0.00    +0.000 A 
ATOM     19  C   UNL     1      45.573   4.406   8.484  0.00  0.00    +0.000 A 
ATOM     20  C   UNL     1      45.440   5.036   9.727  0.00  0.00    +0.000 A 
ENDBRANCH   2  15
ENDBRANCH   4   2
ENDBRANCH   5   4
TORSDOF 4
ENDMDL
MODEL 4
REMARK VINA RESULT:    -6.687      4.635      7.705
REMARK INTER + INTRA:          -8.949
REMARK INTER:                  -8.466
REMARK INTRA:                  -0.483
REMARK UNBOUND:                -0.699
REMARK  Name = 
REMARK  6 active torsions:
REMARK  status: ('A' for Active; 'I' for Inactive)
REMARK    1  A    between atoms: C_1  and  C_2
REMARK    2  A    between atoms: C_2  and  C_3
REMARK    3  A    between atoms: C_2  and  C_4
REMARK    4  A    between atoms: C_2  and  C_15
REMARK    5  A    between atoms: C_4  and  N_5
REMARK    6  A    between atoms: C_9  and  C_10
REMARK                            x       y       z     vdW  Elec       q    Type
REMARK                         _______ _______ _______ _____ _____    ______ ____
ROOT
ATOM      5  N   UNL     1      46.557   5.438  13.692  0.00  0.00    +0.000 N 
ATOM      6  C   UNL     1      47.181   5.049  14.891  0.00  0.00    +0.000 A 
ATOM      7  C   UNL     1      48.160   5.878  15.430  0.00  0.00    +0.000 A 
ATOM      8  C   UNL     1      48.789   5.520  16.628  0.00  0.00    +0.000 A 
ATOM      9  C   UNL     1      48.429   4.332  17.270  0.00  0.00    +0.000 A 
ATOM     13  C   UNL     1      47.468   3.556  16.648  0.00  0.00    +0.000 A 
ATOM     14  N   UNL     1      46.851   3.882  15.485  0.00  0.00    +0.000 NA
ATOM     21  H   UNL     1      46.171   6.373  13.811  0.00  0.00    +0.000 HD
ENDROOT
BRANCH   9  10
ATOM     10  C   UNL     1      49.070   3.975  18.554  0.00  0.00    +0.000 C 
ATOM     11  N   UNL     1      48.406   3.151  19.421  0.00  0.00    +0.000 N 
ATOM     12  O   UNL     1      50.176   4.414  18.856  0.00  0.00    +0.000 OA
ATOM     22  H   UNL     1      47.495   2.746  19.287  0.00  0.00    +0.000 HD
ATOM     23  H   UNL     1      48.879   2.948  20.298  0.00  0.00    +0.000 HD
ENDBRANCH   9  10
BRANCH   5   4
ATOM      4  C   UNL     1      45.539   4.491  13.225  0.00  0.00    +0.000 C 
BRANCH   4   2
ATOM      1  C   UNL     1      43.148   5.069  12.652  0.00  0.00    +0.000 C 
ATOM      2  C   UNL     1      44.606   5.104  12.136  0.00  0.00    +0.000 C 
ATOM      3  C   UNL     1      44.988   6.600  11.993  0.00  0.00    +0.000 C 
BRANCH   2  15
ATOM     15  C   UNL     1      44.773   4.413  10.765  0.00  0.00    +0.000 A 
ATOM     16  C   UNL     1      45.397   5.054   9.677  0.00  0.00    +0.000 A 
ATOM     17  C   UNL     1      45.613   4.392   8.464  0.00  0.00    +0.000 A 
ATOM     18  C   UNL     1      45.201   3.076   8.305  0.00  0.00    +0.000 A 
ATOM     19  C   UNL     1      44.552   2.428   9.352  0.00  0.00    +0.000 A 
ATOM     20  C   UNL     1      44.337   3.090  10.566  0.00  0.00    +0.000 A 
ENDBRANCH   2  15
ENDBRANCH   4   2
ENDBRANCH   5   4
TORSDOF 4
ENDMDL
MODEL 5
REMARK VINA RESULT:    -6.440      3.573      6.238
REMARK INTER + INTRA:          -8.644
REMARK INTER:                  -7.919
REMARK INTRA:                  -0.725
REMARK UNBOUND:                -0.699
REMARK  Name = 
REMARK  6 active torsions:
REMARK  status: ('A' for Active; 'I' for Inactive)
REMARK    1  A    between atoms: C_1  and  C_2
REMARK    2  A    between atoms: C_2  and  C_3
REMARK    3  A    between atoms: C_2  and  C_4
REMARK    4  A    between atoms: C_2  and  C_15
REMARK    5  A    between atoms: C_4  and  N_5
REMARK    6  A    between atoms: C_9  and  C_10
REMARK                            x       y       z     vdW  Elec       q    Type
REMARK                         _______ _______ _______ _____ _____    ______ ____
ROOT
ATOM      5  N   UNL     1      44.722   6.173  12.726  0.00  0.00    +0.000 N 
ATOM      6  C   UNL     1      45.803   7.043  12.498  0.00  0.00    +0.000 A 
ATOM      7  C   UNL     1      45.609   8.408  12.684  0.00  0.00    +0.000 A 
ATOM      8  C   UNL     1      46.672   9.294  12.475  0.00  0.00    +0.000 A 
ATOM      9  C   UNL     1      47.917   8.799  12.079  0.00  0.00    +0.000 A 
ATOM     13  C   UNL     1      48.012   7.433  11.891  0.00  0.00    +0.000 A 
ATOM     14  N   UNL     1      46.993   6.558  12.083  0.00  0.00    +0.000 NA
ATOM     21  H   UNL     1      44.364   6.332  13.666  0.00  0.00    +0.000 HD
ENDROOT
BRANCH   9  10
ATOM     10  C   UNL     1      49.048   9.735  11.894  0.00  0.00    +0.000 C 
ATOM     11  N   UNL     1      48.948  11.004  12.396  0.00  0.00    +0.000 N 
ATOM     12  O   UNL     1      50.061   9.395  11.292  0.00  0.00    +0.000 OA
ATOM     22  H   UNL     1      48.165  11.395  12.892  0.00  0.00    +0.000 HD
ATOM     23  H   UNL     1      49.743  11.615  12.229  0.00  0.00    +0.000 HD
ENDBRANCH   9  10
BRANCH   5   4
ATOM      4  C   UNL     1      45.048   4.759  12.506  0.00  0.00    +0.000 C 
BRANCH   4   2
ATOM      1  C   UNL     1      43.442   2.850  12.112  0.00  0.00    +0.000 C 
ATOM      2  C   UNL     1      44.109   4.086  11.460  0.00  0.00    +0.000 C 
ATOM      3  C   UNL     1      42.969   5.090  11.150  0.00  0.00    +0.000 C 
BRANCH   2  15
ATOM     15  C   UNL     1      44.843   3.745  10.145  0.00  0.00    +0.000 A 
ATOM     16  C   UNL     1      44.968   2.421   9.681  0.00  0.00    +0.000 A 
ATOM     17  C   UNL     1      45.565   2.131   8.450  0.00  0.00    +0.000 A 
ATOM     18  C   UNL     1      46.064   3.157   7.658  0.00  0.00    +0.000 A 
ATOM     19  C   UNL     1      45.984   4.471   8.106  0.00  0.00    +0.000 A 
ATOM     20  C   UNL     1      45.384   4.762   9.337  0.00  0.00    +0.000 A 
ENDBRANCH   2  15
ENDBRANCH   4   2
ENDBRANCH   5   4
TORSDOF 4
ENDMDL
MODEL 6
REMARK VINA RESULT:    -6.357      4.137      7.145
REMARK INTER + INTRA:          -8.543
REMARK INTER:                  -8.064
REMARK INTRA:                  -0.479
REMARK UNBOUND:                -0.699
REMARK  Name = 
REMARK  6 active torsions:
REMARK  status: ('A' for Active; 'I' for Inactive)
REMARK    1  A    between atoms: C_1  and  C_2
REMARK    2  A    between atoms: C_2  and  C_3
REMARK    3  A    between atoms: C_2  and  C_4
REMARK    4  A    between atoms: C_2  and  C_15
REMARK    5  A    between atoms: C_4  and  N_5
REMARK    6  A    between atoms: C_9  and  C_10
REMARK                            x       y       z     vdW  Elec       q    Type
REMARK                         _______ _______ _______ _____ _____    ______ ____
ROOT
ATOM      5  N   UNL     1      45.625   4.243  13.509  0.00  0.00    +0.000 N 
ATOM      6  C   UNL     1      46.642   4.823  14.286  0.00  0.00    +0.000 A 
ATOM      7  C   UNL     1      46.972   4.229  15.500  0.00  0.00    +0.000 A 
ATOM      8  C   UNL     1      47.989   4.779  16.288  0.00  0.00    +0.000 A 
ATOM      9  C   UNL     1      48.663   5.921  15.849  0.00  0.00    +0.000 A 
ATOM     13  C   UNL     1      48.251   6.461  14.644  0.00  0.00    +0.000 A 
ATOM     14  N   UNL     1      47.264   5.947  13.869  0.00  0.00    +0.000 NA
ATOM     21  H   UNL     1      45.851   3.264  13.347  0.00  0.00    +0.000 HD
ENDROOT
BRANCH   9  10
ATOM     10  C   UNL     1      49.762   6.479  16.667  0.00  0.00    +0.000 C 
ATOM     11  N   UNL     1      49.754   6.271  18.019  0.00  0.00    +0.000 N 
ATOM     12  O   UNL     1      50.668   7.129  16.155  0.00  0.00    +0.000 OA
ATOM     22  H   UNL     1      49.060   5.769  18.546  0.00  0.00    +0.000 HD
ATOM     23  H   UNL     1      50.522   6.688  18.541  0.00  0.00    +0.000 HD
ENDBRANCH   9  10
BRANCH   5   4
ATOM      4  C   UNL     1      45.371   4.951  12.249  0.00  0.00    +0.000 C 
BRANCH   4   2
ATOM      1  C   UNL     1      43.660   3.094  12.186  0.00  0.00    +0.000 C 
ATOM      2  C   UNL     1      44.309   4.233  11.362  0.00  0.00    +0.000 C 
ATOM      3  C   UNL     1      43.186   5.260  11.067  0.00  0.00    +0.000 C 
BRANCH   2  15
ATOM     15  C   UNL     1      44.899   3.740  10.023  0.00  0.00    +0.000 A 
ATOM     16  C   UNL     1      45.405   4.632   9.057  0.00  0.00    +0.000 A 
ATOM     17  C   UNL     1      46.009   4.172   7.883  0.00  0.00    +0.000 A 
ATOM     18  C   UNL     1      46.112   2.810   7.639  0.00  0.00    +0.000 A 
ATOM     19  C   UNL     1      45.591   1.906   8.559  0.00  0.00    +0.000 A 
ATOM     20  C   UNL     1      44.988   2.366   9.736  0.00  0.00    +0.000 A 
ENDBRANCH   2  15
ENDBRANCH   4   2
ENDBRANCH   5   4
TORSDOF 4
ENDMDL
MODEL 7
REMARK VINA RESULT:    -6.355      4.539      6.564
REMARK INTER + INTRA:          -8.540
REMARK INTER:                  -8.058
REMARK INTRA:                  -0.481
REMARK UNBOUND:                -0.699
REMARK  Name = 
REMARK  6 active torsions:
REMARK  status: ('A' for Active; 'I' for Inactive)
REMARK    1  A    between atoms: C_1  and  C_2
REMARK    2  A    between atoms: C_2  and  C_3
REMARK    3  A    between atoms: C_2  and  C_4
REMARK    4  A    between atoms: C_2  and  C_15
REMARK    5  A    between atoms: C_4  and  N_5
REMARK    6  A    between atoms: C_9  and  C_10
REMARK                            x       y       z     vdW  Elec       q    Type
REMARK                         _______ _______ _______ _____ _____    ______ ____
ROOT
ATOM      5  N   UNL     1      47.366   4.941  15.062  0.00  0.00    +0.000 N 
ATOM      6  C   UNL     1      46.600   4.914  13.883  0.00  0.00    +0.000 A 
ATOM      7  C   UNL     1      46.348   6.115  13.227  0.00  0.00    +0.000 A 
ATOM      8  C   UNL     1      45.598   6.116  12.045  0.00  0.00    +0.000 A 
ATOM      9  C   UNL     1      45.107   4.910  11.537  0.00  0.00    +0.000 A 
ATOM     13  C   UNL     1      45.381   3.770  12.270  0.00  0.00    +0.000 A 
ATOM     14  N   UNL     1      46.101   3.749  13.419  0.00  0.00    +0.000 NA
ATOM     21  H   UNL     1      48.252   5.404  14.869  0.00  0.00    +0.000 HD
ENDROOT
BRANCH   9  10
ATOM     10  C   UNL     1      44.346   4.910  10.269  0.00  0.00    +0.000 C 
ATOM     11  N   UNL     1      45.028   4.837   9.085  0.00  0.00    +0.000 N 
ATOM     12  O   UNL     1      43.121   4.985  10.264  0.00  0.00    +0.000 OA
ATOM     22  H   UNL     1      46.026   4.787   8.968  0.00  0.00    +0.000 HD
ATOM     23  H   UNL     1      44.462   4.857   8.241  0.00  0.00    +0.000 HD
ENDBRANCH   9  10
BRANCH   5   4
ATOM      4  C   UNL     1      47.571   3.617  15.659  0.00  0.00    +0.000 C 
BRANCH   4   2
ATOM      1  C   UNL     1      47.683   5.105  17.697  0.00  0.00    +0.000 C 
ATOM      2  C   UNL     1      48.020   3.697  17.150  0.00  0.00    +0.000 C 
ATOM      3  C   UNL     1      47.149   2.693  17.948  0.00  0.00    +0.000 C 
BRANCH   2  15
ATOM     15  C   UNL     1      49.507   3.324  17.336  0.00  0.00    +0.000 A 
ATOM     16  C   UNL     1      50.456   4.252  17.807  0.00  0.00    +0.000 A 
ATOM     17  C   UNL     1      51.784   3.882  18.047  0.00  0.00    +0.000 A 
ATOM     18  C   UNL     1      52.198   2.578  17.813  0.00  0.00    +0.000 A 
ATOM     19  C   UNL     1      51.289   1.648  17.317  0.00  0.00    +0.000 A 
ATOM     20  C   UNL     1      49.961   2.017  17.078  0.00  0.00    +0.000 A 
ENDBRANCH   2  15
ENDBRANCH   4   2
ENDBRANCH   5   4
TORSDOF 4
ENDMDL
MODEL 8
REMARK VINA RESULT:    -6.133      3.625      6.234
REMARK INTER + INTRA:          -8.266
REMARK INTER:                  -7.635
REMARK INTRA:                  -0.631
REMARK UNBOUND:                -0.699
REMARK  Name = 
REMARK  6 active torsions:
REMARK  status: ('A' for Active; 'I' for Inactive)
REMARK    1  A    between atoms: C_1  and  C_2
REMARK    2  A    between atoms: C_2  and  C_3
REMARK    3  A    between atoms: C_2  and  C_4
REMARK    4  A    between atoms: C_2  and  C_15
REMARK    5  A    between atoms: C_4  and  N_5
REMARK    6  A    between atoms: C_9  and  C_10
REMARK                            x       y       z     vdW  Elec       q    Type
REMARK                         _______ _______ _______ _____ _____    ______ ____
ROOT
ATOM      5  N   UNL     1      45.804   5.777  12.987  0.00  0.00    +0.000 N 
ATOM      6  C   UNL     1      47.031   6.445  12.823  0.00  0.00    +0.000 A 
ATOM      7  C   UNL     1      47.878   6.557  13.921  0.00  0.00    +0.000 A 
ATOM      8  C   UNL     1      49.110   7.207  13.782  0.00  0.00    +0.000 A 
ATOM      9  C   UNL     1      49.476   7.738  12.543  0.00  0.00    +0.000 A 
ATOM     13  C   UNL     1      48.561   7.605  11.515  0.00  0.00    +0.000 A 
ATOM     14  N   UNL     1      47.360   6.985  11.630  0.00  0.00    +0.000 NA
ATOM     21  H   UNL     1      45.983   4.848  13.363  0.00  0.00    +0.000 HD
ENDROOT
BRANCH   9  10
ATOM     10  C   UNL     1      50.794   8.392  12.391  0.00  0.00    +0.000 C 
ATOM     11  N   UNL     1      51.836   7.673  11.871  0.00  0.00    +0.000 N 
ATOM     12  O   UNL     1      50.968   9.558  12.733  0.00  0.00    +0.000 OA
ATOM     22  H   UNL     1      51.814   6.713  11.572  0.00  0.00    +0.000 HD
ATOM     23  H   UNL     1      52.726   8.161  11.802  0.00  0.00    +0.000 HD
ENDBRANCH   9  10
BRANCH   5   4
ATOM      4  C   UNL     1      45.001   5.714  11.761  0.00  0.00    +0.000 C 
BRANCH   4   2
ATOM      1  C   UNL     1      45.037   3.309  12.530  0.00  0.00    +0.000 C 
ATOM      2  C   UNL     1      44.572   4.259  11.400  0.00  0.00    +0.000 C 
ATOM      3  C   UNL     1      43.022   4.223  11.402  0.00  0.00    +0.000 C 
BRANCH   2  15
ATOM     15  C   UNL     1      45.079   3.826  10.007  0.00  0.00    +0.000 A 
ATOM     16  C   UNL     1      45.594   4.752   9.080  0.00  0.00    +0.000 A 
ATOM     17  C   UNL     1      46.124   4.339   7.852  0.00  0.00    +0.000 A 
ATOM     18  C   UNL     1      46.140   2.992   7.518  0.00  0.00    +0.000 A 
ATOM     19  C   UNL     1      45.608   2.058   8.401  0.00  0.00    +0.000 A 
ATOM     20  C   UNL     1      45.080   2.471   9.630  0.00  0.00    +0.000 A 
ENDBRANCH   2  15
ENDBRANCH   4   2
ENDBRANCH   5   4
TORSDOF 4
ENDMDL
MODEL 9
REMARK VINA RESULT:    -5.975      3.931      6.759
REMARK INTER + INTRA:          -8.071
REMARK INTER:                  -7.746
REMARK INTRA:                  -0.325
REMARK UNBOUND:                -0.699
REMARK  Name = 
REMARK  6 active torsions:
REMARK  status: ('A' for Active; 'I' for Inactive)
REMARK    1  A    between atoms: C_1  and  C_2
REMARK    2  A    between atoms: C_2  and  C_3
REMARK    3  A    between atoms: C_2  and  C_4
REMARK    4  A    between atoms: C_2  and  C_15
REMARK    5  A    between atoms: C_4  and  N_5
REMARK    6  A    between atoms: C_9  and  C_10
REMARK                            x       y       z     vdW  Elec       q    Type
REMARK                         _______ _______ _______ _____ _____    ______ ____
ROOT
ATOM      5  N   UNL     1      45.835   5.812  11.706  0.00  0.00    +0.000 N 
ATOM      6  C   UNL     1      46.851   6.201  12.597  0.00  0.00    +0.000 A 
ATOM      7  C   UNL     1      47.566   7.363  12.323  0.00  0.00    +0.000 A 
ATOM      8  C   UNL     1      48.575   7.779  13.200  0.00  0.00    +0.000 A 
ATOM      9  C   UNL     1      48.856   7.022  14.340  0.00  0.00    +0.000 A 
ATOM     13  C   UNL     1      48.115   5.868  14.518  0.00  0.00    +0.000 A 
ATOM     14  N   UNL     1      47.138   5.444  13.678  0.00  0.00    +0.000 NA
ATOM     21  H   UNL     1      45.181   6.585  11.594  0.00  0.00    +0.000 HD
ENDROOT
BRANCH   9  10
ATOM     10  C   UNL     1      49.897   7.484  15.283  0.00  0.00    +0.000 C 
ATOM     11  N   UNL     1      51.205   7.487  14.879  0.00  0.00    +0.000 N 
ATOM     12  O   UNL     1      49.609   7.852  16.418  0.00  0.00    +0.000 OA
ATOM     22  H   UNL     1      51.557   7.196  13.983  0.00  0.00    +0.000 HD
ATOM     23  H   UNL     1      51.885   7.797  15.568  0.00  0.00    +0.000 HD
ENDBRANCH   9  10
BRANCH   5   4
ATOM      4  C   UNL     1      45.147   4.578  12.102  0.00  0.00    +0.000 C 
BRANCH   4   2
ATOM      1  C   UNL     1      43.300   2.934  11.587  0.00  0.00    +0.000 C 
ATOM      2  C   UNL     1      44.208   4.033  10.983  0.00  0.00    +0.000 C 
ATOM      3  C   UNL     1      43.273   5.195  10.560  0.00  0.00    +0.000 C 
BRANCH   2  15
ATOM     15  C   UNL     1      44.991   3.547   9.744  0.00  0.00    +0.000 A 
ATOM     16  C   UNL     1      45.221   2.180   9.494  0.00  0.00    +0.000 A 
ATOM     17  C   UNL     1      45.862   1.748   8.329  0.00  0.00    +0.000 A 
ATOM     18  C   UNL     1      46.299   2.671   7.390  0.00  0.00    +0.000 A 
ATOM     19  C   UNL     1      46.115   4.030   7.625  0.00  0.00    +0.000 A 
ATOM     20  C   UNL     1      45.472   4.463   8.791  0.00  0.00    +0.000 A 
ENDBRANCH   2  15
ENDBRANCH   4   2
ENDBRANCH   5   4
TORSDOF 4
ENDMDL
