MODEL 1
REMARK VINA RESULT:    -8.120      0.000      0.000
REMARK INTER + INTRA:         -13.472
REMARK INTER:                 -11.917
REMARK INTRA:                  -1.555
REMARK UNBOUND:                -1.555
REMARK  Name = 
REMARK  9 active torsions:
REMARK  status: ('A' for Active; 'I' for Inactive)
REMARK    1  A    between atoms: C_1  and  O_2
REMARK    2  A    between atoms: O_2  and  C_3
REMARK    3  A    between atoms: C_10  and  C_11
REMARK    4  A    between atoms: N_13  and  C_14
REMARK    5  A    between atoms: C_14  and  C_15
REMARK    6  A    between atoms: C_18  and  C_19
REMARK    7  A    between atoms: C_19  and  N_20
REMARK    8  A    between atoms: N_20  and  C_21
REMARK    9  A    between atoms: C_21  and  C_22
REMARK                            x       y       z     vdW  Elec       q    Type
REMARK                         _______ _______ _______ _____ _____    ______ ____
ROOT
ATOM     14  C   UNL     1      47.016   7.802  13.171  0.00  0.00    +0.000 C 
ENDROOT
BRANCH  14  15
ATOM     15  C   UNL     1      46.061   6.847  12.502  0.00  0.00    +0.000 A 
ATOM     16  C   UNL     1      44.926   6.383  13.178  0.00  0.00    +0.000 A 
ATOM     17  C   UNL     1      44.072   5.449  12.580  0.00  0.00    +0.000 A 
ATOM     18  C   UNL     1      44.336   4.955  11.295  0.00  0.00    +0.000 A 
ATOM     28  C   UNL     1      45.464   5.434  10.613  0.00  0.00    +0.000 A 
ATOM     29  C   UNL     1      46.319   6.365  11.213  0.00  0.00    +0.000 A 
BRANCH  18  19
ATOM     19  C   UNL     1      43.453   3.892  10.678  0.00  0.00    +0.000 C 
BRANCH  19  20
ATOM     20  N   UNL     1      43.859   3.574   9.312  0.00  0.00    +0.000 NA
ATOM     32  H   UNL     1      44.465   4.314   8.961  0.00  0.00    +0.000 HD
BRANCH  20  21
ATOM     21  C   UNL     1      44.584   2.304   9.256  0.00  0.00    +0.000 C 
BRANCH  21  22
ATOM     22  C   UNL     1      45.660   2.334   8.194  0.00  0.00    +0.000 A 
ATOM     23  C   UNL     1      45.886   3.484   7.428  0.00  0.00    +0.000 A 
ATOM     24  C   UNL     1      46.896   3.509   6.461  0.00  0.00    +0.000 A 
ATOM     25  C   UNL     1      47.692   2.383   6.255  0.00  0.00    +0.000 A 
ATOM     26  C   UNL     1      47.480   1.233   7.012  0.00  0.00    +0.000 A 
ATOM     27  C   UNL     1      46.472   1.210   7.977  0.00  0.00    +0.000 A 
ENDBRANCH  21  22
ENDBRANCH  20  21
ENDBRANCH  19  20
ENDBRANCH  18  19
ENDBRANCH  14  15
BRANCH  14  13
ATOM     11  C   UNL     1      48.863   6.886  14.504  0.00  0.00    +0.000 C 
ATOM     12  O   UNL     1      49.636   7.022  13.558  0.00  0.00    +0.000 OA
ATOM     13  N   UNL     1      47.547   7.242  14.393  0.00  0.00    +0.000 N 
ATOM     31  H   UNL     1      46.911   7.105  15.168  0.00  0.00    +0.000 HD
BRANCH  11  10
ATOM      3  C   UNL     1      47.695   4.410  16.612  0.00  0.00    +0.000 A 
ATOM      4  N   UNL     1      47.454   3.544  17.619  0.00  0.00    +0.000 NA
ATOM      5  C   UNL     1      48.294   3.531  18.658  0.00  0.00    +0.000 A 
ATOM      6  N   UNL     1      49.371   4.293  18.823  0.00  0.00    +0.000 NA
ATOM      7  C   UNL     1      49.571   5.148  17.805  0.00  0.00    +0.000 A 
ATOM      8  S   UNL     1      50.904   6.197  17.851  0.00  0.00    +0.000 S 
ATOM      9  C   UNL     1      50.476   6.882  16.358  0.00  0.00    +0.000 A 
ATOM     10  C   UNL     1      49.326   6.340  15.793  0.00  0.00    +0.000 A 
ATOM     30  C   UNL     1      48.791   5.291  16.660  0.00  0.00    +0.000 A 
BRANCH   3   2
ATOM      1  C   UNL     1      47.283   3.542  14.466  0.00  0.00    +0.000 C 
ATOM      2  O   UNL     1      46.851   4.400  15.521  0.00  0.00    +0.000 OA
ENDBRANCH   3   2
ENDBRANCH  11  10
ENDBRANCH  14  13
TORSDOF 8
ENDMDL
MODEL 2
REMARK VINA RESULT:    -8.108      1.334      1.684
REMARK INTER + INTRA:         -13.455
REMARK INTER:                 -12.256
REMARK INTRA:                  -1.199
REMARK UNBOUND:                -1.555
REMARK  Name = 
REMARK  9 active torsions:
REMARK  status: ('A' for Active; 'I' for Inactive)
REMARK    1  A    between atoms: C_1  and  O_2
REMARK    2  A    between atoms: O_2  and  C_3
REMARK    3  A    between atoms: C_10  and  C_11
REMARK    4  A    between atoms: N_13  and  C_14
REMARK    5  A    between atoms: C_14  and  C_15
REMARK    6  A    between atoms: C_18  and  C_19
REMARK    7  A    between atoms: C_19  and  N_20
REMARK    8  A    between atoms: N_20  and  C_21
REMARK    9  A    between atoms: C_21  and  C_22
REMARK                            x       y       z     vdW  Elec       q    Type
REMARK                         _______ _______ _______ _____ _____    ______ ____
ROOT
ATOM     14  C   UNL     1      47.950   6.841  13.215  0.00  0.00    +0.000 C 
ENDROOT
BRANCH  14  15
ATOM     15  C   UNL     1      46.771   6.075  12.673  0.00  0.00    +0.000 A 
ATOM     16  C   UNL     1      46.127   5.110  13.456  0.00  0.00    +0.000 A 
ATOM     17  C   UNL     1      45.071   4.355  12.932  0.00  0.00    +0.000 A 
ATOM     18  C   UNL     1      44.639   4.546  11.612  0.00  0.00    +0.000 A 
ATOM     28  C   UNL     1      45.275   5.525  10.834  0.00  0.00    +0.000 A 
ATOM     29  C   UNL     1      46.332   6.277  11.358  0.00  0.00    +0.000 A 
BRANCH  18  19
ATOM     19  C   UNL     1      43.547   3.680  11.023  0.00  0.00    +0.000 C 
BRANCH  19  20
ATOM     20  N   UNL     1      43.799   3.368   9.619  0.00  0.00    +0.000 NA
ATOM     32  H   UNL     1      44.321   4.132   9.193  0.00  0.00    +0.000 HD
BRANCH  20  21
ATOM     21  C   UNL     1      44.572   2.133   9.480  0.00  0.00    +0.000 C 
BRANCH  21  22
ATOM     22  C   UNL     1      45.613   2.258   8.390  0.00  0.00    +0.000 A 
ATOM     23  C   UNL     1      46.430   1.174   8.045  0.00  0.00    +0.000 A 
ATOM     24  C   UNL     1      47.377   1.292   7.023  0.00  0.00    +0.000 A 
ATOM     25  C   UNL     1      47.513   2.498   6.334  0.00  0.00    +0.000 A 
ATOM     26  C   UNL     1      46.704   3.583   6.665  0.00  0.00    +0.000 A 
ATOM     27  C   UNL     1      45.759   3.463   7.685  0.00  0.00    +0.000 A 
ENDBRANCH  21  22
ENDBRANCH  20  21
ENDBRANCH  19  20
ENDBRANCH  18  19
ENDBRANCH  14  15
BRANCH  14  13
ATOM     11  C   UNL     1      49.113   6.948  15.376  0.00  0.00    +0.000 C 
ATOM     12  O   UNL     1      50.200   7.027  14.806  0.00  0.00    +0.000 OA
ATOM     13  N   UNL     1      47.950   6.846  14.661  0.00  0.00    +0.000 N 
ATOM     31  H   UNL     1      47.062   6.759  15.136  0.00  0.00    +0.000 HD
BRANCH  11  10
ATOM      3  C   UNL     1      48.868   4.486  17.787  0.00  0.00    +0.000 A 
ATOM      4  N   UNL     1      48.733   3.757  18.914  0.00  0.00    +0.000 NA
ATOM      5  C   UNL     1      48.655   4.403  20.081  0.00  0.00    +0.000 A 
ATOM      6  N   UNL     1      48.696   5.719  20.269  0.00  0.00    +0.000 NA
ATOM      7  C   UNL     1      48.822   6.409  19.123  0.00  0.00    +0.000 A 
ATOM      8  S   UNL     1      48.893   8.104  19.178  0.00  0.00    +0.000 S 
ATOM      9  C   UNL     1      49.026   8.200  17.488  0.00  0.00    +0.000 A 
ATOM     10  C   UNL     1      49.021   6.965  16.847  0.00  0.00    +0.000 A 
ATOM     30  C   UNL     1      48.909   5.891  17.833  0.00  0.00    +0.000 A 
BRANCH   3   2
ATOM      1  C   UNL     1      48.630   2.440  16.653  0.00  0.00    +0.000 C 
ATOM      2  O   UNL     1      48.986   3.819  16.585  0.00  0.00    +0.000 OA
ENDBRANCH   3   2
ENDBRANCH  11  10
ENDBRANCH  14  13
TORSDOF 8
ENDMDL
MODEL 3
REMARK VINA RESULT:    -7.854      2.372      2.993
REMARK INTER + INTRA:         -13.082
REMARK INTER:                 -11.793
REMARK INTRA:                  -1.289
REMARK UNBOUND:                -1.555
REMARK  Name = 
REMARK  9 active torsions:
REMARK  status: ('A' for Active; 'I' for Inactive)
REMARK    1  A    between atoms: C_1  and  O_2
REMARK    2  A    between atoms: O_2  and  C_3
REMARK    3  A    between atoms: C_10  and  C_11
REMARK    4  A    between atoms: N_13  and  C_14
REMARK    5  A    between atoms: C_14  and  C_15
REMARK    6  A    between atoms: C_18  and  C_19
REMARK    7  A    between atoms: C_19  and  N_20
REMARK    8  A    between atoms: N_20  and  C_21
REMARK    9  A    between atoms: C_21  and  C_22
REMARK                            x       y       z     vdW  Elec       q    Type
REMARK                         _______ _______ _______ _____ _____    ______ ____
ROOT
ATOM     14  C   UNL     1      48.202   6.648  13.762  0.00  0.00    +0.000 C 
ENDROOT
BRANCH  14  15
ATOM     15  C   UNL     1      47.009   6.169  12.976  0.00  0.00    +0.000 A 
ATOM     16  C   UNL     1      46.783   6.628  11.671  0.00  0.00    +0.000 A 
ATOM     17  C   UNL     1      45.643   6.231  10.964  0.00  0.00    +0.000 A 
ATOM     18  C   UNL     1      44.701   5.370  11.545  0.00  0.00    +0.000 A 
ATOM     28  C   UNL     1      44.937   4.899  12.844  0.00  0.00    +0.000 A 
ATOM     29  C   UNL     1      46.076   5.298  13.552  0.00  0.00    +0.000 A 
BRANCH  18  19
ATOM     19  C   UNL     1      43.433   4.999  10.806  0.00  0.00    +0.000 C 
BRANCH  19  20
ATOM     20  N   UNL     1      43.718   4.400   9.505  0.00  0.00    +0.000 NA
ATOM     32  H   UNL     1      44.366   4.998   8.994  0.00  0.00    +0.000 HD
BRANCH  20  21
ATOM     21  C   UNL     1      44.317   3.072   9.651  0.00  0.00    +0.000 C 
BRANCH  21  22
ATOM     22  C   UNL     1      45.375   2.829   8.599  0.00  0.00    +0.000 A 
ATOM     23  C   UNL     1      45.829   3.869   7.779  0.00  0.00    +0.000 A 
ATOM     24  C   UNL     1      46.821   3.639   6.820  0.00  0.00    +0.000 A 
ATOM     25  C   UNL     1      47.371   2.365   6.677  0.00  0.00    +0.000 A 
ATOM     26  C   UNL     1      46.931   1.323   7.489  0.00  0.00    +0.000 A 
ATOM     27  C   UNL     1      45.940   1.553   8.445  0.00  0.00    +0.000 A 
ENDBRANCH  21  22
ENDBRANCH  20  21
ENDBRANCH  19  20
ENDBRANCH  18  19
ENDBRANCH  14  15
BRANCH  14  13
ATOM     11  C   UNL     1      49.003   6.405  16.070  0.00  0.00    +0.000 C 
ATOM     12  O   UNL     1      50.168   6.356  15.679  0.00  0.00    +0.000 OA
ATOM     13  N   UNL     1      47.969   6.542  15.184  0.00  0.00    +0.000 N 
ATOM     31  H   UNL     1      47.012   6.559  15.511  0.00  0.00    +0.000 HD
BRANCH  11  10
ATOM      3  C   UNL     1      47.812   8.675  18.386  0.00  0.00    +0.000 A 
ATOM      4  N   UNL     1      47.401   9.341  19.486  0.00  0.00    +0.000 NA
ATOM      5  C   UNL     1      47.337   8.674  20.642  0.00  0.00    +0.000 A 
ATOM      6  N   UNL     1      47.640   7.396  20.844  0.00  0.00    +0.000 NA
ATOM      7  C   UNL     1      48.054   6.771  19.728  0.00  0.00    +0.000 A 
ATOM      8  S   UNL     1      48.481   5.131  19.804  0.00  0.00    +0.000 S 
ATOM      9  C   UNL     1      48.863   5.104  18.151  0.00  0.00    +0.000 A 
ATOM     10  C   UNL     1      48.678   6.323  17.506  0.00  0.00    +0.000 A 
ATOM     30  C   UNL     1      48.182   7.320  18.454  0.00  0.00    +0.000 A 
BRANCH   3   2
ATOM      1  C   UNL     1      49.071  10.033  16.937  0.00  0.00    +0.000 C 
ATOM      2  O   UNL     1      47.843   9.351  17.183  0.00  0.00    +0.000 OA
ENDBRANCH   3   2
ENDBRANCH  11  10
ENDBRANCH  14  13
TORSDOF 8
ENDMDL
MODEL 4
REMARK VINA RESULT:    -7.662      2.037      3.386
REMARK INTER + INTRA:         -12.800
REMARK INTER:                 -11.537
REMARK INTRA:                  -1.263
REMARK UNBOUND:                -1.555
REMARK  Name = 
REMARK  9 active torsions:
REMARK  status: ('A' for Active; 'I' for Inactive)
REMARK    1  A    between atoms: C_1  and  O_2
REMARK    2  A    between atoms: O_2  and  C_3
REMARK    3  A    between atoms: C_10  and  C_11
REMARK    4  A    between atoms: N_13  and  C_14
REMARK    5  A    between atoms: C_14  and  C_15
REMARK    6  A    between atoms: C_18  and  C_19
REMARK    7  A    between atoms: C_19  and  N_20
REMARK    8  A    between atoms: N_20  and  C_21
REMARK    9  A    between atoms: C_21  and  C_22
REMARK                            x       y       z     vdW  Elec       q    Type
REMARK                         _______ _______ _______ _____ _____    ______ ____
ROOT
ATOM     14  C   UNL     1      47.505   3.257  15.000  0.00  0.00    +0.000 C 
ENDROOT
BRANCH  14  15
ATOM     15  C   UNL     1      46.880   3.911  13.795  0.00  0.00    +0.000 A 
ATOM     16  C   UNL     1      47.193   5.235  13.460  0.00  0.00    +0.000 A 
ATOM     17  C   UNL     1      46.567   5.863  12.377  0.00  0.00    +0.000 A 
ATOM     18  C   UNL     1      45.613   5.183  11.607  0.00  0.00    +0.000 A 
ATOM     28  C   UNL     1      45.314   3.852  11.934  0.00  0.00    +0.000 A 
ATOM     29  C   UNL     1      45.937   3.227  13.018  0.00  0.00    +0.000 A 
BRANCH  18  19
ATOM     19  C   UNL     1      44.884   5.885  10.481  0.00  0.00    +0.000 C 
BRANCH  19  20
ATOM     20  N   UNL     1      45.386   5.477   9.172  0.00  0.00    +0.000 NA
ATOM     32  H   UNL     1      46.381   5.267   9.244  0.00  0.00    +0.000 HD
BRANCH  20  21
ATOM     21  C   UNL     1      44.687   4.289   8.682  0.00  0.00    +0.000 C 
BRANCH  21  22
ATOM     22  C   UNL     1      45.659   3.270   8.130  0.00  0.00    +0.000 A 
ATOM     23  C   UNL     1      45.589   1.925   8.513  0.00  0.00    +0.000 A 
ATOM     24  C   UNL     1      46.480   0.986   7.983  0.00  0.00    +0.000 A 
ATOM     25  C   UNL     1      47.448   1.385   7.062  0.00  0.00    +0.000 A 
ATOM     26  C   UNL     1      47.527   2.720   6.670  0.00  0.00    +0.000 A 
ATOM     27  C   UNL     1      46.636   3.656   7.199  0.00  0.00    +0.000 A 
ENDBRANCH  21  22
ENDBRANCH  20  21
ENDBRANCH  19  20
ENDBRANCH  18  19
ENDBRANCH  14  15
BRANCH  14  13
ATOM     11  C   UNL     1      47.362   4.199  17.264  0.00  0.00    +0.000 C 
ATOM     12  O   UNL     1      46.558   3.329  17.594  0.00  0.00    +0.000 OA
ATOM     13  N   UNL     1      47.874   4.239  15.996  0.00  0.00    +0.000 N 
ATOM     31  H   UNL     1      48.518   4.970  15.724  0.00  0.00    +0.000 HD
BRANCH  11  10
ATOM      3  C   UNL     1      50.448   5.497  18.117  0.00  0.00    +0.000 A 
ATOM      4  N   UNL     1      51.498   6.144  18.665  0.00  0.00    +0.000 NA
ATOM      5  C   UNL     1      51.258   7.038  19.629  0.00  0.00    +0.000 A 
ATOM      6  N   UNL     1      50.073   7.374  20.127  0.00  0.00    +0.000 NA
ATOM      7  C   UNL     1      49.055   6.702  19.564  0.00  0.00    +0.000 A 
ATOM      8  S   UNL     1      47.468   7.009  20.081  0.00  0.00    +0.000 S 
ATOM      9  C   UNL     1      46.842   5.864  18.996  0.00  0.00    +0.000 A 
ATOM     10  C   UNL     1      47.808   5.227  18.222  0.00  0.00    +0.000 A 
ATOM     30  C   UNL     1      49.135   5.740  18.559  0.00  0.00    +0.000 A 
BRANCH   3   2
ATOM      1  C   UNL     1      51.085   3.307  17.546  0.00  0.00    +0.000 C 
ATOM      2  O   UNL     1      50.690   4.601  17.096  0.00  0.00    +0.000 OA
ENDBRANCH   3   2
ENDBRANCH  11  10
ENDBRANCH  14  13
TORSDOF 8
ENDMDL
MODEL 5
REMARK VINA RESULT:    -7.629      1.947      2.136
REMARK INTER + INTRA:         -12.752
REMARK INTER:                 -11.493
REMARK INTRA:                  -1.259
REMARK UNBOUND:                -1.555
REMARK  Name = 
REMARK  9 active torsions:
REMARK  status: ('A' for Active; 'I' for Inactive)
REMARK    1  A    between atoms: C_1  and  O_2
REMARK    2  A    between atoms: O_2  and  C_3
REMARK    3  A    between atoms: C_10  and  C_11
REMARK    4  A    between atoms: N_13  and  C_14
REMARK    5  A    between atoms: C_14  and  C_15
REMARK    6  A    between atoms: C_18  and  C_19
REMARK    7  A    between atoms: C_19  and  N_20
REMARK    8  A    between atoms: N_20  and  C_21
REMARK    9  A    between atoms: C_21  and  C_22
REMARK                            x       y       z     vdW  Elec       q    Type
REMARK                         _______ _______ _______ _____ _____    ______ ____
ROOT
ATOM     14  C   UNL     1      48.356   6.522  13.494  0.00  0.00    +0.000 C 
ENDROOT
BRANCH  14  15
ATOM     15  C   UNL     1      47.029   6.209  12.853  0.00  0.00    +0.000 A 
ATOM     16  C   UNL     1      46.144   5.303  13.451  0.00  0.00    +0.000 A 
ATOM     17  C   UNL     1      44.938   4.965  12.825  0.00  0.00    +0.000 A 
ATOM     18  C   UNL     1      44.593   5.522  11.586  0.00  0.00    +0.000 A 
ATOM     28  C   UNL     1      45.472   6.441  10.997  0.00  0.00    +0.000 A 
ATOM     29  C   UNL     1      46.679   6.776  11.621  0.00  0.00    +0.000 A 
BRANCH  18  19
ATOM     19  C   UNL     1      43.324   5.102  10.876  0.00  0.00    +0.000 C 
BRANCH  19  20
ATOM     20  N   UNL     1      43.604   4.495   9.578  0.00  0.00    +0.000 NA
ATOM     32  H   UNL     1      44.262   5.082   9.067  0.00  0.00    +0.000 HD
BRANCH  20  21
ATOM     21  C   UNL     1      44.182   3.159   9.729  0.00  0.00    +0.000 C 
BRANCH  21  22
ATOM     22  C   UNL     1      45.277   2.917   8.714  0.00  0.00    +0.000 A 
ATOM     23  C   UNL     1      45.813   3.973   7.967  0.00  0.00    +0.000 A 
ATOM     24  C   UNL     1      46.838   3.743   7.043  0.00  0.00    +0.000 A 
ATOM     25  C   UNL     1      47.338   2.453   6.863  0.00  0.00    +0.000 A 
ATOM     26  C   UNL     1      46.815   1.395   7.603  0.00  0.00    +0.000 A 
ATOM     27  C   UNL     1      45.792   1.625   8.524  0.00  0.00    +0.000 A 
ENDBRANCH  21  22
ENDBRANCH  20  21
ENDBRANCH  19  20
ENDBRANCH  18  19
ENDBRANCH  14  15
BRANCH  14  13
ATOM     11  C   UNL     1      49.221   7.085  15.722  0.00  0.00    +0.000 C 
ATOM     12  O   UNL     1      50.340   6.682  15.408  0.00  0.00    +0.000 OA
ATOM     13  N   UNL     1      48.181   7.035  14.834  0.00  0.00    +0.000 N 
ATOM     31  H   UNL     1      47.258   7.348  15.106  0.00  0.00    +0.000 HD
BRANCH  11  10
ATOM      3  C   UNL     1      47.859   5.799  18.625  0.00  0.00    +0.000 A 
ATOM      4  N   UNL     1      47.346   5.580  19.854  0.00  0.00    +0.000 NA
ATOM      5  C   UNL     1      47.350   6.589  20.730  0.00  0.00    +0.000 A 
ATOM      6  N   UNL     1      47.813   7.819  20.529  0.00  0.00    +0.000 NA
ATOM      7  C   UNL     1      48.305   7.999  19.292  0.00  0.00    +0.000 A 
ATOM      8  S   UNL     1      48.941   9.513  18.863  0.00  0.00    +0.000 S 
ATOM      9  C   UNL     1      49.306   8.970  17.297  0.00  0.00    +0.000 A 
ATOM     10  C   UNL     1      48.961   7.642  17.062  0.00  0.00    +0.000 A 
ATOM     30  C   UNL     1      48.370   7.060  18.266  0.00  0.00    +0.000 A 
BRANCH   3   2
ATOM      1  C   UNL     1      49.033   3.906  17.871  0.00  0.00    +0.000 C 
ATOM      2  O   UNL     1      47.891   4.749  17.731  0.00  0.00    +0.000 OA
ENDBRANCH   3   2
ENDBRANCH  11  10
ENDBRANCH  14  13
TORSDOF 8
ENDMDL
MODEL 6
REMARK VINA RESULT:    -7.445      1.990      3.290
REMARK INTER + INTRA:         -12.483
REMARK INTER:                 -11.091
REMARK INTRA:                  -1.392
REMARK UNBOUND:                -1.555
REMARK  Name = 
REMARK  9 active torsions:
REMARK  status: ('A' for Active; 'I' for Inactive)
REMARK    1  A    between atoms: C_1  and  O_2
REMARK    2  A    between atoms: O_2  and  C_3
REMARK    3  A    between atoms: C_10  and  C_11
REMARK    4  A    between atoms: N_13  and  C_14
REMARK    5  A    between atoms: C_14  and  C_15
REMARK    6  A    between atoms: C_18  and  C_19
REMARK    7  A    between atoms: C_19  and  N_20
REMARK    8  A    between atoms: N_20  and  C_21
REMARK    9  A    between atoms: C_21  and  C_22
REMARK                            x       y       z     vdW  Elec       q    Type
REMARK                         _______ _______ _______ _____ _____    ______ ____
ROOT
ATOM     14  C   UNL     1      47.274   3.987  14.684  0.00  0.00    +0.000 C 
ENDROOT
BRANCH  14  15
ATOM     15  C   UNL     1      46.262   4.260  13.602  0.00  0.00    +0.000 A 
ATOM     16  C   UNL     1      45.680   3.205  12.887  0.00  0.00    +0.000 A 
ATOM     17  C   UNL     1      44.787   3.460  11.841  0.00  0.00    +0.000 A 
ATOM     18  C   UNL     1      44.458   4.775  11.483  0.00  0.00    +0.000 A 
ATOM     28  C   UNL     1      45.029   5.830  12.210  0.00  0.00    +0.000 A 
ATOM     29  C   UNL     1      45.924   5.574  13.254  0.00  0.00    +0.000 A 
BRANCH  18  19
ATOM     19  C   UNL     1      43.548   5.052  10.305  0.00  0.00    +0.000 C 
BRANCH  19  20
ATOM     20  N   UNL     1      43.927   4.270   9.131  0.00  0.00    +0.000 NA
ATOM     32  H   UNL     1      43.284   4.478   8.367  0.00  0.00    +0.000 HD
BRANCH  20  21
ATOM     21  C   UNL     1      45.290   4.585   8.700  0.00  0.00    +0.000 C 
BRANCH  21  22
ATOM     22  C   UNL     1      45.949   3.389   8.050  0.00  0.00    +0.000 A 
ATOM     23  C   UNL     1      46.790   3.544   6.941  0.00  0.00    +0.000 A 
ATOM     24  C   UNL     1      47.410   2.435   6.357  0.00  0.00    +0.000 A 
ATOM     25  C   UNL     1      47.195   1.160   6.880  0.00  0.00    +0.000 A 
ATOM     26  C   UNL     1      46.363   0.993   7.985  0.00  0.00    +0.000 A 
ATOM     27  C   UNL     1      45.745   2.100   8.567  0.00  0.00    +0.000 A 
ENDBRANCH  21  22
ENDBRANCH  20  21
ENDBRANCH  19  20
ENDBRANCH  18  19
ENDBRANCH  14  15
BRANCH  14  13
ATOM     11  C   UNL     1      48.422   5.176  16.500  0.00  0.00    +0.000 C 
ATOM     12  O   UNL     1      49.186   4.226  16.662  0.00  0.00    +0.000 OA
ATOM     13  N   UNL     1      47.443   5.135  15.546  0.00  0.00    +0.000 N 
ATOM     31  H   UNL     1      46.803   5.911  15.433  0.00  0.00    +0.000 HD
BRANCH  11  10
ATOM      3  C   UNL     1      48.604   8.548  15.769  0.00  0.00    +0.000 A 
ATOM      4  N   UNL     1      48.727   9.891  15.776  0.00  0.00    +0.000 NA
ATOM      5  C   UNL     1      48.850  10.509  16.955  0.00  0.00    +0.000 A 
ATOM      6  N   UNL     1      48.865   9.939  18.156  0.00  0.00    +0.000 NA
ATOM      7  C   UNL     1      48.750   8.602  18.105  0.00  0.00    +0.000 A 
ATOM      8  S   UNL     1      48.750   7.712  19.550  0.00  0.00    +0.000 S 
ATOM      9  C   UNL     1      48.594   6.248  18.705  0.00  0.00    +0.000 A 
ATOM     10  C   UNL     1      48.537   6.394  17.322  0.00  0.00    +0.000 A 
ATOM     30  C   UNL     1      48.621   7.810  16.966  0.00  0.00    +0.000 A 
BRANCH   3   2
ATOM      1  C   UNL     1      49.666   7.577  13.909  0.00  0.00    +0.000 C 
ATOM      2  O   UNL     1      48.439   7.911  14.555  0.00  0.00    +0.000 OA
ENDBRANCH   3   2
ENDBRANCH  11  10
ENDBRANCH  14  13
TORSDOF 8
ENDMDL
MODEL 7
REMARK VINA RESULT:    -7.284      1.549      2.168
REMARK INTER + INTRA:         -12.245
REMARK INTER:                 -10.953
REMARK INTRA:                  -1.293
REMARK UNBOUND:                -1.555
REMARK  Name = 
REMARK  9 active torsions:
REMARK  status: ('A' for Active; 'I' for Inactive)
REMARK    1  A    between atoms: C_1  and  O_2
REMARK    2  A    between atoms: O_2  and  C_3
REMARK    3  A    between atoms: C_10  and  C_11
REMARK    4  A    between atoms: N_13  and  C_14
REMARK    5  A    between atoms: C_14  and  C_15
REMARK    6  A    between atoms: C_18  and  C_19
REMARK    7  A    between atoms: C_19  and  N_20
REMARK    8  A    between atoms: N_20  and  C_21
REMARK    9  A    between atoms: C_21  and  C_22
REMARK                            x       y       z     vdW  Elec       q    Type
REMARK                         _______ _______ _______ _____ _____    ______ ____
ROOT
ATOM     14  C   UNL     1      47.982   7.548  13.560  0.00  0.00    +0.000 C 
ENDROOT
BRANCH  14  15
ATOM     15  C   UNL     1      47.132   6.432  13.009  0.00  0.00    +0.000 A 
ATOM     16  C   UNL     1      46.513   6.558  11.759  0.00  0.00    +0.000 A 
ATOM     17  C   UNL     1      45.675   5.548  11.274  0.00  0.00    +0.000 A 
ATOM     18  C   UNL     1      45.433   4.391  12.029  0.00  0.00    +0.000 A 
ATOM     28  C   UNL     1      46.068   4.260  13.273  0.00  0.00    +0.000 A 
ATOM     29  C   UNL     1      46.903   5.272  13.759  0.00  0.00    +0.000 A 
BRANCH  18  19
ATOM     19  C   UNL     1      44.471   3.333  11.536  0.00  0.00    +0.000 C 
BRANCH  19  20
ATOM     20  N   UNL     1      44.189   3.476  10.111  0.00  0.00    +0.000 NA
ATOM     32  H   UNL     1      44.801   4.190   9.717  0.00  0.00    +0.000 HD
BRANCH  20  21
ATOM     21  C   UNL     1      44.412   2.218   9.396  0.00  0.00    +0.000 C 
BRANCH  21  22
ATOM     22  C   UNL     1      45.565   2.336   8.425  0.00  0.00    +0.000 A 
ATOM     23  C   UNL     1      46.351   1.224   8.100  0.00  0.00    +0.000 A 
ATOM     24  C   UNL     1      47.404   1.339   7.186  0.00  0.00    +0.000 A 
ATOM     25  C   UNL     1      47.678   2.568   6.587  0.00  0.00    +0.000 A 
ATOM     26  C   UNL     1      46.901   3.682   6.900  0.00  0.00    +0.000 A 
ATOM     27  C   UNL     1      45.851   3.566   7.811  0.00  0.00    +0.000 A 
ENDBRANCH  21  22
ENDBRANCH  20  21
ENDBRANCH  19  20
ENDBRANCH  18  19
ENDBRANCH  14  15
BRANCH  14  13
ATOM     11  C   UNL     1      49.351   7.394  15.592  0.00  0.00    +0.000 C 
ATOM     12  O   UNL     1      48.610   8.185  16.172  0.00  0.00    +0.000 OA
ATOM     13  N   UNL     1      49.114   7.031  14.294  0.00  0.00    +0.000 N 
ATOM     31  H   UNL     1      49.741   6.398  13.815  0.00  0.00    +0.000 HD
BRANCH  11  10
ATOM      3  C   UNL     1      49.933   4.367  17.151  0.00  0.00    +0.000 A 
ATOM      4  N   UNL     1      50.419   3.312  17.839  0.00  0.00    +0.000 NA
ATOM      5  C   UNL     1      51.674   3.377  18.294  0.00  0.00    +0.000 A 
ATOM      6  N   UNL     1      52.525   4.387  18.145  0.00  0.00    +0.000 NA
ATOM      7  C   UNL     1      52.000   5.420  17.464  0.00  0.00    +0.000 A 
ATOM      8  S   UNL     1      52.952   6.797  17.180  0.00  0.00    +0.000 S 
ATOM      9  C   UNL     1      51.682   7.563  16.355  0.00  0.00    +0.000 A 
ATOM     10  C   UNL     1      50.518   6.804  16.273  0.00  0.00    +0.000 A 
ATOM     30  C   UNL     1      50.717   5.514  16.932  0.00  0.00    +0.000 A 
BRANCH   3   2
ATOM      1  C   UNL     1      47.633   4.424  17.640  0.00  0.00    +0.000 C 
ATOM      2  O   UNL     1      48.650   4.287  16.649  0.00  0.00    +0.000 OA
ENDBRANCH   3   2
ENDBRANCH  11  10
ENDBRANCH  14  13
TORSDOF 8
ENDMDL
MODEL 8
REMARK VINA RESULT:    -7.166      1.972      3.649
REMARK INTER + INTRA:         -12.072
REMARK INTER:                 -10.749
REMARK INTRA:                  -1.323
REMARK UNBOUND:                -1.555
REMARK  Name = 
REMARK  9 active torsions:
REMARK  status: ('A' for Active; 'I' for Inactive)
REMARK    1  A    between atoms: C_1  and  O_2
REMARK    2  A    between atoms: O_2  and  C_3
REMARK    3  A    between atoms: C_10  and  C_11
REMARK    4  A    between atoms: N_13  and  C_14
REMARK    5  A    between atoms: C_14  and  C_15
REMARK    6  A    between atoms: C_18  and  C_19
REMARK    7  A    between atoms: C_19  and  N_20
REMARK    8  A    between atoms: N_20  and  C_21
REMARK    9  A    between atoms: C_21  and  C_22
REMARK                            x       y       z     vdW  Elec       q    Type
REMARK                         _______ _______ _______ _____ _____    ______ ____
ROOT
ATOM     14  C   UNL     1      47.150   4.485  14.747  0.00  0.00    +0.000 C 
ENDROOT
BRANCH  14  15
ATOM     15  C   UNL     1      46.250   4.616  13.546  0.00  0.00    +0.000 A 
ATOM     16  C   UNL     1      45.912   5.879  13.043  0.00  0.00    +0.000 A 
ATOM     17  C   UNL     1      45.027   6.003  11.966  0.00  0.00    +0.000 A 
ATOM     18  C   UNL     1      44.457   4.869  11.371  0.00  0.00    +0.000 A 
ATOM     28  C   UNL     1      44.810   3.605  11.865  0.00  0.00    +0.000 A 
ATOM     29  C   UNL     1      45.692   3.481  12.944  0.00  0.00    +0.000 A 
BRANCH  18  19
ATOM     19  C   UNL     1      43.446   5.007  10.254  0.00  0.00    +0.000 C 
BRANCH  19  20
ATOM     20  N   UNL     1      43.858   4.284   9.054  0.00  0.00    +0.000 NA
ATOM     32  H   UNL     1      43.251   4.544   8.278  0.00  0.00    +0.000 HD
BRANCH  20  21
ATOM     21  C   UNL     1      45.243   4.596   8.695  0.00  0.00    +0.000 C 
BRANCH  21  22
ATOM     22  C   UNL     1      45.931   3.401   8.076  0.00  0.00    +0.000 A 
ATOM     23  C   UNL     1      45.729   2.111   8.580  0.00  0.00    +0.000 A 
ATOM     24  C   UNL     1      46.356   1.009   7.989  0.00  0.00    +0.000 A 
ATOM     25  C   UNL     1      47.188   1.189   6.884  0.00  0.00    +0.000 A 
ATOM     26  C   UNL     1      47.395   2.468   6.371  0.00  0.00    +0.000 A 
ATOM     27  C   UNL     1      46.769   3.567   6.962  0.00  0.00    +0.000 A 
ENDBRANCH  21  22
ENDBRANCH  20  21
ENDBRANCH  19  20
ENDBRANCH  18  19
ENDBRANCH  14  15
BRANCH  14  13
ATOM     11  C   UNL     1      48.669   5.872  16.088  0.00  0.00    +0.000 C 
ATOM     12  O   UNL     1      49.122   4.871  16.642  0.00  0.00    +0.000 OA
ATOM     13  N   UNL     1      47.686   5.768  15.143  0.00  0.00    +0.000 N 
ATOM     31  H   UNL     1      47.303   6.597  14.707  0.00  0.00    +0.000 HD
BRANCH  11  10
ATOM      3  C   UNL     1      49.599   8.608  14.196  0.00  0.00    +0.000 A 
ATOM      4  N   UNL     1      50.052   9.787  13.720  0.00  0.00    +0.000 NA
ATOM      5  C   UNL     1      50.453  10.712  14.598  0.00  0.00    +0.000 A 
ATOM      6  N   UNL     1      50.460  10.604  15.922  0.00  0.00    +0.000 NA
ATOM      7  C   UNL     1      50.011   9.414  16.355  0.00  0.00    +0.000 A 
ATOM      8  S   UNL     1      49.951   9.106  18.023  0.00  0.00    +0.000 S 
ATOM      9  C   UNL     1      49.344   7.542  17.760  0.00  0.00    +0.000 A 
ATOM     10  C   UNL     1      49.173   7.217  16.418  0.00  0.00    +0.000 A 
ATOM     30  C   UNL     1      49.565   8.348  15.577  0.00  0.00    +0.000 A 
BRANCH   3   2
ATOM      1  C   UNL     1      48.822   8.204  12.013  0.00  0.00    +0.000 C 
ATOM      2  O   UNL     1      49.149   7.666  13.293  0.00  0.00    +0.000 OA
ENDBRANCH   3   2
ENDBRANCH  11  10
ENDBRANCH  14  13
TORSDOF 8
ENDMDL
MODEL 9
REMARK VINA RESULT:    -7.125      2.875      4.759
REMARK INTER + INTRA:         -12.012
REMARK INTER:                 -10.571
REMARK INTRA:                  -1.441
REMARK UNBOUND:                -1.555
REMARK  Name = 
REMARK  9 active torsions:
REMARK  status: ('A' for Active; 'I' for Inactive)
REMARK    1  A    between atoms: C_1  and  O_2
REMARK    2  A    between atoms: O_2  and  C_3
REMARK    3  A    between atoms: C_10  and  C_11
REMARK    4  A    between atoms: N_13  and  C_14
REMARK    5  A    between atoms: C_14  and  C_15
REMARK    6  A    between atoms: C_18  and  C_19
REMARK    7  A    between atoms: C_19  and  N_20
REMARK    8  A    between atoms: N_20  and  C_21
REMARK    9  A    between atoms: C_21  and  C_22
REMARK                            x       y       z     vdW  Elec       q    Type
REMARK                         _______ _______ _______ _____ _____    ______ ____
ROOT
ATOM     14  C   UNL     1      47.842   5.969  14.206  0.00  0.00    +0.000 C 
ENDROOT
BRANCH  14  15
ATOM     15  C   UNL     1      46.741   5.670  13.222  0.00  0.00    +0.000 A 
ATOM     16  C   UNL     1      46.722   6.288  11.964  0.00  0.00    +0.000 A 
ATOM     17  C   UNL     1      45.668   6.058  11.074  0.00  0.00    +0.000 A 
ATOM     18  C   UNL     1      44.607   5.210  11.420  0.00  0.00    +0.000 A 
ATOM     28  C   UNL     1      44.636   4.579  12.673  0.00  0.00    +0.000 A 
ATOM     29  C   UNL     1      45.688   4.812  13.564  0.00  0.00    +0.000 A 
BRANCH  18  19
ATOM     19  C   UNL     1      43.432   5.019  10.486  0.00  0.00    +0.000 C 
BRANCH  19  20
ATOM     20  N   UNL     1      43.840   4.431   9.213  0.00  0.00    +0.000 NA
ATOM     32  H   UNL     1      44.566   5.009   8.793  0.00  0.00    +0.000 HD
BRANCH  20  21
ATOM     21  C   UNL     1      44.364   3.076   9.397  0.00  0.00    +0.000 C 
BRANCH  21  22
ATOM     22  C   UNL     1      45.444   2.764   8.386  0.00  0.00    +0.000 A 
ATOM     23  C   UNL     1      45.906   3.744   7.499  0.00  0.00    +0.000 A 
ATOM     24  C   UNL     1      46.918   3.451   6.579  0.00  0.00    +0.000 A 
ATOM     25  C   UNL     1      47.480   2.175   6.542  0.00  0.00    +0.000 A 
ATOM     26  C   UNL     1      47.030   1.192   7.421  0.00  0.00    +0.000 A 
ATOM     27  C   UNL     1      46.020   1.485   8.338  0.00  0.00    +0.000 A 
ENDBRANCH  21  22
ENDBRANCH  20  21
ENDBRANCH  19  20
ENDBRANCH  18  19
ENDBRANCH  14  15
BRANCH  14  13
ATOM     11  C   UNL     1      49.698   7.568  14.365  0.00  0.00    +0.000 C 
ATOM     12  O   UNL     1      49.575   7.616  15.588  0.00  0.00    +0.000 OA
ATOM     13  N   UNL     1      48.875   6.782  13.606  0.00  0.00    +0.000 N 
ATOM     31  H   UNL     1      48.967   6.765  12.599  0.00  0.00    +0.000 HD
BRANCH  11  10
ATOM      3  C   UNL     1      49.678   9.703  11.649  0.00  0.00    +0.000 A 
ATOM      4  N   UNL     1      49.967  10.529  10.622  0.00  0.00    +0.000 NA
ATOM      5  C   UNL     1      51.237  10.912  10.457  0.00  0.00    +0.000 A 
ATOM      6  N   UNL     1      52.279  10.565  11.205  0.00  0.00    +0.000 NA
ATOM      7  C   UNL     1      51.951   9.734  12.209  0.00  0.00    +0.000 A 
ATOM      8  S   UNL     1      53.162   9.191  13.267  0.00  0.00    +0.000 S 
ATOM      9  C   UNL     1      52.043   8.270  14.151  0.00  0.00    +0.000 A 
ATOM     10  C   UNL     1      50.738   8.350  13.674  0.00  0.00    +0.000 A 
ATOM     30  C   UNL     1      50.685   9.239  12.514  0.00  0.00    +0.000 A 
BRANCH   3   2
ATOM      1  C   UNL     1      47.596  10.300  12.564  0.00  0.00    +0.000 C 
ATOM      2  O   UNL     1      48.362   9.336  11.844  0.00  0.00    +0.000 OA
ENDBRANCH   3   2
ENDBRANCH  11  10
ENDBRANCH  14  13
TORSDOF 8
ENDMDL
