MODEL 1
REMARK VINA RESULT:    -6.744      0.000      0.000
REMARK INTER + INTRA:         -13.715
REMARK INTER:                 -11.869
REMARK INTRA:                  -1.846
REMARK UNBOUND:                -1.846
REMARK  Name = 
REMARK  15 active torsions:
REMARK  status: ('A' for Active; 'I' for Inactive)
REMARK    1  A    between atoms: C_1  and  C_2
REMARK    2  A    between atoms: C_2  and  C_3
REMARK    3  A    between atoms: C_3  and  C_4
REMARK    4  A    between atoms: C_4  and  C_5
REMARK    5  A    between atoms: C_5  and  C_6
REMARK    6  A    between atoms: C_6  and  C_7
REMARK    7  A    between atoms: C_7  and  C_8
REMARK    8  A    between atoms: C_8  and  N_9
REMARK    9  A    between atoms: N_9  and  C_10
REMARK   10  A    between atoms: C_10  and  C_11
REMARK   11  A    between atoms: C_14  and  C_15
REMARK   12  A    between atoms: C_15  and  N_16
REMARK   13  A    between atoms: C_17  and  C_19
REMARK   14  A    between atoms: C_26  and  O_27
REMARK   15  A    between atoms: O_27  and  C_28
REMARK                            x       y       z     vdW  Elec       q    Type
REMARK                         _______ _______ _______ _____ _____    ______ ____
ROOT
ATOM     11  C   UNL     1      44.821   4.178  12.699  0.00  0.00    +0.000 A 
ATOM     12  C   UNL     1      44.485   5.531  12.552  0.00  0.00    +0.000 A 
ATOM     13  C   UNL     1      45.401   6.537  12.858  0.00  0.00    +0.000 A 
ATOM     14  C   UNL     1      46.681   6.217  13.334  0.00  0.00    +0.000 A 
ATOM     30  C   UNL     1      47.005   4.862  13.499  0.00  0.00    +0.000 A 
ATOM     31  C   UNL     1      46.096   3.850  13.169  0.00  0.00    +0.000 A 
ENDROOT
BRANCH  11  10
ATOM     10  C   UNL     1      43.808   3.102  12.392  0.00  0.00    +0.000 C 
BRANCH  10   9
ATOM      9  N   UNL     1      43.278   3.253  11.040  0.00  0.00    +0.000 NA
ATOM     32  H   UNL     1      42.435   2.692  10.939  0.00  0.00    +0.000 HD
BRANCH   9   8
ATOM      8  C   UNL     1      44.257   2.827  10.051  0.00  0.00    +0.000 C 
BRANCH   8   7
ATOM      7  C   UNL     1      44.301   3.859   8.930  0.00  0.00    +0.000 C 
BRANCH   7   6
ATOM      6  C   UNL     1      45.585   4.670   9.034  0.00  0.00    +0.000 C 
BRANCH   6   5
ATOM      5  C   UNL     1      46.429   4.513   7.778  0.00  0.00    +0.000 C 
BRANCH   5   4
ATOM      4  C   UNL     1      45.971   3.296   6.985  0.00  0.00    +0.000 C 
BRANCH   4   3
ATOM      3  C   UNL     1      47.073   2.828   6.044  0.00  0.00    +0.000 C 
BRANCH   3   2
ATOM      1  C   UNL     1      46.863   0.876   7.597  0.00  0.00    +0.000 C 
ATOM      2  C   UNL     1      47.751   1.572   6.580  0.00  0.00    +0.000 C 
ENDBRANCH   3   2
ENDBRANCH   4   3
ENDBRANCH   5   4
ENDBRANCH   6   5
ENDBRANCH   7   6
ENDBRANCH   8   7
ENDBRANCH   9   8
ENDBRANCH  10   9
ENDBRANCH  11  10
BRANCH  14  15
ATOM     15  C   UNL     1      47.689   7.291  13.655  0.00  0.00    +0.000 C 
BRANCH  15  16
ATOM     16  N   UNL     1      47.863   7.480  15.073  0.00  0.00    +0.000 N 
ATOM     17  C   UNL     1      48.969   7.005  15.746  0.00  0.00    +0.000 C 
ATOM     18  O   UNL     1      49.893   6.449  15.177  0.00  0.00    +0.000 OA
ATOM     33  H   UNL     1      47.027   7.668  15.607  0.00  0.00    +0.000 HD
BRANCH  17  19
ATOM     19  C   UNL     1      48.991   7.259  17.198  0.00  0.00    +0.000 A 
ATOM     20  C   UNL     1      49.172   8.550  17.678  0.00  0.00    +0.000 A 
ATOM     21  S   UNL     1      49.165   8.645  19.382  0.00  0.00    +0.000 S 
ATOM     22  C   UNL     1      48.951   6.964  19.528  0.00  0.00    +0.000 A 
ATOM     23  N   UNL     1      48.892   6.389  20.742  0.00  0.00    +0.000 NA
ATOM     24  C   UNL     1      48.724   5.066  20.675  0.00  0.00    +0.000 A 
ATOM     25  N   UNL     1      48.610   4.310  19.575  0.00  0.00    +0.000 NA
ATOM     26  C   UNL     1      48.682   4.934  18.387  0.00  0.00    +0.000 A 
ATOM     29  C   UNL     1      48.858   6.323  18.302  0.00  0.00    +0.000 A 
BRANCH  26  27
ATOM     27  O   UNL     1      48.583   4.207  17.224  0.00  0.00    +0.000 OA
ATOM     28  C   UNL     1      47.358   3.524  17.028  0.00  0.00    +0.000 C 
ENDBRANCH  26  27
ENDBRANCH  17  19
ENDBRANCH  15  16
ENDBRANCH  14  15
TORSDOF 13
ENDMDL
MODEL 2
REMARK VINA RESULT:    -6.711      1.893      3.000
REMARK INTER + INTRA:         -13.659
REMARK INTER:                 -11.359
REMARK INTRA:                  -2.299
REMARK UNBOUND:                -1.846
REMARK  Name = 
REMARK  15 active torsions:
REMARK  status: ('A' for Active; 'I' for Inactive)
REMARK    1  A    between atoms: C_1  and  C_2
REMARK    2  A    between atoms: C_2  and  C_3
REMARK    3  A    between atoms: C_3  and  C_4
REMARK    4  A    between atoms: C_4  and  C_5
REMARK    5  A    between atoms: C_5  and  C_6
REMARK    6  A    between atoms: C_6  and  C_7
REMARK    7  A    between atoms: C_7  and  C_8
REMARK    8  A    between atoms: C_8  and  N_9
REMARK    9  A    between atoms: N_9  and  C_10
REMARK   10  A    between atoms: C_10  and  C_11
REMARK   11  A    between atoms: C_14  and  C_15
REMARK   12  A    between atoms: C_15  and  N_16
REMARK   13  A    between atoms: C_17  and  C_19
REMARK   14  A    between atoms: C_26  and  O_27
REMARK   15  A    between atoms: O_27  and  C_28
REMARK                            x       y       z     vdW  Elec       q    Type
REMARK                         _______ _______ _______ _____ _____    ______ ____
ROOT
ATOM     11  C   UNL     1      44.834   7.419  11.530  0.00  0.00    +0.000 A 
ATOM     12  C   UNL     1      45.821   6.562  11.022  0.00  0.00    +0.000 A 
ATOM     13  C   UNL     1      47.134   6.620  11.488  0.00  0.00    +0.000 A 
ATOM     14  C   UNL     1      47.502   7.553  12.470  0.00  0.00    +0.000 A 
ATOM     30  C   UNL     1      46.515   8.423  12.959  0.00  0.00    +0.000 A 
ATOM     31  C   UNL     1      45.191   8.348  12.511  0.00  0.00    +0.000 A 
ENDROOT
BRANCH  11  10
ATOM     10  C   UNL     1      43.425   7.362  10.992  0.00  0.00    +0.000 C 
BRANCH  10   9
ATOM      9  N   UNL     1      42.997   5.981  10.792  0.00  0.00    +0.000 NA
ATOM     32  H   UNL     1      42.272   5.948  10.079  0.00  0.00    +0.000 HD
BRANCH   9   8
ATOM      8  C   UNL     1      42.478   5.414  12.028  0.00  0.00    +0.000 C 
BRANCH   8   7
ATOM      7  C   UNL     1      43.364   4.245  12.441  0.00  0.00    +0.000 C 
BRANCH   7   6
ATOM      6  C   UNL     1      43.370   3.196  11.338  0.00  0.00    +0.000 C 
BRANCH   6   5
ATOM      5  C   UNL     1      44.780   2.963  10.818  0.00  0.00    +0.000 C 
BRANCH   5   4
ATOM      4  C   UNL     1      44.796   3.013   9.296  0.00  0.00    +0.000 C 
BRANCH   4   3
ATOM      3  C   UNL     1      45.609   1.854   8.733  0.00  0.00    +0.000 C 
BRANCH   3   2
ATOM      1  C   UNL     1      46.461   3.828   7.452  0.00  0.00    +0.000 C 
ATOM      2  C   UNL     1      46.484   2.315   7.573  0.00  0.00    +0.000 C 
ENDBRANCH   3   2
ENDBRANCH   4   3
ENDBRANCH   5   4
ENDBRANCH   6   5
ENDBRANCH   7   6
ENDBRANCH   8   7
ENDBRANCH   9   8
ENDBRANCH  10   9
ENDBRANCH  11  10
BRANCH  14  15
ATOM     15  C   UNL     1      48.913   7.620  12.997  0.00  0.00    +0.000 C 
BRANCH  15  16
ATOM     16  N   UNL     1      49.107   6.795  14.164  0.00  0.00    +0.000 N 
ATOM     17  C   UNL     1      49.025   7.304  15.442  0.00  0.00    +0.000 C 
ATOM     18  O   UNL     1      48.727   8.464  15.669  0.00  0.00    +0.000 OA
ATOM     33  H   UNL     1      49.619   5.936  14.027  0.00  0.00    +0.000 HD
BRANCH  17  19
ATOM     19  C   UNL     1      49.269   6.339  16.530  0.00  0.00    +0.000 A 
ATOM     20  C   UNL     1      50.275   6.573  17.459  0.00  0.00    +0.000 A 
ATOM     21  S   UNL     1      50.404   5.349  18.641  0.00  0.00    +0.000 S 
ATOM     22  C   UNL     1      49.140   4.459  17.932  0.00  0.00    +0.000 A 
ATOM     23  N   UNL     1      48.766   3.276  18.452  0.00  0.00    +0.000 NA
ATOM     24  C   UNL     1      47.765   2.711  17.774  0.00  0.00    +0.000 A 
ATOM     25  N   UNL     1      47.135   3.191  16.693  0.00  0.00    +0.000 NA
ATOM     26  C   UNL     1      47.552   4.373  16.209  0.00  0.00    +0.000 A 
ATOM     29  C   UNL     1      48.597   5.083  16.819  0.00  0.00    +0.000 A 
BRANCH  26  27
ATOM     27  O   UNL     1      46.950   4.908  15.094  0.00  0.00    +0.000 OA
ATOM     28  C   UNL     1      46.837   4.039  13.981  0.00  0.00    +0.000 C 
ENDBRANCH  26  27
ENDBRANCH  17  19
ENDBRANCH  15  16
ENDBRANCH  14  15
TORSDOF 13
ENDMDL
MODEL 3
REMARK VINA RESULT:    -6.675      1.916      2.664
REMARK INTER + INTRA:         -13.594
REMARK INTER:                 -11.660
REMARK INTRA:                  -1.934
REMARK UNBOUND:                -1.846
REMARK  Name = 
REMARK  15 active torsions:
REMARK  status: ('A' for Active; 'I' for Inactive)
REMARK    1  A    between atoms: C_1  and  C_2
REMARK    2  A    between atoms: C_2  and  C_3
REMARK    3  A    between atoms: C_3  and  C_4
REMARK    4  A    between atoms: C_4  and  C_5
REMARK    5  A    between atoms: C_5  and  C_6
REMARK    6  A    between atoms: C_6  and  C_7
REMARK    7  A    between atoms: C_7  and  C_8
REMARK    8  A    between atoms: C_8  and  N_9
REMARK    9  A    between atoms: N_9  and  C_10
REMARK   10  A    between atoms: C_10  and  C_11
REMARK   11  A    between atoms: C_14  and  C_15
REMARK   12  A    between atoms: C_15  and  N_16
REMARK   13  A    between atoms: C_17  and  C_19
REMARK   14  A    between atoms: C_26  and  O_27
REMARK   15  A    between atoms: O_27  and  C_28
REMARK                            x       y       z     vdW  Elec       q    Type
REMARK                         _______ _______ _______ _____ _____    ______ ____
ROOT
ATOM     11  C   UNL     1      44.685   7.169  11.470  0.00  0.00    +0.000 A 
ATOM     12  C   UNL     1      44.945   8.109  12.477  0.00  0.00    +0.000 A 
ATOM     13  C   UNL     1      46.241   8.321  12.947  0.00  0.00    +0.000 A 
ATOM     14  C   UNL     1      47.317   7.585  12.428  0.00  0.00    +0.000 A 
ATOM     30  C   UNL     1      47.048   6.631  11.435  0.00  0.00    +0.000 A 
ATOM     31  C   UNL     1      45.752   6.435  10.944  0.00  0.00    +0.000 A 
ENDROOT
BRANCH  11  10
ATOM     10  C   UNL     1      43.272   6.932  10.995  0.00  0.00    +0.000 C 
BRANCH  10   9
ATOM      9  N   UNL     1      43.073   5.535  10.620  0.00  0.00    +0.000 NA
ATOM     32  H   UNL     1      42.219   5.446  10.074  0.00  0.00    +0.000 HD
BRANCH   9   8
ATOM      8  C   UNL     1      42.976   4.691  11.802  0.00  0.00    +0.000 C 
BRANCH   8   7
ATOM      7  C   UNL     1      43.309   3.257  11.409  0.00  0.00    +0.000 C 
BRANCH   7   6
ATOM      6  C   UNL     1      44.720   3.199  10.841  0.00  0.00    +0.000 C 
BRANCH   6   5
ATOM      5  C   UNL     1      44.729   2.528   9.476  0.00  0.00    +0.000 C 
BRANCH   5   4
ATOM      4  C   UNL     1      44.752   3.578   8.373  0.00  0.00    +0.000 C 
BRANCH   4   3
ATOM      3  C   UNL     1      45.992   3.412   7.504  0.00  0.00    +0.000 C 
BRANCH   3   2
ATOM      1  C   UNL     1      47.857   1.872   6.856  0.00  0.00    +0.000 C 
ATOM      2  C   UNL     1      46.541   1.993   7.605  0.00  0.00    +0.000 C 
ENDBRANCH   3   2
ENDBRANCH   4   3
ENDBRANCH   5   4
ENDBRANCH   6   5
ENDBRANCH   7   6
ENDBRANCH   8   7
ENDBRANCH   9   8
ENDBRANCH  10   9
ENDBRANCH  11  10
BRANCH  14  15
ATOM     15  C   UNL     1      48.727   7.812  12.913  0.00  0.00    +0.000 C 
BRANCH  15  16
ATOM     16  N   UNL     1      49.069   6.967  14.030  0.00  0.00    +0.000 N 
ATOM     17  C   UNL     1      48.896   7.374  15.336  0.00  0.00    +0.000 C 
ATOM     18  O   UNL     1      48.390   8.444  15.628  0.00  0.00    +0.000 OA
ATOM     33  H   UNL     1      49.731   6.227  13.847  0.00  0.00    +0.000 HD
BRANCH  17  19
ATOM     19  C   UNL     1      49.314   6.406  16.366  0.00  0.00    +0.000 A 
ATOM     20  C   UNL     1      50.420   6.669  17.164  0.00  0.00    +0.000 A 
ATOM     21  S   UNL     1      50.745   5.436  18.299  0.00  0.00    +0.000 S 
ATOM     22  C   UNL     1      49.438   4.503  17.739  0.00  0.00    +0.000 A 
ATOM     23  N   UNL     1      49.180   3.300  18.281  0.00  0.00    +0.000 NA
ATOM     24  C   UNL     1      48.124   2.702  17.724  0.00  0.00    +0.000 A 
ATOM     25  N   UNL     1      47.344   3.170  16.740  0.00  0.00    +0.000 NA
ATOM     26  C   UNL     1      47.649   4.374  16.229  0.00  0.00    +0.000 A 
ATOM     29  C   UNL     1      48.734   5.119  16.715  0.00  0.00    +0.000 A 
BRANCH  26  27
ATOM     27  O   UNL     1      46.890   4.898  15.209  0.00  0.00    +0.000 OA
ATOM     28  C   UNL     1      46.864   4.142  14.011  0.00  0.00    +0.000 C 
ENDBRANCH  26  27
ENDBRANCH  17  19
ENDBRANCH  15  16
ENDBRANCH  14  15
TORSDOF 13
ENDMDL
MODEL 4
REMARK VINA RESULT:    -6.435      2.208      2.798
REMARK INTER + INTRA:         -13.171
REMARK INTER:                 -11.429
REMARK INTRA:                  -1.743
REMARK UNBOUND:                -1.846
REMARK  Name = 
REMARK  15 active torsions:
REMARK  status: ('A' for Active; 'I' for Inactive)
REMARK    1  A    between atoms: C_1  and  C_2
REMARK    2  A    between atoms: C_2  and  C_3
REMARK    3  A    between atoms: C_3  and  C_4
REMARK    4  A    between atoms: C_4  and  C_5
REMARK    5  A    between atoms: C_5  and  C_6
REMARK    6  A    between atoms: C_6  and  C_7
REMARK    7  A    between atoms: C_7  and  C_8
REMARK    8  A    between atoms: C_8  and  N_9
REMARK    9  A    between atoms: N_9  and  C_10
REMARK   10  A    between atoms: C_10  and  C_11
REMARK   11  A    between atoms: C_14  and  C_15
REMARK   12  A    between atoms: C_15  and  N_16
REMARK   13  A    between atoms: C_17  and  C_19
REMARK   14  A    between atoms: C_26  and  O_27
REMARK   15  A    between atoms: O_27  and  C_28
REMARK                            x       y       z     vdW  Elec       q    Type
REMARK                         _______ _______ _______ _____ _____    ______ ____
ROOT
ATOM     11  C   UNL     1      46.239   6.665  11.861  0.00  0.00    +0.000 A 
ATOM     12  C   UNL     1      46.064   7.976  12.329  0.00  0.00    +0.000 A 
ATOM     13  C   UNL     1      46.798   8.456  13.413  0.00  0.00    +0.000 A 
ATOM     14  C   UNL     1      47.723   7.630  14.071  0.00  0.00    +0.000 A 
ATOM     30  C   UNL     1      47.878   6.314  13.611  0.00  0.00    +0.000 A 
ATOM     31  C   UNL     1      47.161   5.838  12.507  0.00  0.00    +0.000 A 
ENDROOT
BRANCH  11  10
ATOM     10  C   UNL     1      45.414   6.153  10.705  0.00  0.00    +0.000 C 
BRANCH  10   9
ATOM      9  N   UNL     1      44.029   5.928  11.109  0.00  0.00    +0.000 NA
ATOM     32  H   UNL     1      43.962   5.951  12.124  0.00  0.00    +0.000 HD
BRANCH   9   8
ATOM      8  C   UNL     1      43.551   4.641  10.627  0.00  0.00    +0.000 C 
BRANCH   8   7
ATOM      7  C   UNL     1      44.738   3.694  10.500  0.00  0.00    +0.000 C 
BRANCH   7   6
ATOM      6  C   UNL     1      44.566   2.825   9.262  0.00  0.00    +0.000 C 
BRANCH   6   5
ATOM      5  C   UNL     1      44.785   3.638   7.995  0.00  0.00    +0.000 C 
BRANCH   5   4
ATOM      4  C   UNL     1      46.275   3.769   7.704  0.00  0.00    +0.000 C 
BRANCH   4   3
ATOM      3  C   UNL     1      46.655   2.938   6.486  0.00  0.00    +0.000 C 
BRANCH   3   2
ATOM      1  C   UNL     1      46.983   0.670   7.495  0.00  0.00    +0.000 C 
ATOM      2  C   UNL     1      47.671   1.863   6.855  0.00  0.00    +0.000 C 
ENDBRANCH   3   2
ENDBRANCH   4   3
ENDBRANCH   5   4
ENDBRANCH   6   5
ENDBRANCH   7   6
ENDBRANCH   8   7
ENDBRANCH   9   8
ENDBRANCH  10   9
ENDBRANCH  11  10
BRANCH  14  15
ATOM     15  C   UNL     1      48.537   8.138  15.234  0.00  0.00    +0.000 C 
BRANCH  15  16
ATOM     16  N   UNL     1      49.419   7.132  15.771  0.00  0.00    +0.000 N 
ATOM     17  C   UNL     1      49.559   6.928  17.128  0.00  0.00    +0.000 C 
ATOM     18  O   UNL     1      48.905   7.542  17.954  0.00  0.00    +0.000 OA
ATOM     33  H   UNL     1      50.162   6.816  15.165  0.00  0.00    +0.000 HD
BRANCH  17  19
ATOM     19  C   UNL     1      50.515   5.877  17.520  0.00  0.00    +0.000 A 
ATOM     20  C   UNL     1      51.712   6.218  18.140  0.00  0.00    +0.000 A 
ATOM     21  S   UNL     1      52.684   4.868  18.520  0.00  0.00    +0.000 S 
ATOM     22  C   UNL     1      51.552   3.794  17.844  0.00  0.00    +0.000 A 
ATOM     23  N   UNL     1      51.797   2.472  17.824  0.00  0.00    +0.000 NA
ATOM     24  C   UNL     1      50.809   1.776  17.256  0.00  0.00    +0.000 A 
ATOM     25  N   UNL     1      49.665   2.249  16.744  0.00  0.00    +0.000 NA
ATOM     26  C   UNL     1      49.472   3.578  16.784  0.00  0.00    +0.000 A 
ATOM     29  C   UNL     1      50.427   4.436  17.351  0.00  0.00    +0.000 A 
BRANCH  26  27
ATOM     27  O   UNL     1      48.321   4.120  16.262  0.00  0.00    +0.000 OA
ATOM     28  C   UNL     1      47.209   4.159  17.137  0.00  0.00    +0.000 C 
ENDBRANCH  26  27
ENDBRANCH  17  19
ENDBRANCH  15  16
ENDBRANCH  14  15
TORSDOF 13
ENDMDL
MODEL 5
REMARK VINA RESULT:    -6.008      3.613      8.888
REMARK INTER + INTRA:         -12.420
REMARK INTER:                  -9.179
REMARK INTRA:                  -3.240
REMARK UNBOUND:                -1.846
REMARK  Name = 
REMARK  15 active torsions:
REMARK  status: ('A' for Active; 'I' for Inactive)
REMARK    1  A    between atoms: C_1  and  C_2
REMARK    2  A    between atoms: C_2  and  C_3
REMARK    3  A    between atoms: C_3  and  C_4
REMARK    4  A    between atoms: C_4  and  C_5
REMARK    5  A    between atoms: C_5  and  C_6
REMARK    6  A    between atoms: C_6  and  C_7
REMARK    7  A    between atoms: C_7  and  C_8
REMARK    8  A    between atoms: C_8  and  N_9
REMARK    9  A    between atoms: N_9  and  C_10
REMARK   10  A    between atoms: C_10  and  C_11
REMARK   11  A    between atoms: C_14  and  C_15
REMARK   12  A    between atoms: C_15  and  N_16
REMARK   13  A    between atoms: C_17  and  C_19
REMARK   14  A    between atoms: C_26  and  O_27
REMARK   15  A    between atoms: O_27  and  C_28
REMARK                            x       y       z     vdW  Elec       q    Type
REMARK                         _______ _______ _______ _____ _____    ______ ____
ROOT
ATOM     11  C   UNL     1      50.833   4.345  18.962  0.00  0.00    +0.000 A 
ATOM     12  C   UNL     1      50.860   3.540  17.815  0.00  0.00    +0.000 A 
ATOM     13  C   UNL     1      49.689   3.238  17.119  0.00  0.00    +0.000 A 
ATOM     14  C   UNL     1      48.451   3.725  17.563  0.00  0.00    +0.000 A 
ATOM     30  C   UNL     1      48.427   4.514  18.723  0.00  0.00    +0.000 A 
ATOM     31  C   UNL     1      49.604   4.839  19.408  0.00  0.00    +0.000 A 
ENDROOT
BRANCH  11  10
ATOM     10  C   UNL     1      52.106   4.637  19.719  0.00  0.00    +0.000 C 
BRANCH  10   9
ATOM      9  N   UNL     1      53.206   4.923  18.803  0.00  0.00    +0.000 NA
ATOM     32  H   UNL     1      54.093   4.734  19.264  0.00  0.00    +0.000 HD
BRANCH   9   8
ATOM      8  C   UNL     1      53.176   6.314  18.375  0.00  0.00    +0.000 C 
BRANCH   8   7
ATOM      7  C   UNL     1      53.700   6.399  16.947  0.00  0.00    +0.000 C 
BRANCH   7   6
ATOM      6  C   UNL     1      52.589   6.881  16.025  0.00  0.00    +0.000 C 
BRANCH   6   5
ATOM      5  C   UNL     1      51.351   7.266  16.820  0.00  0.00    +0.000 C 
BRANCH   5   4
ATOM      4  C   UNL     1      50.095   6.777  16.110  0.00  0.00    +0.000 C 
BRANCH   4   3
ATOM      3  C   UNL     1      48.862   7.474  16.668  0.00  0.00    +0.000 C 
BRANCH   3   2
ATOM      1  C   UNL     1      47.963   8.221  18.882  0.00  0.00    +0.000 C 
ATOM      2  C   UNL     1      49.183   8.183  17.978  0.00  0.00    +0.000 C 
ENDBRANCH   3   2
ENDBRANCH   4   3
ENDBRANCH   5   4
ENDBRANCH   6   5
ENDBRANCH   7   6
ENDBRANCH   8   7
ENDBRANCH   9   8
ENDBRANCH  10   9
ENDBRANCH  11  10
BRANCH  14  15
ATOM     15  C   UNL     1      47.177   3.423  16.815  0.00  0.00    +0.000 C 
BRANCH  15  16
ATOM     16  N   UNL     1      46.847   4.442  15.850  0.00  0.00    +0.000 N 
ATOM     17  C   UNL     1      46.964   4.232  14.492  0.00  0.00    +0.000 C 
ATOM     18  O   UNL     1      47.295   3.157  14.022  0.00  0.00    +0.000 OA
ATOM     33  H   UNL     1      46.850   5.395  16.184  0.00  0.00    +0.000 HD
BRANCH  17  19
ATOM     19  C   UNL     1      46.609   5.378  13.636  0.00  0.00    +0.000 A 
ATOM     20  C   UNL     1      47.501   6.432  13.475  0.00  0.00    +0.000 A 
ATOM     21  S   UNL     1      46.916   7.662  12.447  0.00  0.00    +0.000 S 
ATOM     22  C   UNL     1      45.447   6.839  12.210  0.00  0.00    +0.000 A 
ATOM     23  N   UNL     1      44.483   7.376  11.442  0.00  0.00    +0.000 NA
ATOM     24  C   UNL     1      43.397   6.602  11.364  0.00  0.00    +0.000 A 
ATOM     25  N   UNL     1      43.200   5.410  11.943  0.00  0.00    +0.000 NA
ATOM     26  C   UNL     1      44.192   4.921  12.706  0.00  0.00    +0.000 A 
ATOM     29  C   UNL     1      45.393   5.625  12.879  0.00  0.00    +0.000 A 
BRANCH  26  27
ATOM     27  O   UNL     1      44.040   3.707  13.334  0.00  0.00    +0.000 OA
ATOM     28  C   UNL     1      43.601   2.641  12.511  0.00  0.00    +0.000 C 
ENDBRANCH  26  27
ENDBRANCH  17  19
ENDBRANCH  15  16
ENDBRANCH  14  15
TORSDOF 13
ENDMDL
MODEL 6
REMARK VINA RESULT:    -6.007      2.288      2.783
REMARK INTER + INTRA:         -12.419
REMARK INTER:                 -10.888
REMARK INTRA:                  -1.531
REMARK UNBOUND:                -1.846
REMARK  Name = 
REMARK  15 active torsions:
REMARK  status: ('A' for Active; 'I' for Inactive)
REMARK    1  A    between atoms: C_1  and  C_2
REMARK    2  A    between atoms: C_2  and  C_3
REMARK    3  A    between atoms: C_3  and  C_4
REMARK    4  A    between atoms: C_4  and  C_5
REMARK    5  A    between atoms: C_5  and  C_6
REMARK    6  A    between atoms: C_6  and  C_7
REMARK    7  A    between atoms: C_7  and  C_8
REMARK    8  A    between atoms: C_8  and  N_9
REMARK    9  A    between atoms: N_9  and  C_10
REMARK   10  A    between atoms: C_10  and  C_11
REMARK   11  A    between atoms: C_14  and  C_15
REMARK   12  A    between atoms: C_15  and  N_16
REMARK   13  A    between atoms: C_17  and  C_19
REMARK   14  A    between atoms: C_26  and  O_27
REMARK   15  A    between atoms: O_27  and  C_28
REMARK                            x       y       z     vdW  Elec       q    Type
REMARK                         _______ _______ _______ _____ _____    ______ ____
ROOT
ATOM     11  C   UNL     1      45.404   6.329  12.817  0.00  0.00    +0.000 A 
ATOM     12  C   UNL     1      45.514   7.726  12.847  0.00  0.00    +0.000 A 
ATOM     13  C   UNL     1      46.761   8.350  12.874  0.00  0.00    +0.000 A 
ATOM     14  C   UNL     1      47.939   7.588  12.885  0.00  0.00    +0.000 A 
ATOM     30  C   UNL     1      47.823   6.190  12.875  0.00  0.00    +0.000 A 
ATOM     31  C   UNL     1      46.573   5.563  12.823  0.00  0.00    +0.000 A 
ENDROOT
BRANCH  11  10
ATOM     10  C   UNL     1      44.046   5.671  12.818  0.00  0.00    +0.000 C 
BRANCH  10   9
ATOM      9  N   UNL     1      44.146   4.263  13.193  0.00  0.00    +0.000 NA
ATOM     32  H   UNL     1      45.112   4.038  13.420  0.00  0.00    +0.000 HD
BRANCH   9   8
ATOM      8  C   UNL     1      43.698   3.405  12.106  0.00  0.00    +0.000 C 
BRANCH   8   7
ATOM      7  C   UNL     1      43.363   4.275  10.901  0.00  0.00    +0.000 C 
BRANCH   7   6
ATOM      6  C   UNL     1      44.315   3.951   9.758  0.00  0.00    +0.000 C 
BRANCH   6   5
ATOM      5  C   UNL     1      44.792   2.509   9.841  0.00  0.00    +0.000 C 
BRANCH   5   4
ATOM      4  C   UNL     1      45.575   2.139   8.587  0.00  0.00    +0.000 C 
BRANCH   4   3
ATOM      3  C   UNL     1      45.913   3.388   7.783  0.00  0.00    +0.000 C 
BRANCH   3   2
ATOM      1  C   UNL     1      47.901   2.400   6.626  0.00  0.00    +0.000 C 
ATOM      2  C   UNL     1      46.527   3.019   6.438  0.00  0.00    +0.000 C 
ENDBRANCH   3   2
ENDBRANCH   4   3
ENDBRANCH   5   4
ENDBRANCH   6   5
ENDBRANCH   7   6
ENDBRANCH   8   7
ENDBRANCH   9   8
ENDBRANCH  10   9
ENDBRANCH  11  10
BRANCH  14  15
ATOM     15  C   UNL     1      49.297   8.245  12.898  0.00  0.00    +0.000 C 
BRANCH  15  16
ATOM     16  N   UNL     1      50.238   7.551  13.740  0.00  0.00    +0.000 N 
ATOM     17  C   UNL     1      50.395   7.861  15.075  0.00  0.00    +0.000 C 
ATOM     18  O   UNL     1      49.709   8.697  15.638  0.00  0.00    +0.000 OA
ATOM     33  H   UNL     1      50.996   7.076  13.271  0.00  0.00    +0.000 HD
BRANCH  17  19
ATOM     19  C   UNL     1      51.413   7.076  15.797  0.00  0.00    +0.000 A 
ATOM     20  C   UNL     1      52.764   7.300  15.562  0.00  0.00    +0.000 A 
ATOM     21  S   UNL     1      53.787   6.300  16.492  0.00  0.00    +0.000 S 
ATOM     22  C   UNL     1      52.458   5.521  17.213  0.00  0.00    +0.000 A 
ATOM     23  N   UNL     1      52.651   4.528  18.100  0.00  0.00    +0.000 NA
ATOM     24  C   UNL     1      51.505   4.026  18.565  0.00  0.00    +0.000 A 
ATOM     25  N   UNL     1      50.259   4.406  18.252  0.00  0.00    +0.000 NA
ATOM     26  C   UNL     1      50.122   5.398  17.356  0.00  0.00    +0.000 A 
ATOM     29  C   UNL     1      51.239   6.021  16.781  0.00  0.00    +0.000 A 
BRANCH  26  27
ATOM     27  O   UNL     1      48.866   5.820  16.988  0.00  0.00    +0.000 OA
ATOM     28  C   UNL     1      48.032   4.834  16.405  0.00  0.00    +0.000 C 
ENDBRANCH  26  27
ENDBRANCH  17  19
ENDBRANCH  15  16
ENDBRANCH  14  15
TORSDOF 13
ENDMDL
MODEL 7
REMARK VINA RESULT:    -5.955      1.383      2.180
REMARK INTER + INTRA:         -12.328
REMARK INTER:                 -10.475
REMARK INTRA:                  -1.853
REMARK UNBOUND:                -1.846
REMARK  Name = 
REMARK  15 active torsions:
REMARK  status: ('A' for Active; 'I' for Inactive)
REMARK    1  A    between atoms: C_1  and  C_2
REMARK    2  A    between atoms: C_2  and  C_3
REMARK    3  A    between atoms: C_3  and  C_4
REMARK    4  A    between atoms: C_4  and  C_5
REMARK    5  A    between atoms: C_5  and  C_6
REMARK    6  A    between atoms: C_6  and  C_7
REMARK    7  A    between atoms: C_7  and  C_8
REMARK    8  A    between atoms: C_8  and  N_9
REMARK    9  A    between atoms: N_9  and  C_10
REMARK   10  A    between atoms: C_10  and  C_11
REMARK   11  A    between atoms: C_14  and  C_15
REMARK   12  A    between atoms: C_15  and  N_16
REMARK   13  A    between atoms: C_17  and  C_19
REMARK   14  A    between atoms: C_26  and  O_27
REMARK   15  A    between atoms: O_27  and  C_28
REMARK                            x       y       z     vdW  Elec       q    Type
REMARK                         _______ _______ _______ _____ _____    ______ ____
ROOT
ATOM     11  C   UNL     1      44.408   5.502  12.944  0.00  0.00    +0.000 A 
ATOM     12  C   UNL     1      45.433   4.828  13.624  0.00  0.00    +0.000 A 
ATOM     13  C   UNL     1      46.730   5.339  13.659  0.00  0.00    +0.000 A 
ATOM     14  C   UNL     1      47.043   6.537  12.999  0.00  0.00    +0.000 A 
ATOM     30  C   UNL     1      46.019   7.196  12.303  0.00  0.00    +0.000 A 
ATOM     31  C   UNL     1      44.711   6.698  12.288  0.00  0.00    +0.000 A 
ENDROOT
BRANCH  11  10
ATOM     10  C   UNL     1      43.017   4.919  12.891  0.00  0.00    +0.000 C 
BRANCH  10   9
ATOM      9  N   UNL     1      42.779   4.247  11.618  0.00  0.00    +0.000 NA
ATOM     32  H   UNL     1      41.778   4.185  11.446  0.00  0.00    +0.000 HD
BRANCH   9   8
ATOM      8  C   UNL     1      43.346   2.907  11.625  0.00  0.00    +0.000 C 
BRANCH   8   7
ATOM      7  C   UNL     1      44.103   2.688  10.321  0.00  0.00    +0.000 C 
BRANCH   7   6
ATOM      6  C   UNL     1      44.176   3.998   9.548  0.00  0.00    +0.000 C 
BRANCH   6   5
ATOM      5  C   UNL     1      45.602   4.526   9.509  0.00  0.00    +0.000 C 
BRANCH   5   4
ATOM      4  C   UNL     1      46.074   4.662   8.067  0.00  0.00    +0.000 C 
BRANCH   4   3
ATOM      3  C   UNL     1      45.772   3.391   7.285  0.00  0.00    +0.000 C 
BRANCH   3   2
ATOM      1  C   UNL     1      47.613   1.723   6.974  0.00  0.00    +0.000 C 
ATOM      2  C   UNL     1      46.965   2.983   6.428  0.00  0.00    +0.000 C 
ENDBRANCH   3   2
ENDBRANCH   4   3
ENDBRANCH   5   4
ENDBRANCH   6   5
ENDBRANCH   7   6
ENDBRANCH   8   7
ENDBRANCH   9   8
ENDBRANCH  10   9
ENDBRANCH  11  10
BRANCH  14  15
ATOM     15  C   UNL     1      48.437   7.112  13.040  0.00  0.00    +0.000 C 
BRANCH  15  16
ATOM     16  N   UNL     1      48.646   7.974  14.176  0.00  0.00    +0.000 N 
ATOM     17  C   UNL     1      49.426   7.597  15.249  0.00  0.00    +0.000 C 
ATOM     18  O   UNL     1      50.033   6.540  15.278  0.00  0.00    +0.000 OA
ATOM     33  H   UNL     1      47.960   8.701  14.320  0.00  0.00    +0.000 HD
BRANCH  17  19
ATOM     19  C   UNL     1      49.525   8.580  16.343  0.00  0.00    +0.000 A 
ATOM     20  C   UNL     1      50.138   9.807  16.126  0.00  0.00    +0.000 A 
ATOM     21  S   UNL     1      50.154  10.809  17.507  0.00  0.00    +0.000 S 
ATOM     22  C   UNL     1      49.369   9.624  18.441  0.00  0.00    +0.000 A 
ATOM     23  N   UNL     1      49.106   9.847  19.741  0.00  0.00    +0.000 NA
ATOM     24  C   UNL     1      48.491   8.815  20.324  0.00  0.00    +0.000 A 
ATOM     25  N   UNL     1      48.129   7.654  19.762  0.00  0.00    +0.000 NA
ATOM     26  C   UNL     1      48.421   7.480  18.462  0.00  0.00    +0.000 A 
ATOM     29  C   UNL     1      49.068   8.479  17.719  0.00  0.00    +0.000 A 
BRANCH  26  27
ATOM     27  O   UNL     1      48.084   6.303  17.835  0.00  0.00    +0.000 OA
ATOM     28  C   UNL     1      48.704   5.136  18.346  0.00  0.00    +0.000 C 
ENDBRANCH  26  27
ENDBRANCH  17  19
ENDBRANCH  15  16
ENDBRANCH  14  15
TORSDOF 13
ENDMDL
MODEL 8
REMARK VINA RESULT:    -5.934      3.440      4.688
REMARK INTER + INTRA:         -12.290
REMARK INTER:                 -11.034
REMARK INTRA:                  -1.256
REMARK UNBOUND:                -1.846
REMARK  Name = 
REMARK  15 active torsions:
REMARK  status: ('A' for Active; 'I' for Inactive)
REMARK    1  A    between atoms: C_1  and  C_2
REMARK    2  A    between atoms: C_2  and  C_3
REMARK    3  A    between atoms: C_3  and  C_4
REMARK    4  A    between atoms: C_4  and  C_5
REMARK    5  A    between atoms: C_5  and  C_6
REMARK    6  A    between atoms: C_6  and  C_7
REMARK    7  A    between atoms: C_7  and  C_8
REMARK    8  A    between atoms: C_8  and  N_9
REMARK    9  A    between atoms: N_9  and  C_10
REMARK   10  A    between atoms: C_10  and  C_11
REMARK   11  A    between atoms: C_14  and  C_15
REMARK   12  A    between atoms: C_15  and  N_16
REMARK   13  A    between atoms: C_17  and  C_19
REMARK   14  A    between atoms: C_26  and  O_27
REMARK   15  A    between atoms: O_27  and  C_28
REMARK                            x       y       z     vdW  Elec       q    Type
REMARK                         _______ _______ _______ _____ _____    ______ ____
ROOT
ATOM     11  C   UNL     1      47.375   5.639  13.819  0.00  0.00    +0.000 A 
ATOM     12  C   UNL     1      48.079   6.207  14.891  0.00  0.00    +0.000 A 
ATOM     13  C   UNL     1      48.270   5.503  16.080  0.00  0.00    +0.000 A 
ATOM     14  C   UNL     1      47.749   4.210  16.235  0.00  0.00    +0.000 A 
ATOM     30  C   UNL     1      47.027   3.655  15.167  0.00  0.00    +0.000 A 
ATOM     31  C   UNL     1      46.856   4.349  13.964  0.00  0.00    +0.000 A 
ENDROOT
BRANCH  11  10
ATOM     10  C   UNL     1      47.152   6.426  12.551  0.00  0.00    +0.000 C 
BRANCH  10   9
ATOM      9  N   UNL     1      45.862   7.110  12.580  0.00  0.00    +0.000 NA
ATOM     32  H   UNL     1      45.448   7.020  13.505  0.00  0.00    +0.000 HD
BRANCH   9   8
ATOM      8  C   UNL     1      44.954   6.543  11.593  0.00  0.00    +0.000 C 
BRANCH   8   7
ATOM      7  C   UNL     1      45.771   5.796  10.547  0.00  0.00    +0.000 C 
BRANCH   7   6
ATOM      6  C   UNL     1      45.183   4.408  10.336  0.00  0.00    +0.000 C 
BRANCH   6   5
ATOM      5  C   UNL     1      44.304   4.374   9.095  0.00  0.00    +0.000 C 
BRANCH   5   4
ATOM      4  C   UNL     1      44.841   3.354   8.098  0.00  0.00    +0.000 C 
BRANCH   4   3
ATOM      3  C   UNL     1      46.231   3.755   7.622  0.00  0.00    +0.000 C 
BRANCH   3   2
ATOM      1  C   UNL     1      47.489   1.683   6.993  0.00  0.00    +0.000 C 
ATOM      2  C   UNL     1      46.690   2.865   6.472  0.00  0.00    +0.000 C 
ENDBRANCH   3   2
ENDBRANCH   4   3
ENDBRANCH   5   4
ENDBRANCH   6   5
ENDBRANCH   7   6
ENDBRANCH   8   7
ENDBRANCH   9   8
ENDBRANCH  10   9
ENDBRANCH  11  10
BRANCH  14  15
ATOM     15  C   UNL     1      47.960   3.428  17.507  0.00  0.00    +0.000 C 
BRANCH  15  16
ATOM     16  N   UNL     1      49.354   3.177  17.777  0.00  0.00    +0.000 N 
ATOM     17  C   UNL     1      50.092   2.276  17.040  0.00  0.00    +0.000 C 
ATOM     18  O   UNL     1      49.632   1.680  16.081  0.00  0.00    +0.000 OA
ATOM     33  H   UNL     1      49.683   3.418  18.700  0.00  0.00    +0.000 HD
BRANCH  17  19
ATOM     19  C   UNL     1      51.498   2.115  17.452  0.00  0.00    +0.000 A 
ATOM     20  C   UNL     1      52.028   0.846  17.647  0.00  0.00    +0.000 A 
ATOM     21  S   UNL     1      53.668   0.862  18.117  0.00  0.00    +0.000 S 
ATOM     22  C   UNL     1      53.711   2.562  18.102  0.00  0.00    +0.000 A 
ATOM     23  N   UNL     1      54.836   3.217  18.441  0.00  0.00    +0.000 NA
ATOM     24  C   UNL     1      54.695   4.544  18.379  0.00  0.00    +0.000 A 
ATOM     25  N   UNL     1      53.604   5.235  18.023  0.00  0.00    +0.000 NA
ATOM     26  C   UNL     1      52.505   4.532  17.700  0.00  0.00    +0.000 A 
ATOM     29  C   UNL     1      52.505   3.129  17.721  0.00  0.00    +0.000 A 
BRANCH  26  27
ATOM     27  O   UNL     1      51.352   5.190  17.339  0.00  0.00    +0.000 OA
ATOM     28  C   UNL     1      50.960   6.253  18.188  0.00  0.00    +0.000 C 
ENDBRANCH  26  27
ENDBRANCH  17  19
ENDBRANCH  15  16
ENDBRANCH  14  15
TORSDOF 13
ENDMDL
MODEL 9
REMARK VINA RESULT:    -5.909      3.688      8.910
REMARK INTER + INTRA:         -12.246
REMARK INTER:                  -9.950
REMARK INTRA:                  -2.296
REMARK UNBOUND:                -1.846
REMARK  Name = 
REMARK  15 active torsions:
REMARK  status: ('A' for Active; 'I' for Inactive)
REMARK    1  A    between atoms: C_1  and  C_2
REMARK    2  A    between atoms: C_2  and  C_3
REMARK    3  A    between atoms: C_3  and  C_4
REMARK    4  A    between atoms: C_4  and  C_5
REMARK    5  A    between atoms: C_5  and  C_6
REMARK    6  A    between atoms: C_6  and  C_7
REMARK    7  A    between atoms: C_7  and  C_8
REMARK    8  A    between atoms: C_8  and  N_9
REMARK    9  A    between atoms: N_9  and  C_10
REMARK   10  A    between atoms: C_10  and  C_11
REMARK   11  A    between atoms: C_14  and  C_15
REMARK   12  A    between atoms: C_15  and  N_16
REMARK   13  A    between atoms: C_17  and  C_19
REMARK   14  A    between atoms: C_26  and  O_27
REMARK   15  A    between atoms: O_27  and  C_28
REMARK                            x       y       z     vdW  Elec       q    Type
REMARK                         _______ _______ _______ _____ _____    ______ ____
ROOT
ATOM     11  C   UNL     1      51.327   2.917  17.798  0.00  0.00    +0.000 A 
ATOM     12  C   UNL     1      50.660   1.955  17.026  0.00  0.00    +0.000 A 
ATOM     13  C   UNL     1      49.306   2.091  16.720  0.00  0.00    +0.000 A 
ATOM     14  C   UNL     1      48.574   3.191  17.192  0.00  0.00    +0.000 A 
ATOM     30  C   UNL     1      49.242   4.140  17.981  0.00  0.00    +0.000 A 
ATOM     31  C   UNL     1      50.607   4.019  18.267  0.00  0.00    +0.000 A 
ENDROOT
BRANCH  11  10
ATOM     10  C   UNL     1      52.785   2.739  18.144  0.00  0.00    +0.000 C 
BRANCH  10   9
ATOM      9  N   UNL     1      53.077   3.274  19.470  0.00  0.00    +0.000 NA
ATOM     32  H   UNL     1      52.212   3.566  19.919  0.00  0.00    +0.000 HD
BRANCH   9   8
ATOM      8  C   UNL     1      53.978   4.414  19.381  0.00  0.00    +0.000 C 
BRANCH   8   7
ATOM      7  C   UNL     1      54.370   4.617  17.923  0.00  0.00    +0.000 C 
BRANCH   7   6
ATOM      6  C   UNL     1      54.202   6.083  17.550  0.00  0.00    +0.000 C 
BRANCH   6   5
ATOM      5  C   UNL     1      53.189   6.245  16.427  0.00  0.00    +0.000 C 
BRANCH   5   4
ATOM      4  C   UNL     1      51.976   7.025  16.919  0.00  0.00    +0.000 C 
BRANCH   4   3
ATOM      3  C   UNL     1      50.823   6.895  15.934  0.00  0.00    +0.000 C 
BRANCH   3   2
ATOM      1  C   UNL     1      49.212   8.811  15.882  0.00  0.00    +0.000 C 
ATOM      2  C   UNL     1      49.539   7.472  16.520  0.00  0.00    +0.000 C 
ENDBRANCH   3   2
ENDBRANCH   4   3
ENDBRANCH   5   4
ENDBRANCH   6   5
ENDBRANCH   7   6
ENDBRANCH   8   7
ENDBRANCH   9   8
ENDBRANCH  10   9
ENDBRANCH  11  10
BRANCH  14  15
ATOM     15  C   UNL     1      47.114   3.362  16.858  0.00  0.00    +0.000 C 
BRANCH  15  16
ATOM     16  N   UNL     1      46.887   4.408  15.891  0.00  0.00    +0.000 N 
ATOM     17  C   UNL     1      46.993   4.187  14.534  0.00  0.00    +0.000 C 
ATOM     18  O   UNL     1      47.226   3.086  14.065  0.00  0.00    +0.000 OA
ATOM     33  H   UNL     1      46.976   5.356  16.226  0.00  0.00    +0.000 HD
BRANCH  17  19
ATOM     19  C   UNL     1      46.752   5.361  13.676  0.00  0.00    +0.000 A 
ATOM     20  C   UNL     1      47.733   6.334  13.533  0.00  0.00    +0.000 A 
ATOM     21  S   UNL     1      47.274   7.612  12.500  0.00  0.00    +0.000 S 
ATOM     22  C   UNL     1      45.743   6.919  12.237  0.00  0.00    +0.000 A 
ATOM     23  N   UNL     1      44.841   7.539  11.455  0.00  0.00    +0.000 NA
ATOM     24  C   UNL     1      43.694   6.862  11.358  0.00  0.00    +0.000 A 
ATOM     25  N   UNL     1      43.386   5.690  11.929  0.00  0.00    +0.000 NA
ATOM     26  C   UNL     1      44.320   5.116  12.706  0.00  0.00    +0.000 A 
ATOM     29  C   UNL     1      45.574   5.714  12.901  0.00  0.00    +0.000 A 
BRANCH  26  27
ATOM     27  O   UNL     1      44.054   3.919  13.328  0.00  0.00    +0.000 OA
ATOM     28  C   UNL     1      43.707   2.845  12.471  0.00  0.00    +0.000 C 
ENDBRANCH  26  27
ENDBRANCH  17  19
ENDBRANCH  15  16
ENDBRANCH  14  15
TORSDOF 13
ENDMDL
