MODEL 1
REMARK VINA RESULT:    -8.257      0.000      0.000
REMARK INTER + INTRA:         -10.238
REMARK INTER:                  -9.706
REMARK INTRA:                  -0.532
REMARK UNBOUND:                -0.532
REMARK  Name = 
REMARK  4 active torsions:
REMARK  status: ('A' for Active; 'I' for Inactive)
REMARK    1  A    between atoms: C_1  and  C_2
REMARK    2  A    between atoms: C_2  and  N_3
REMARK    3  A    between atoms: C_2  and  C_13
REMARK    4  A    between atoms: C_7  and  C_8
REMARK                            x       y       z     vdW  Elec       q    Type
REMARK                         _______ _______ _______ _____ _____    ______ ____
ROOT
ATOM      3  N   UNL     1      43.799   3.850  10.437  0.00  0.00    +0.000 N 
ATOM      4  C   UNL     1      44.721   3.510   9.445  0.00  0.00    +0.000 A 
ATOM      5  C   UNL     1      45.053   2.160   9.335  0.00  0.00    +0.000 A 
ATOM      6  C   UNL     1      45.978   1.743   8.378  0.00  0.00    +0.000 A 
ATOM      7  C   UNL     1      46.530   2.672   7.500  0.00  0.00    +0.000 A 
ATOM     11  C   UNL     1      46.115   3.988   7.644  0.00  0.00    +0.000 A 
ATOM     12  N   UNL     1      45.242   4.423   8.605  0.00  0.00    +0.000 NA
ATOM     19  H   UNL     1      42.892   3.477  10.180  0.00  0.00    +0.000 HD
ENDROOT
BRANCH   7   8
ATOM      8  C   UNL     1      47.521   2.196   6.504  0.00  0.00    +0.000 C 
ATOM      9  N   UNL     1      47.876   3.011   5.463  0.00  0.00    +0.000 N 
ATOM     10  O   UNL     1      48.029   1.083   6.599  0.00  0.00    +0.000 OA
ATOM     20  H   UNL     1      47.495   3.917   5.262  0.00  0.00    +0.000 HD
ATOM     21  H   UNL     1      48.554   2.630   4.811  0.00  0.00    +0.000 HD
ENDBRANCH   7   8
BRANCH   3   2
ATOM      1  C   UNL     1      42.462   5.503  11.719  0.00  0.00    +0.000 C 
ATOM      2  C   UNL     1      43.739   5.225  10.925  0.00  0.00    +0.000 C 
BRANCH   2  13
ATOM     13  C   UNL     1      44.925   5.499  11.859  0.00  0.00    +0.000 A 
ATOM     14  C   UNL     1      45.109   4.689  12.995  0.00  0.00    +0.000 A 
ATOM     15  C   UNL     1      46.279   4.775  13.756  0.00  0.00    +0.000 A 
ATOM     16  C   UNL     1      47.278   5.678  13.403  0.00  0.00    +0.000 A 
ATOM     17  C   UNL     1      47.093   6.523  12.313  0.00  0.00    +0.000 A 
ATOM     18  C   UNL     1      45.925   6.437  11.548  0.00  0.00    +0.000 A 
ENDBRANCH   2  13
ENDBRANCH   3   2
TORSDOF 3
ENDMDL
MODEL 2
REMARK VINA RESULT:    -6.477      3.420      6.546
REMARK INTER + INTRA:          -8.145
REMARK INTER:                  -7.679
REMARK INTRA:                  -0.465
REMARK UNBOUND:                -0.532
REMARK  Name = 
REMARK  4 active torsions:
REMARK  status: ('A' for Active; 'I' for Inactive)
REMARK    1  A    between atoms: C_1  and  C_2
REMARK    2  A    between atoms: C_2  and  N_3
REMARK    3  A    between atoms: C_2  and  C_13
REMARK    4  A    between atoms: C_7  and  C_8
REMARK                            x       y       z     vdW  Elec       q    Type
REMARK                         _______ _______ _______ _____ _____    ______ ____
ROOT
ATOM      3  N   UNL     1      45.447   5.515  10.798  0.00  0.00    +0.000 N 
ATOM      4  C   UNL     1      46.264   5.801  11.893  0.00  0.00    +0.000 A 
ATOM      5  C   UNL     1      47.114   6.901  11.771  0.00  0.00    +0.000 A 
ATOM      6  C   UNL     1      47.971   7.242  12.815  0.00  0.00    +0.000 A 
ATOM      7  C   UNL     1      47.940   6.513  14.001  0.00  0.00    +0.000 A 
ATOM     11  C   UNL     1      47.037   5.462  14.062  0.00  0.00    +0.000 A 
ATOM     12  N   UNL     1      46.219   5.084  13.031  0.00  0.00    +0.000 NA
ATOM     19  H   UNL     1      44.755   6.250  10.708  0.00  0.00    +0.000 HD
ENDROOT
BRANCH   7   8
ATOM      8  C   UNL     1      48.877   6.894  15.087  0.00  0.00    +0.000 C 
ATOM      9  N   UNL     1      48.378   7.296  16.296  0.00  0.00    +0.000 N 
ATOM     10  O   UNL     1      50.091   6.854  14.918  0.00  0.00    +0.000 OA
ATOM     20  H   UNL     1      47.410   7.408  16.532  0.00  0.00    +0.000 HD
ATOM     21  H   UNL     1      49.066   7.550  16.999  0.00  0.00    +0.000 HD
ENDBRANCH   7   8
BRANCH   3   2
ATOM      1  C   UNL     1      43.360   4.188  10.584  0.00  0.00    +0.000 C 
ATOM      2  C   UNL     1      44.888   4.175  10.646  0.00  0.00    +0.000 C 
BRANCH   2  13
ATOM     13  C   UNL     1      45.391   3.545   9.341  0.00  0.00    +0.000 A 
ATOM     14  C   UNL     1      45.945   4.371   8.346  0.00  0.00    +0.000 A 
ATOM     15  C   UNL     1      46.594   3.822   7.236  0.00  0.00    +0.000 A 
ATOM     16  C   UNL     1      46.688   2.440   7.094  0.00  0.00    +0.000 A 
ATOM     17  C   UNL     1      46.102   1.605   8.042  0.00  0.00    +0.000 A 
ATOM     18  C   UNL     1      45.456   2.153   9.154  0.00  0.00    +0.000 A 
ENDBRANCH   2  13
ENDBRANCH   3   2
TORSDOF 3
ENDMDL
MODEL 3
REMARK VINA RESULT:    -6.456      3.543      6.668
REMARK INTER + INTRA:          -8.120
REMARK INTER:                  -7.665
REMARK INTRA:                  -0.455
REMARK UNBOUND:                -0.532
REMARK  Name = 
REMARK  4 active torsions:
REMARK  status: ('A' for Active; 'I' for Inactive)
REMARK    1  A    between atoms: C_1  and  C_2
REMARK    2  A    between atoms: C_2  and  N_3
REMARK    3  A    between atoms: C_2  and  C_13
REMARK    4  A    between atoms: C_7  and  C_8
REMARK                            x       y       z     vdW  Elec       q    Type
REMARK                         _______ _______ _______ _____ _____    ______ ____
ROOT
ATOM      3  N   UNL     1      45.231   5.040  11.517  0.00  0.00    +0.000 N 
ATOM      4  C   UNL     1      46.038   5.191  12.646  0.00  0.00    +0.000 A 
ATOM      5  C   UNL     1      46.815   6.348  12.711  0.00  0.00    +0.000 A 
ATOM      6  C   UNL     1      47.657   6.564  13.800  0.00  0.00    +0.000 A 
ATOM      7  C   UNL     1      47.682   5.648  14.848  0.00  0.00    +0.000 A 
ATOM     11  C   UNL     1      46.847   4.546  14.731  0.00  0.00    +0.000 A 
ATOM     12  N   UNL     1      46.046   4.293  13.649  0.00  0.00    +0.000 NA
ATOM     19  H   UNL     1      44.493   5.734  11.548  0.00  0.00    +0.000 HD
ENDROOT
BRANCH   7   8
ATOM      8  C   UNL     1      48.600   5.902  15.985  0.00  0.00    +0.000 C 
ATOM      9  N   UNL     1      48.113   5.877  17.264  0.00  0.00    +0.000 N 
ATOM     10  O   UNL     1      49.790   6.134  15.797  0.00  0.00    +0.000 OA
ATOM     20  H   UNL     1      47.156   5.742  17.532  0.00  0.00    +0.000 HD
ATOM     21  H   UNL     1      48.787   6.063  18.000  0.00  0.00    +0.000 HD
ENDBRANCH   7   8
BRANCH   3   2
ATOM      1  C   UNL     1      43.232   3.607  11.183  0.00  0.00    +0.000 C 
ATOM      2  C   UNL     1      44.757   3.710  11.143  0.00  0.00    +0.000 C 
BRANCH   2  13
ATOM     13  C   UNL     1      45.198   3.384   9.710  0.00  0.00    +0.000 A 
ATOM     14  C   UNL     1      45.584   4.430   8.852  0.00  0.00    +0.000 A 
ATOM     15  C   UNL     1      46.178   4.163   7.615  0.00  0.00    +0.000 A 
ATOM     16  C   UNL     1      46.385   2.847   7.209  0.00  0.00    +0.000 A 
ATOM     17  C   UNL     1      45.964   1.798   8.021  0.00  0.00    +0.000 A 
ATOM     18  C   UNL     1      45.372   2.063   9.260  0.00  0.00    +0.000 A 
ENDBRANCH   2  13
ENDBRANCH   3   2
TORSDOF 3
ENDMDL
MODEL 4
REMARK VINA RESULT:    -6.452      3.629      6.339
REMARK INTER + INTRA:          -8.116
REMARK INTER:                  -7.627
REMARK INTRA:                  -0.489
REMARK UNBOUND:                -0.532
REMARK  Name = 
REMARK  4 active torsions:
REMARK  status: ('A' for Active; 'I' for Inactive)
REMARK    1  A    between atoms: C_1  and  C_2
REMARK    2  A    between atoms: C_2  and  N_3
REMARK    3  A    between atoms: C_2  and  C_13
REMARK    4  A    between atoms: C_7  and  C_8
REMARK                            x       y       z     vdW  Elec       q    Type
REMARK                         _______ _______ _______ _____ _____    ______ ____
ROOT
ATOM      3  N   UNL     1      45.389   6.194  11.057  0.00  0.00    +0.000 N 
ATOM      4  C   UNL     1      46.440   6.357  11.961  0.00  0.00    +0.000 A 
ATOM      5  C   UNL     1      47.412   7.302  11.628  0.00  0.00    +0.000 A 
ATOM      6  C   UNL     1      48.501   7.512  12.473  0.00  0.00    +0.000 A 
ATOM      7  C   UNL     1      48.588   6.814  13.675  0.00  0.00    +0.000 A 
ATOM     11  C   UNL     1      47.559   5.926  13.955  0.00  0.00    +0.000 A 
ATOM     12  N   UNL     1      46.506   5.673  13.118  0.00  0.00    +0.000 NA
ATOM     19  H   UNL     1      44.817   7.031  11.067  0.00  0.00    +0.000 HD
ENDROOT
BRANCH   7   8
ATOM      8  C   UNL     1      49.767   7.051  14.543  0.00  0.00    +0.000 C 
ATOM      9  N   UNL     1      50.805   7.812  14.077  0.00  0.00    +0.000 N 
ATOM     10  O   UNL     1      49.827   6.578  15.673  0.00  0.00    +0.000 OA
ATOM     20  H   UNL     1      50.884   8.211  13.160  0.00  0.00    +0.000 HD
ATOM     21  H   UNL     1      51.586   7.936  14.713  0.00  0.00    +0.000 HD
ENDBRANCH   7   8
BRANCH   3   2
ATOM      1  C   UNL     1      43.103   5.229  10.996  0.00  0.00    +0.000 C 
ATOM      2  C   UNL     1      44.607   4.961  11.075  0.00  0.00    +0.000 C 
BRANCH   2  13
ATOM     13  C   UNL     1      44.979   4.090   9.869  0.00  0.00    +0.000 A 
ATOM     14  C   UNL     1      45.626   4.678   8.767  0.00  0.00    +0.000 A 
ATOM     15  C   UNL     1      46.158   3.890   7.742  0.00  0.00    +0.000 A 
ATOM     16  C   UNL     1      46.042   2.503   7.794  0.00  0.00    +0.000 A 
ATOM     17  C   UNL     1      45.360   1.905   8.850  0.00  0.00    +0.000 A 
ATOM     18  C   UNL     1      44.830   2.691   9.878  0.00  0.00    +0.000 A 
ENDBRANCH   2  13
ENDBRANCH   3   2
TORSDOF 3
ENDMDL
MODEL 5
REMARK VINA RESULT:    -6.435      3.076      6.428
REMARK INTER + INTRA:          -8.096
REMARK INTER:                  -7.620
REMARK INTRA:                  -0.475
REMARK UNBOUND:                -0.532
REMARK  Name = 
REMARK  4 active torsions:
REMARK  status: ('A' for Active; 'I' for Inactive)
REMARK    1  A    between atoms: C_1  and  C_2
REMARK    2  A    between atoms: C_2  and  N_3
REMARK    3  A    between atoms: C_2  and  C_13
REMARK    4  A    between atoms: C_7  and  C_8
REMARK                            x       y       z     vdW  Elec       q    Type
REMARK                         _______ _______ _______ _____ _____    ______ ____
ROOT
ATOM      3  N   UNL     1      44.822   4.251   9.943  0.00  0.00    +0.000 N 
ATOM      4  C   UNL     1      45.429   5.014  10.942  0.00  0.00    +0.000 A 
ATOM      5  C   UNL     1      45.423   6.398  10.764  0.00  0.00    +0.000 A 
ATOM      6  C   UNL     1      46.023   7.227  11.711  0.00  0.00    +0.000 A 
ATOM      7  C   UNL     1      46.581   6.673  12.860  0.00  0.00    +0.000 A 
ATOM     11  C   UNL     1      46.507   5.294  12.985  0.00  0.00    +0.000 A 
ATOM     12  N   UNL     1      45.963   4.459  12.046  0.00  0.00    +0.000 NA
ATOM     19  H   UNL     1      43.823   4.418   9.968  0.00  0.00    +0.000 HD
ENDROOT
BRANCH   7   8
ATOM      8  C   UNL     1      47.224   7.584  13.840  0.00  0.00    +0.000 C 
ATOM      9  N   UNL     1      46.710   8.837  14.033  0.00  0.00    +0.000 N 
ATOM     10  O   UNL     1      48.208   7.230  14.482  0.00  0.00    +0.000 OA
ATOM     20  H   UNL     1      45.940   9.247  13.535  0.00  0.00    +0.000 HD
ATOM     21  H   UNL     1      47.193   9.417  14.711  0.00  0.00    +0.000 HD
ENDBRANCH   7   8
BRANCH   3   2
ATOM      1  C   UNL     1      43.943   1.930   9.909  0.00  0.00    +0.000 C 
ATOM      2  C   UNL     1      45.168   2.839   9.804  0.00  0.00    +0.000 C 
BRANCH   2  13
ATOM     13  C   UNL     1      45.803   2.592   8.429  0.00  0.00    +0.000 A 
ATOM     14  C   UNL     1      45.935   3.664   7.528  0.00  0.00    +0.000 A 
ATOM     15  C   UNL     1      46.683   3.527   6.354  0.00  0.00    +0.000 A 
ATOM     16  C   UNL     1      47.300   2.315   6.055  0.00  0.00    +0.000 A 
ATOM     17  C   UNL     1      47.139   1.228   6.909  0.00  0.00    +0.000 A 
ATOM     18  C   UNL     1      46.394   1.363   8.085  0.00  0.00    +0.000 A 
ENDBRANCH   2  13
ENDBRANCH   3   2
TORSDOF 3
ENDMDL
MODEL 6
REMARK VINA RESULT:    -6.370      3.505      6.466
REMARK INTER + INTRA:          -8.019
REMARK INTER:                  -7.612
REMARK INTRA:                  -0.407
REMARK UNBOUND:                -0.532
REMARK  Name = 
REMARK  4 active torsions:
REMARK  status: ('A' for Active; 'I' for Inactive)
REMARK    1  A    between atoms: C_1  and  C_2
REMARK    2  A    between atoms: C_2  and  N_3
REMARK    3  A    between atoms: C_2  and  C_13
REMARK    4  A    between atoms: C_7  and  C_8
REMARK                            x       y       z     vdW  Elec       q    Type
REMARK                         _______ _______ _______ _____ _____    ______ ____
ROOT
ATOM      3  N   UNL     1      44.165   5.032  11.159  0.00  0.00    +0.000 N 
ATOM      4  C   UNL     1      44.987   5.947  11.821  0.00  0.00    +0.000 A 
ATOM      5  C   UNL     1      44.810   7.293  11.502  0.00  0.00    +0.000 A 
ATOM      6  C   UNL     1      45.603   8.266  12.109  0.00  0.00    +0.000 A 
ATOM      7  C   UNL     1      46.536   7.894  13.074  0.00  0.00    +0.000 A 
ATOM     11  C   UNL     1      46.620   6.540  13.368  0.00  0.00    +0.000 A 
ATOM     12  N   UNL     1      45.882   5.566  12.751  0.00  0.00    +0.000 NA
ATOM     19  H   UNL     1      43.213   5.156  11.484  0.00  0.00    +0.000 HD
ENDROOT
BRANCH   7   8
ATOM      8  C   UNL     1      47.373   8.953  13.690  0.00  0.00    +0.000 C 
ATOM      9  N   UNL     1      47.455   9.039  15.053  0.00  0.00    +0.000 N 
ATOM     10  O   UNL     1      47.993   9.752  12.996  0.00  0.00    +0.000 OA
ATOM     20  H   UNL     1      46.960   8.470  15.715  0.00  0.00    +0.000 HD
ATOM     21  H   UNL     1      48.038   9.786  15.417  0.00  0.00    +0.000 HD
ENDBRANCH   7   8
BRANCH   3   2
ATOM      1  C   UNL     1      43.405   2.677  11.351  0.00  0.00    +0.000 C 
ATOM      2  C   UNL     1      44.568   3.631  11.074  0.00  0.00    +0.000 C 
BRANCH   2  13
ATOM     13  C   UNL     1      45.084   3.322   9.663  0.00  0.00    +0.000 A 
ATOM     14  C   UNL     1      45.474   4.382   8.824  0.00  0.00    +0.000 A 
ATOM     15  C   UNL     1      46.133   4.137   7.616  0.00  0.00    +0.000 A 
ATOM     16  C   UNL     1      46.402   2.829   7.219  0.00  0.00    +0.000 A 
ATOM     17  C   UNL     1      45.979   1.765   8.010  0.00  0.00    +0.000 A 
ATOM     18  C   UNL     1      45.323   2.009   9.221  0.00  0.00    +0.000 A 
ENDBRANCH   2  13
ENDBRANCH   3   2
TORSDOF 3
ENDMDL
MODEL 7
REMARK VINA RESULT:    -6.117      3.737      6.291
REMARK INTER + INTRA:          -7.721
REMARK INTER:                  -7.205
REMARK INTRA:                  -0.516
REMARK UNBOUND:                -0.532
REMARK  Name = 
REMARK  4 active torsions:
REMARK  status: ('A' for Active; 'I' for Inactive)
REMARK    1  A    between atoms: C_1  and  C_2
REMARK    2  A    between atoms: C_2  and  N_3
REMARK    3  A    between atoms: C_2  and  C_13
REMARK    4  A    between atoms: C_7  and  C_8
REMARK                            x       y       z     vdW  Elec       q    Type
REMARK                         _______ _______ _______ _____ _____    ______ ____
ROOT
ATOM      3  N   UNL     1      45.228   6.443  11.316  0.00  0.00    +0.000 N 
ATOM      4  C   UNL     1      46.339   6.606  12.145  0.00  0.00    +0.000 A 
ATOM      5  C   UNL     1      47.237   7.617  11.798  0.00  0.00    +0.000 A 
ATOM      6  C   UNL     1      48.379   7.832  12.567  0.00  0.00    +0.000 A 
ATOM      7  C   UNL     1      48.594   7.071  13.713  0.00  0.00    +0.000 A 
ATOM     11  C   UNL     1      47.632   6.117  14.016  0.00  0.00    +0.000 A 
ATOM     12  N   UNL     1      46.528   5.860  13.249  0.00  0.00    +0.000 NA
ATOM     19  H   UNL     1      44.621   7.248  11.422  0.00  0.00    +0.000 HD
ENDROOT
BRANCH   7   8
ATOM      8  C   UNL     1      49.827   7.317  14.501  0.00  0.00    +0.000 C 
ATOM      9  N   UNL     1      50.970   7.706  13.859  0.00  0.00    +0.000 N 
ATOM     10  O   UNL     1      49.836   7.178  15.720  0.00  0.00    +0.000 OA
ATOM     20  H   UNL     1      51.089   7.808  12.868  0.00  0.00    +0.000 HD
ATOM     21  H   UNL     1      51.783   7.855  14.449  0.00  0.00    +0.000 HD
ENDBRANCH   7   8
BRANCH   3   2
ATOM      1  C   UNL     1      43.001   5.362  11.127  0.00  0.00    +0.000 C 
ATOM      2  C   UNL     1      44.507   5.173  11.319  0.00  0.00    +0.000 C 
BRANCH   2  13
ATOM     13  C   UNL     1      45.006   4.288  10.169  0.00  0.00    +0.000 A 
ATOM     14  C   UNL     1      44.698   2.916  10.171  0.00  0.00    +0.000 A 
ATOM     15  C   UNL     1      44.959   2.119   9.053  0.00  0.00    +0.000 A 
ATOM     16  C   UNL     1      45.542   2.677   7.918  0.00  0.00    +0.000 A 
ATOM     17  C   UNL     1      45.901   4.022   7.914  0.00  0.00    +0.000 A 
ATOM     18  C   UNL     1      45.638   4.821   9.031  0.00  0.00    +0.000 A 
ENDBRANCH   2  13
ENDBRANCH   3   2
TORSDOF 3
ENDMDL
MODEL 8
REMARK VINA RESULT:    -5.841      5.545      8.390
REMARK INTER + INTRA:          -7.397
REMARK INTER:                  -7.059
REMARK INTRA:                  -0.339
REMARK UNBOUND:                -0.532
REMARK  Name = 
REMARK  4 active torsions:
REMARK  status: ('A' for Active; 'I' for Inactive)
REMARK    1  A    between atoms: C_1  and  C_2
REMARK    2  A    between atoms: C_2  and  N_3
REMARK    3  A    between atoms: C_2  and  C_13
REMARK    4  A    between atoms: C_7  and  C_8
REMARK                            x       y       z     vdW  Elec       q    Type
REMARK                         _______ _______ _______ _____ _____    ______ ____
ROOT
ATOM      3  N   UNL     1      46.933   4.025  14.591  0.00  0.00    +0.000 N 
ATOM      4  C   UNL     1      47.518   4.234  15.842  0.00  0.00    +0.000 A 
ATOM      5  C   UNL     1      47.625   3.121  16.677  0.00  0.00    +0.000 A 
ATOM      6  C   UNL     1      48.184   3.252  17.947  0.00  0.00    +0.000 A 
ATOM      7  C   UNL     1      48.684   4.485  18.359  0.00  0.00    +0.000 A 
ATOM     11  C   UNL     1      48.582   5.532  17.454  0.00  0.00    +0.000 A 
ATOM     12  N   UNL     1      47.996   5.434  16.220  0.00  0.00    +0.000 NA
ATOM     19  H   UNL     1      47.557   3.456  14.031  0.00  0.00    +0.000 HD
ENDROOT
BRANCH   7   8
ATOM      8  C   UNL     1      49.259   4.592  19.723  0.00  0.00    +0.000 C 
ATOM      9  N   UNL     1      48.591   4.040  20.781  0.00  0.00    +0.000 N 
ATOM     10  O   UNL     1      50.326   5.166  19.916  0.00  0.00    +0.000 OA
ATOM     20  H   UNL     1      47.695   3.588  20.748  0.00  0.00    +0.000 HD
ATOM     21  H   UNL     1      49.030   4.149  21.690  0.00  0.00    +0.000 HD
ENDBRANCH   7   8
BRANCH   3   2
ATOM      1  C   UNL     1      47.367   5.751  12.860  0.00  0.00    +0.000 C 
ATOM      2  C   UNL     1      46.373   5.158  13.859  0.00  0.00    +0.000 C 
BRANCH   2  13
ATOM     13  C   UNL     1      45.142   4.705  13.063  0.00  0.00    +0.000 A 
ATOM     14  C   UNL     1      44.030   5.561  12.968  0.00  0.00    +0.000 A 
ATOM     15  C   UNL     1      42.976   5.276  12.094  0.00  0.00    +0.000 A 
ATOM     16  C   UNL     1      43.010   4.125  11.311  0.00  0.00    +0.000 A 
ATOM     17  C   UNL     1      44.077   3.239  11.428  0.00  0.00    +0.000 A 
ATOM     18  C   UNL     1      45.133   3.524  12.300  0.00  0.00    +0.000 A 
ENDBRANCH   2  13
ENDBRANCH   3   2
TORSDOF 3
ENDMDL
MODEL 9
REMARK VINA RESULT:    -5.815      4.351      6.336
REMARK INTER + INTRA:          -7.367
REMARK INTER:                  -7.058
REMARK INTRA:                  -0.309
REMARK UNBOUND:                -0.532
REMARK  Name = 
REMARK  4 active torsions:
REMARK  status: ('A' for Active; 'I' for Inactive)
REMARK    1  A    between atoms: C_1  and  C_2
REMARK    2  A    between atoms: C_2  and  N_3
REMARK    3  A    between atoms: C_2  and  C_13
REMARK    4  A    between atoms: C_7  and  C_8
REMARK                            x       y       z     vdW  Elec       q    Type
REMARK                         _______ _______ _______ _____ _____    ______ ____
ROOT
ATOM      3  N   UNL     1      47.524   4.844  15.497  0.00  0.00    +0.000 N 
ATOM      4  C   UNL     1      46.815   4.796  14.296  0.00  0.00    +0.000 A 
ATOM      5  C   UNL     1      46.688   5.996  13.595  0.00  0.00    +0.000 A 
ATOM      6  C   UNL     1      45.981   6.033  12.394  0.00  0.00    +0.000 A 
ATOM      7  C   UNL     1      45.446   4.859  11.871  0.00  0.00    +0.000 A 
ATOM     11  C   UNL     1      45.653   3.699  12.604  0.00  0.00    +0.000 A 
ATOM     12  N   UNL     1      46.306   3.650  13.807  0.00  0.00    +0.000 NA
ATOM     19  H   UNL     1      48.501   5.019  15.292  0.00  0.00    +0.000 HD
ENDROOT
BRANCH   7   8
ATOM      8  C   UNL     1      44.687   4.937  10.598  0.00  0.00    +0.000 C 
ATOM      9  N   UNL     1      45.345   5.245   9.439  0.00  0.00    +0.000 N 
ATOM     10  O   UNL     1      43.478   4.729  10.569  0.00  0.00    +0.000 OA
ATOM     20  H   UNL     1      46.318   5.476   9.352  0.00  0.00    +0.000 HD
ATOM     21  H   UNL     1      44.774   5.289   8.601  0.00  0.00    +0.000 HD
ENDBRANCH   7   8
BRANCH   3   2
ATOM      1  C   UNL     1      48.296   2.629  16.311  0.00  0.00    +0.000 C 
ATOM      2  C   UNL     1      47.325   3.796  16.495  0.00  0.00    +0.000 C 
BRANCH   2  13
ATOM     13  C   UNL     1      47.556   4.365  17.901  0.00  0.00    +0.000 A 
ATOM     14  C   UNL     1      48.552   3.800  18.718  0.00  0.00    +0.000 A 
ATOM     15  C   UNL     1      48.929   4.411  19.918  0.00  0.00    +0.000 A 
ATOM     16  C   UNL     1      48.307   5.589  20.328  0.00  0.00    +0.000 A 
ATOM     17  C   UNL     1      47.284   6.135  19.559  0.00  0.00    +0.000 A 
ATOM     18  C   UNL     1      46.908   5.527  18.357  0.00  0.00    +0.000 A 
ENDBRANCH   2  13
ENDBRANCH   3   2
TORSDOF 3
ENDMDL
