REMARK  Name = 
REMARK  7 active torsions:
REMARK  status: ('A' for Active; 'I' for Inactive)
REMARK    1  A    between atoms: C_2  and  C_3
REMARK    2  A    between atoms: C_6  and  N_7
REMARK    3  A    between atoms: N_7  and  C_8
REMARK    4  A    between atoms: C_8  and  C_9
REMARK    5  A    between atoms: C_13  and  C_14
REMARK    6  A    between atoms: C_18  and  C_19
REMARK    7  A    between atoms: C_19  and  O_20
REMARK                            x       y       z     vdW  Elec       q    Type
REMARK                         _______ _______ _______ _____ _____    ______ ____
ROOT
ATOM      1  C   UNL     1       9.679   0.101  -0.587  0.00  0.00    +0.000 A 
ATOM      2  C   UNL     1       9.695   1.129  -1.542  0.00  0.00    +0.000 A 
ATOM      3  C   UNL     1      10.462   2.275  -1.352  0.00  0.00    +0.000 A 
ATOM      4  C   UNL     1      11.260   2.399  -0.214  0.00  0.00    +0.000 A 
ATOM      5  C   UNL     1      11.338   1.367   0.736  0.00  0.00    +0.000 A 
ATOM      6  C   UNL     1      10.543   0.226   0.514  0.00  0.00    +0.000 A 
ENDROOT
BRANCH   5   7
ATOM      7  C   UNL     1      12.173   1.475   1.949  0.00  0.00    +0.000 A 
ATOM      8  C   UNL     1      12.374   2.682   2.619  0.00  0.00    +0.000 A 
ATOM      9  N   UNL     1      13.106   2.836   3.751  0.00  0.00    +0.000 NA
ATOM     10  C   UNL     1      13.669   1.723   4.265  0.00  0.00    +0.000 A 
ATOM     11  C   UNL     1      13.539   0.460   3.707  0.00  0.00    +0.000 A 
ATOM     12  C   UNL     1      12.791   0.355   2.527  0.00  0.00    +0.000 A 
BRANCH  11  13
ATOM     13  C   UNL     1      14.183  -0.743   4.324  0.00  0.00    +0.000 C 
BRANCH  13  14
ATOM     14  O   UNL     1      13.196  -1.714   4.651  0.00  0.00    +0.000 OA
ATOM     15  H   UNL     1      12.547  -1.279   5.231  0.00  0.00    +0.000 HD
ENDBRANCH  13  14
ENDBRANCH  11  13
ENDBRANCH   5   7
BRANCH   1  16
ATOM     16  C   UNL     1       8.661  -1.030  -0.673  0.00  0.00    +0.000 C 
ATOM     17  C   UNL     1       7.811  -1.349   0.543  0.00  0.00    +0.000 C 
ATOM     18  C   UNL     1       7.209  -0.557  -0.569  0.00  0.00    +0.000 C 
BRANCH  16  19
ATOM     19  N   UNL     1       8.918  -2.018  -1.714  0.00  0.00    +0.000 N 
ATOM     20  H   UNL     1       8.773  -1.768  -2.686  0.00  0.00    +0.000 HD
BRANCH  19  24
ATOM     21  C   UNL     1      11.073  -5.508  -1.706  0.00  0.00    +0.000 A 
ATOM     22  C   UNL     1      10.578  -4.933  -2.862  0.00  0.00    +0.000 A 
ATOM     23  N   UNL     1       9.886  -3.764  -2.852  0.00  0.00    +0.000 NA
ATOM     24  C   UNL     1       9.687  -3.168  -1.654  0.00  0.00    +0.000 A 
ATOM     25  C   UNL     1      10.197  -3.760  -0.497  0.00  0.00    +0.000 A 
ATOM     26  N   UNL     1      10.898  -4.934  -0.494  0.00  0.00    +0.000 NA
BRANCH  21  28
ATOM     27  N   UNL     1      12.352  -7.765  -1.870  0.00  0.00    +0.000 NA
ATOM     28  C   UNL     1      11.786  -6.758  -1.760  0.00  0.00    +0.000 C 
ENDBRANCH  21  28
ENDBRANCH  19  24
ENDBRANCH  16  19
ENDBRANCH   1  16
TORSDOF 7
