REMARK  Name = 
REMARK  6 active torsions:
REMARK  status: ('A' for Active; 'I' for Inactive)
REMARK    1  A    between atoms: C_1  and  N_2
REMARK    2  A    between atoms: N_2  and  C_3
REMARK    3  A    between atoms: C_3  and  C_4
REMARK    4  A    between atoms: C_7  and  C_8
REMARK    5  A    between atoms: C_9  and  C_10
REMARK    6  A    between atoms: C_19  and  C_21
REMARK                            x       y       z     vdW  Elec       q    Type
REMARK                         _______ _______ _______ _____ _____    ______ ____
ROOT
ATOM      1  C   UNL     1       3.107   1.068   0.770  0.00  0.00    +0.000 C 
ENDROOT
BRANCH   1   2
ATOM      2  C   UNL     1       2.296   1.646   1.900  0.00  0.00    +0.000 A 
ATOM      3  C   UNL     1       1.591   0.800   2.769  0.00  0.00    +0.000 A 
ATOM      4  C   UNL     1       0.796   1.333   3.784  0.00  0.00    +0.000 A 
ATOM      5  C   UNL     1       0.704   2.719   3.967  0.00  0.00    +0.000 A 
ATOM      6  C   UNL     1       1.423   3.560   3.110  0.00  0.00    +0.000 A 
ATOM      7  C   UNL     1       2.212   3.030   2.085  0.00  0.00    +0.000 A 
BRANCH   5   8
ATOM      8  C   UNL     1      -0.222   3.309   4.944  0.00  0.00    +0.000 C 
ATOM      9  C   UNL     1      -0.541   2.732   6.112  0.00  0.00    +0.000 C 
BRANCH   9  10
ATOM     10  C   UNL     1      -1.646   3.283   6.938  0.00  0.00    +0.000 C 
ATOM     11  O   UNL     1      -2.490   4.026   6.442  0.00  0.00    +0.000 OA
ATOM     12  N   UNL     1      -1.705   2.851   8.239  0.00  0.00    +0.000 N 
ATOM     13  C   UNL     1      -2.840   3.177   9.072  0.00  0.00    +0.000 C 
ATOM     14  C   UNL     1      -2.340   2.896  10.474  0.00  0.00    +0.000 C 
ATOM     15  N   UNL     1      -1.254   1.917  10.283  0.00  0.00    +0.000 NA
ATOM     16  C   UNL     1      -0.627   2.306   9.021  0.00  0.00    +0.000 C 
ATOM     17  H   UNL     1      -1.684   1.006  10.124  0.00  0.00    +0.000 HD
ENDBRANCH   9  10
ENDBRANCH   5   8
ENDBRANCH   1   2
BRANCH   1  19
ATOM     18  C   UNL     1       1.007   1.117  -0.661  0.00  0.00    +0.000 C 
ATOM     19  N   UNL     1       2.446   0.911  -0.531  0.00  0.00    +0.000 N 
ATOM     20  C   UNL     1       3.140   0.729  -1.740  0.00  0.00    +0.000 C 
ATOM     21  O   UNL     1       2.549   0.738  -2.819  0.00  0.00    +0.000 OA
BRANCH  20  22
ATOM     22  C   UNL     1       4.587   0.481  -1.718  0.00  0.00    +0.000 A 
ATOM     23  C   UNL     1       5.218  -0.417  -0.870  0.00  0.00    +0.000 A 
ATOM     24  S   UNL     1       6.897  -0.548  -1.140  0.00  0.00    +0.000 S 
ATOM     25  C   UNL     1       6.810   0.479  -2.489  0.00  0.00    +0.000 A 
ATOM     26  N   UNL     1       7.901   0.712  -3.263  0.00  0.00    +0.000 NA
ATOM     27  C   UNL     1       7.677   1.460  -4.294  0.00  0.00    +0.000 A 
ATOM     28  N   UNL     1       6.466   2.026  -4.596  0.00  0.00    +0.000 N 
ATOM     29  C   UNL     1       5.365   1.930  -3.771  0.00  0.00    +0.000 A 
ATOM     30  O   UNL     1       4.380   2.636  -3.947  0.00  0.00    +0.000 OA
ATOM     31  C   UNL     1       5.542   0.998  -2.669  0.00  0.00    +0.000 A 
ATOM     32  H   UNL     1       6.373   2.658  -5.378  0.00  0.00    +0.000 HD
ENDBRANCH  20  22
ENDBRANCH   1  19
TORSDOF 5
