REMARK  Name = 
REMARK  6 active torsions:
REMARK  status: ('A' for Active; 'I' for Inactive)
REMARK    1  A    between atoms: N_1  and  C_2
REMARK    2  A    between atoms: C_5  and  C_6
REMARK    3  A    between atoms: C_6  and  C_7
REMARK    4  A    between atoms: C_10  and  C_11
REMARK    5  A    between atoms: C_11  and  N_12
REMARK    6  A    between atoms: C_13  and  C_15
REMARK                            x       y       z     vdW  Elec       q    Type
REMARK                         _______ _______ _______ _____ _____    ______ ____
ROOT
ATOM      1  C   UNL     1       3.997   1.314   0.517  0.00  0.00    +0.000 A 
ATOM      2  C   UNL     1       3.291   2.071   1.449  0.00  0.00    +0.000 A 
ATOM      3  C   UNL     1       3.880   3.220   1.979  0.00  0.00    +0.000 A 
ATOM      4  C   UNL     1       5.166   3.587   1.585  0.00  0.00    +0.000 A 
ATOM      5  C   UNL     1       5.796   2.774   0.650  0.00  0.00    +0.000 A 
ATOM      6  N   UNL     1       5.244   1.657   0.111  0.00  0.00    +0.000 NA
ENDROOT
BRANCH   1   7
ATOM      7  C   UNL     1       3.364   0.090  -0.111  0.00  0.00    +0.000 C 
BRANCH   7  11
ATOM      8  C   UNL     1       4.538  -4.016   1.016  0.00  0.00    +0.000 C 
ATOM      9  C   UNL     1       5.118  -2.829   1.790  0.00  0.00    +0.000 C 
ATOM     10  C   UNL     1       4.264  -1.576   1.603  0.00  0.00    +0.000 C 
ATOM     11  C   UNL     1       4.160  -1.210   0.114  0.00  0.00    +0.000 C 
ATOM     12  C   UNL     1       3.526  -2.387  -0.651  0.00  0.00    +0.000 C 
ATOM     13  C   UNL     1       4.335  -3.675  -0.466  0.00  0.00    +0.000 C 
BRANCH   8  14
ATOM     14  N   UNL     1       5.415  -5.180   1.145  0.00  0.00    +0.000 NA
ATOM     15  H   UNL     1       5.578  -5.375   2.133  0.00  0.00    +0.000 HD
ATOM     16  H   UNL     1       6.332  -4.962   0.755  0.00  0.00    +0.000 HD
ENDBRANCH   8  14
ENDBRANCH   7  11
ENDBRANCH   1   7
BRANCH   4  17
ATOM     17  C   UNL     1       5.819   4.831   2.112  0.00  0.00    +0.000 C 
BRANCH  17  18
ATOM     18  N   UNL     1       5.514   5.980   1.294  0.00  0.00    +0.000 N 
ATOM     19  C   UNL     1       6.094   7.199   1.544  0.00  0.00    +0.000 C 
ATOM     20  O   UNL     1       6.909   7.352   2.451  0.00  0.00    +0.000 OA
ATOM     21  H   UNL     1       4.688   5.932   0.704  0.00  0.00    +0.000 HD
BRANCH  19  22
ATOM     22  C   UNL     1       5.743   8.302   0.638  0.00  0.00    +0.000 A 
ATOM     23  C   UNL     1       6.600   9.388   0.518  0.00  0.00    +0.000 A 
ATOM     24  S   UNL     1       6.077  10.555  -0.609  0.00  0.00    +0.000 S 
ATOM     25  C   UNL     1       4.658   9.679  -0.940  0.00  0.00    +0.000 A 
ATOM     26  N   UNL     1       3.735  10.149  -1.822  0.00  0.00    +0.000 NA
ATOM     27  C   UNL     1       2.694   9.398  -1.957  0.00  0.00    +0.000 A 
ATOM     28  N   UNL     1       2.494   8.216  -1.294  0.00  0.00    +0.000 N 
ATOM     29  C   UNL     1       3.411   7.688  -0.414  0.00  0.00    +0.000 A 
ATOM     30  O   UNL     1       3.222   6.608   0.134  0.00  0.00    +0.000 OA
ATOM     31  C   UNL     1       4.595   8.500  -0.217  0.00  0.00    +0.000 A 
ATOM     32  H   UNL     1       1.660   7.670  -1.452  0.00  0.00    +0.000 HD
ENDBRANCH  19  22
ENDBRANCH  17  18
ENDBRANCH   4  17
TORSDOF 6
