REMARK  Name = 
REMARK  7 active torsions:
REMARK  status: ('A' for Active; 'I' for Inactive)
REMARK    1  A    between atoms: C_2  and  C_20
REMARK    2  A    between atoms: N_3  and  C_4
REMARK    3  A    between atoms: C_4  and  C_5
REMARK    4  A    between atoms: C_8  and  O_9
REMARK    5  A    between atoms: O_9  and  C_10
REMARK    6  A    between atoms: C_10  and  C_11
REMARK    7  A    between atoms: C_11  and  N_12
REMARK                            x       y       z     vdW  Elec       q    Type
REMARK                         _______ _______ _______ _____ _____    ______ ____
ROOT
ATOM      1  C   UNL     1       2.184   1.994   1.476  0.00  0.00    +0.000 C 
ENDROOT
BRANCH   1   2
ATOM      2  C   UNL     1       3.119   2.971   2.123  0.00  0.00    +0.000 A 
ATOM      3  C   UNL     1       2.932   4.353   2.019  0.00  0.00    +0.000 A 
ATOM      4  C   UNL     1       3.859   5.225   2.589  0.00  0.00    +0.000 A 
ATOM      5  C   UNL     1       4.955   4.680   3.233  0.00  0.00    +0.000 A 
ATOM      6  N   UNL     1       5.142   3.350   3.391  0.00  0.00    +0.000 NA
ATOM      7  C   UNL     1       4.235   2.530   2.822  0.00  0.00    +0.000 A 
BRANCH   5   8
ATOM      8  O   UNL     1       5.932   5.559   3.680  0.00  0.00    +0.000 OA
BRANCH   8   9
ATOM      9  C   UNL     1       7.155   4.851   3.921  0.00  0.00    +0.000 C 
BRANCH   9  10
ATOM     10  C   UNL     1       8.362   5.799   4.018  0.00  0.00    +0.000 C 
BRANCH  10  11
ATOM     11  N   UNL     1       9.611   5.033   3.914  0.00  0.00    +0.000 NA
ATOM     12  C   UNL     1       9.897   4.135   5.049  0.00  0.00    +0.000 C 
ATOM     13  C   UNL     1      10.789   4.703   6.169  0.00  0.00    +0.000 C 
ATOM     14  O   UNL     1      11.927   5.407   5.666  0.00  0.00    +0.000 OA
ATOM     15  C   UNL     1      11.506   6.443   4.774  0.00  0.00    +0.000 C 
ATOM     16  C   UNL     1      10.789   5.837   3.565  0.00  0.00    +0.000 C 
ENDBRANCH  10  11
ENDBRANCH   9  10
ENDBRANCH   8   9
ENDBRANCH   5   8
ENDBRANCH   1   2
BRANCH   1  19
ATOM     17  O   UNL     1       1.101   3.201  -0.810  0.00  0.00    +0.000 OA
ATOM     18  C   UNL     1       1.990   2.367  -0.954  0.00  0.00    +0.000 C 
ATOM     19  N   UNL     1       2.561   1.718   0.111  0.00  0.00    +0.000 N 
ATOM     20  H   UNL     1       3.396   1.160  -0.035  0.00  0.00    +0.000 HD
BRANCH  18  21
ATOM     21  C   UNL     1       2.458   1.975  -2.291  0.00  0.00    +0.000 A 
ATOM     22  C   UNL     1       1.641   2.196  -3.392  0.00  0.00    +0.000 A 
ATOM     23  S   UNL     1       2.328   1.692  -4.869  0.00  0.00    +0.000 S 
ATOM     24  C   UNL     1       3.761   1.197  -4.095  0.00  0.00    +0.000 A 
ATOM     25  N   UNL     1       4.804   0.697  -4.811  0.00  0.00    +0.000 NA
ATOM     26  C   UNL     1       5.841   0.397  -4.102  0.00  0.00    +0.000 A 
ATOM     27  N   UNL     1       5.923   0.533  -2.741  0.00  0.00    +0.000 N 
ATOM     28  C   UNL     1       4.866   0.957  -1.969  0.00  0.00    +0.000 A 
ATOM     29  O   UNL     1       4.918   0.930  -0.744  0.00  0.00    +0.000 OA
ATOM     30  C   UNL     1       3.697   1.372  -2.724  0.00  0.00    +0.000 A 
ATOM     31  H   UNL     1       6.750   0.241  -2.242  0.00  0.00    +0.000 HD
ENDBRANCH  18  21
ENDBRANCH   1  19
TORSDOF 7
