REMARK  Name = 
REMARK  11 active torsions:
REMARK  status: ('A' for Active; 'I' for Inactive)
REMARK    1  A    between atoms: C_1  and  O_2
REMARK    2  A    between atoms: O_2  and  C_3
REMARK    3  A    between atoms: C_10  and  C_11
REMARK    4  A    between atoms: N_13  and  C_14
REMARK    5  A    between atoms: C_14  and  C_15
REMARK    6  A    between atoms: C_18  and  N_19
REMARK    7  A    between atoms: N_19  and  C_20
REMARK    8  A    between atoms: C_20  and  C_21
REMARK    9  A    between atoms: N_24  and  C_25
REMARK   10  A    between atoms: C_27  and  C_28
REMARK   11  A    between atoms: C_28  and  O_30
REMARK                            x       y       z     vdW  Elec       q    Type
REMARK                         _______ _______ _______ _____ _____    ______ ____
ROOT
ATOM      1  C   UNL     1       1.881  -3.488  -0.426  0.00  0.00    +0.000 A 
ATOM      2  C   UNL     1       1.598  -4.790  -0.002  0.00  0.00    +0.000 A 
ATOM      3  C   UNL     1       0.518  -5.041   0.853  0.00  0.00    +0.000 A 
ATOM      4  C   UNL     1      -0.286  -4.002   1.334  0.00  0.00    +0.000 A 
ATOM      5  C   UNL     1      -0.016  -2.707   0.865  0.00  0.00    +0.000 A 
ATOM      6  C   UNL     1       1.055  -2.450   0.003  0.00  0.00    +0.000 A 
ENDROOT
BRANCH   4   7
ATOM      7  N   UNL     1      -1.422  -4.197   2.127  0.00  0.00    +0.000 N 
ATOM      8  H   UNL     1      -1.707  -3.328   2.573  0.00  0.00    +0.000 HD
BRANCH   7   9
ATOM      9  C   UNL     1      -1.489  -5.323   3.054  0.00  0.00    +0.000 C 
BRANCH   9  10
ATOM     10  C   UNL     1      -2.710  -6.216   2.726  0.00  0.00    +0.000 C 
ATOM     11  C   UNL     1      -4.048  -5.454   2.803  0.00  0.00    +0.000 C 
ATOM     12  C   UNL     1      -4.371  -5.014   4.231  0.00  0.00    +0.000 C 
ATOM     13  N   UNL     1      -4.401  -6.158   5.153  0.00  0.00    +0.000 NA
ATOM     14  C   UNL     1      -4.648  -5.692   6.521  0.00  0.00    +0.000 C 
ATOM     15  C   UNL     1      -3.168  -6.963   5.113  0.00  0.00    +0.000 C 
ATOM     16  C   UNL     1      -2.818  -7.415   3.688  0.00  0.00    +0.000 C 
BRANCH  16  17
ATOM     17  C   UNL     1      -1.537  -8.231   3.702  0.00  0.00    +0.000 C 
ATOM     18  O   UNL     1      -0.647  -8.098   4.526  0.00  0.00    +0.000 OA
BRANCH  17  19
ATOM     19  O   UNL     1      -1.438  -9.096   2.672  0.00  0.00    +0.000 OA
ATOM     20  H   UNL     1      -2.211  -9.106   2.073  0.00  0.00    +0.000 HD
ENDBRANCH  17  19
ENDBRANCH  16  17
ENDBRANCH   9  10
ENDBRANCH   7   9
ENDBRANCH   4   7
BRANCH   1  21
ATOM     21  C   UNL     1       3.021  -3.223  -1.374  0.00  0.00    +0.000 C 
BRANCH  21  24
ATOM     22  C   UNL     1       3.475  -3.547  -3.759  0.00  0.00    +0.000 C 
ATOM     23  O   UNL     1       4.665  -3.747  -3.521  0.00  0.00    +0.000 OA
ATOM     24  N   UNL     1       2.585  -3.312  -2.747  0.00  0.00    +0.000 N 
ATOM     25  H   UNL     1       1.625  -3.070  -2.957  0.00  0.00    +0.000 HD
BRANCH  22  33
ATOM     26  C   UNL     1       0.378  -2.965  -5.190  0.00  0.00    +0.000 A 
ATOM     27  N   UNL     1      -0.683  -2.802  -6.009  0.00  0.00    +0.000 NA
ATOM     28  C   UNL     1      -0.500  -2.954  -7.322  0.00  0.00    +0.000 A 
ATOM     29  N   UNL     1       0.638  -3.255  -7.938  0.00  0.00    +0.000 NA
ATOM     30  C   UNL     1       1.667  -3.419  -7.090  0.00  0.00    +0.000 A 
ATOM     31  S   UNL     1       3.198  -3.804  -7.713  0.00  0.00    +0.000 S 
ATOM     32  C   UNL     1       3.875  -3.831  -6.159  0.00  0.00    +0.000 A 
ATOM     33  C   UNL     1       2.969  -3.552  -5.141  0.00  0.00    +0.000 A 
ATOM     34  C   UNL     1       1.643  -3.304  -5.702  0.00  0.00    +0.000 A 
BRANCH  26  36
ATOM     35  C   UNL     1      -0.980  -2.019  -3.542  0.00  0.00    +0.000 C 
ATOM     36  O   UNL     1       0.180  -2.800  -3.833  0.00  0.00    +0.000 OA
ENDBRANCH  26  36
ENDBRANCH  22  33
ENDBRANCH  21  24
ENDBRANCH   1  21
TORSDOF 9
