REMARK  Name = 
REMARK  7 active torsions:
REMARK  status: ('A' for Active; 'I' for Inactive)
REMARK    1  A    between atoms: C_1  and  C_2
REMARK    2  A    between atoms: C_7  and  C_8
REMARK    3  A    between atoms: C_8  and  C_9
REMARK    4  A    between atoms: C_9  and  N_10
REMARK    5  A    between atoms: C_14  and  C_15
REMARK    6  A    between atoms: C_15  and  N_16
REMARK    7  A    between atoms: C_17  and  C_19
REMARK                            x       y       z     vdW  Elec       q    Type
REMARK                         _______ _______ _______ _____ _____    ______ ____
ROOT
ATOM      1  N   UNL     1       3.211  -4.016   0.233  0.00  0.00    +0.000 N 
ATOM      2  C   UNL     1       4.586  -3.851   0.053  0.00  0.00    +0.000 A 
ATOM      3  N   UNL     1       5.220  -4.573  -0.879  0.00  0.00    +0.000 NA
ATOM      4  C   UNL     1       6.557  -4.457  -0.954  0.00  0.00    +0.000 A 
ATOM      5  C   UNL     1       7.302  -3.642  -0.135  0.00  0.00    +0.000 A 
ATOM      6  C   UNL     1       6.556  -2.897   0.751  0.00  0.00    +0.000 A 
ATOM      7  N   UNL     1       5.210  -2.993   0.873  0.00  0.00    +0.000 NA
ATOM      8  H   UNL     1       3.011  -3.698   1.174  0.00  0.00    +0.000 HD
ENDROOT
BRANCH   1   9
ATOM      9  C   UNL     1       2.753  -5.365  -0.100  0.00  0.00    +0.000 C 
BRANCH   9  10
ATOM     10  C   UNL     1       1.229  -5.488   0.025  0.00  0.00    +0.000 C 
BRANCH  10  17
ATOM     11  C   UNL     1       0.797  -7.864   1.892  0.00  0.00    +0.000 C 
ATOM     12  C   UNL     1       0.537  -7.943   0.413  0.00  0.00    +0.000 A 
ATOM     13  C   UNL     1       0.085  -9.164  -0.121  0.00  0.00    +0.000 A 
ATOM     14  C   UNL     1      -0.172  -9.304  -1.484  0.00  0.00    +0.000 A 
ATOM     15  C   UNL     1       0.026  -8.226  -2.337  0.00  0.00    +0.000 A 
ATOM     16  C   UNL     1       0.475  -7.008  -1.825  0.00  0.00    +0.000 A 
ATOM     17  C   UNL     1       0.729  -6.843  -0.450  0.00  0.00    +0.000 A 
ENDBRANCH  10  17
ENDBRANCH   9  10
ENDBRANCH   1   9
BRANCH   5  18
ATOM     18  C   UNL     1       8.793  -3.627  -0.199  0.00  0.00    +0.000 C 
BRANCH  18  19
ATOM     19  N   UNL     1       9.319  -2.764  -1.225  0.00  0.00    +0.000 N 
ATOM     20  C   UNL     1      10.681  -2.642  -1.388  0.00  0.00    +0.000 C 
ATOM     21  O   UNL     1      11.465  -3.261  -0.672  0.00  0.00    +0.000 OA
ATOM     22  H   UNL     1       8.700  -2.466  -1.976  0.00  0.00    +0.000 HD
BRANCH  20  23
ATOM     23  C   UNL     1      11.161  -1.683  -2.392  0.00  0.00    +0.000 A 
ATOM     24  C   UNL     1      12.523  -1.450  -2.538  0.00  0.00    +0.000 A 
ATOM     25  S   UNL     1      12.879  -0.106  -3.530  0.00  0.00    +0.000 S 
ATOM     26  C   UNL     1      11.228   0.164  -3.842  0.00  0.00    +0.000 A 
ATOM     27  N   UNL     1      10.807   1.242  -4.557  0.00  0.00    +0.000 NA
ATOM     28  C   UNL     1       9.531   1.284  -4.753  0.00  0.00    +0.000 A 
ATOM     29  N   UNL     1       8.643   0.323  -4.341  0.00  0.00    +0.000 N 
ATOM     30  C   UNL     1       9.031  -0.796  -3.647  0.00  0.00    +0.000 A 
ATOM     31  O   UNL     1       8.244  -1.699  -3.380  0.00  0.00    +0.000 OA
ATOM     32  C   UNL     1      10.435  -0.827  -3.295  0.00  0.00    +0.000 A 
ATOM     33  H   UNL     1       7.669   0.375  -4.598  0.00  0.00    +0.000 HD
ENDBRANCH  20  23
ENDBRANCH  18  19
ENDBRANCH   5  18
TORSDOF 6
