REMARK  Name = 
REMARK  5 active torsions:
REMARK  status: ('A' for Active; 'I' for Inactive)
REMARK    1  A    between atoms: C_2  and  C_4
REMARK    2  A    between atoms: C_9  and  N_10
REMARK    3  A    between atoms: N_10  and  C_11
REMARK    4  A    between atoms: C_11  and  C_12
REMARK    5  A    between atoms: C_17  and  C_18
REMARK                            x       y       z     vdW  Elec       q    Type
REMARK                         _______ _______ _______ _____ _____    ______ ____
ROOT
ATOM      1  C   UNL     1       4.047  -1.689   1.034  0.00  0.00    +0.000 C 
ENDROOT
BRANCH   1   2
ATOM      2  C   UNL     1       4.613  -2.716   1.996  0.00  0.00    +0.000 A 
ATOM      3  C   UNL     1       5.854  -2.512   2.613  0.00  0.00    +0.000 A 
ATOM      4  C   UNL     1       6.298  -3.391   3.598  0.00  0.00    +0.000 A 
ATOM      5  C   UNL     1       5.515  -4.484   3.962  0.00  0.00    +0.000 A 
ATOM      6  F   UNL     1       5.985  -5.287   4.929  0.00  0.00    +0.000 F 
ATOM      7  C   UNL     1       4.276  -4.748   3.354  0.00  0.00    +0.000 A 
ATOM      8  C   UNL     1       3.852  -3.843   2.357  0.00  0.00    +0.000 A 
BRANCH   7   9
ATOM      9  C   UNL     1       3.434  -5.891   3.752  0.00  0.00    +0.000 A 
ATOM     10  C   UNL     1       3.390  -6.411   5.038  0.00  0.00    +0.000 A 
ATOM     11  N   UNL     1       2.617  -7.449   5.430  0.00  0.00    +0.000 NA
ATOM     12  C   UNL     1       1.849  -7.990   4.478  0.00  0.00    +0.000 A 
ATOM     13  N   UNL     1       1.786  -7.593   3.201  0.00  0.00    +0.000 NA
ATOM     14  C   UNL     1       2.586  -6.553   2.875  0.00  0.00    +0.000 A 
ENDBRANCH   7   9
ENDBRANCH   1   2
BRANCH   1  15
ATOM     15  N   UNL     1       4.450  -1.954  -0.348  0.00  0.00    +0.000 N 
ATOM     16  H   UNL     1       5.459  -2.075  -0.425  0.00  0.00    +0.000 HD
BRANCH  15  22
ATOM     17  C   UNL     1       4.447  -0.893  -2.585  0.00  0.00    +0.000 A 
ATOM     18  C   UNL     1       4.058   0.189  -3.390  0.00  0.00    +0.000 A 
ATOM     19  C   UNL     1       3.261   1.196  -2.865  0.00  0.00    +0.000 A 
ATOM     20  C   UNL     1       2.878   1.082  -1.547  0.00  0.00    +0.000 A 
ATOM     21  N   UNL     1       3.257   0.066  -0.737  0.00  0.00    +0.000 NA
ATOM     22  C   UNL     1       4.058  -0.913  -1.233  0.00  0.00    +0.000 A 
BRANCH  17  24
ATOM     23  N   UNL     1       5.094  -3.233  -2.784  0.00  0.00    +0.000 N 
ATOM     24  C   UNL     1       5.230  -1.959  -3.260  0.00  0.00    +0.000 C 
ATOM     25  O   UNL     1       5.925  -1.722  -4.237  0.00  0.00    +0.000 OA
ATOM     26  H   UNL     1       5.527  -3.984  -3.302  0.00  0.00    +0.000 HD
ATOM     27  H   UNL     1       4.453  -3.450  -2.029  0.00  0.00    +0.000 HD
ENDBRANCH  17  24
ENDBRANCH  15  22
ENDBRANCH   1  15
TORSDOF 5
