REMARK  Name = 
REMARK  6 active torsions:
REMARK  status: ('A' for Active; 'I' for Inactive)
REMARK    1  A    between atoms: C_1  and  C_2
REMARK    2  A    between atoms: C_2  and  C_3
REMARK    3  A    between atoms: C_2  and  C_14
REMARK    4  A    between atoms: C_3  and  O_4
REMARK    5  A    between atoms: O_4  and  C_5
REMARK    6  A    between atoms: C_8  and  C_9
REMARK                            x       y       z     vdW  Elec       q    Type
REMARK                         _______ _______ _______ _____ _____    ______ ____
ROOT
ATOM      1  C   UNL     1       3.078   3.112   2.243  0.00  0.00    +0.000 A 
ATOM      2  C   UNL     1       2.579   3.799   3.347  0.00  0.00    +0.000 A 
ATOM      3  N   UNL     1       3.148   4.938   3.831  0.00  0.00    +0.000 NA
ATOM      4  C   UNL     1       4.255   5.351   3.148  0.00  0.00    +0.000 A 
ATOM      5  C   UNL     1       4.750   4.668   2.049  0.00  0.00    +0.000 A 
ATOM      6  N   UNL     1       4.172   3.537   1.572  0.00  0.00    +0.000 NA
ENDROOT
BRANCH   4   7
ATOM      7  C   UNL     1       4.957   6.579   3.607  0.00  0.00    +0.000 C 
ATOM      8  N   UNL     1       4.415   7.216   4.687  0.00  0.00    +0.000 N 
ATOM      9  O   UNL     1       5.964   7.000   3.052  0.00  0.00    +0.000 OA
ATOM     10  H   UNL     1       3.581   6.849   5.137  0.00  0.00    +0.000 HD
ATOM     11  H   UNL     1       4.859   8.051   5.039  0.00  0.00    +0.000 HD
ENDBRANCH   4   7
BRANCH   1  12
ATOM     12  O   UNL     1       2.439   1.960   1.842  0.00  0.00    +0.000 OA
BRANCH  12  13
ATOM     13  C   UNL     1       3.050   1.372   0.690  0.00  0.00    +0.000 C 
BRANCH  13  15
ATOM     14  C   UNL     1       0.919   0.184  -0.072  0.00  0.00    +0.000 C 
ATOM     15  C   UNL     1       2.345   0.080   0.377  0.00  0.00    +0.000 C 
BRANCH  15  16
ATOM     16  C   UNL     1       2.856  -1.182   1.041  0.00  0.00    +0.000 C 
ATOM     17  C   UNL     1       2.678  -2.441   0.169  0.00  0.00    +0.000 C 
ATOM     18  C   UNL     1       3.092  -3.717   0.903  0.00  0.00    +0.000 C 
ATOM     19  C   UNL     1       2.375  -3.846   2.241  0.00  0.00    +0.000 C 
ATOM     20  C   UNL     1       2.646  -2.633   3.121  0.00  0.00    +0.000 C 
ATOM     21  C   UNL     1       2.218  -1.344   2.428  0.00  0.00    +0.000 C 
ENDBRANCH  15  16
ENDBRANCH  13  15
ENDBRANCH  12  13
ENDBRANCH   1  12
TORSDOF 5
