REMARK  Name = 
REMARK  9 active torsions:
REMARK  status: ('A' for Active; 'I' for Inactive)
REMARK    1  A    between atoms: C_2  and  C_3
REMARK    2  A    between atoms: C_6  and  N_7
REMARK    3  A    between atoms: N_7  and  C_8
REMARK    4  A    between atoms: C_8  and  C_9
REMARK    5  A    between atoms: C_9  and  C_10
REMARK    6  A    between atoms: C_9  and  C_12
REMARK    7  A    between atoms: C_14  and  S_15
REMARK    8  A    between atoms: S_15  and  C_16
REMARK    9  A    between atoms: C_16  and  O_17
REMARK                            x       y       z     vdW  Elec       q    Type
REMARK                         _______ _______ _______ _____ _____    ______ ____
ROOT
ATOM      1  C   UNL     1      10.092  -1.038  -0.966  0.00  0.00    +0.000 C 
ENDROOT
BRANCH   1   2
ATOM      2  C   UNL     1      10.896  -2.309  -1.201  0.00  0.00    +0.000 A 
ATOM      3  C   UNL     1      11.994  -2.287  -2.060  0.00  0.00    +0.000 A 
ATOM      4  C   UNL     1      12.643  -3.485  -2.369  0.00  0.00    +0.000 A 
ATOM      5  C   UNL     1      12.225  -4.661  -1.758  0.00  0.00    +0.000 A 
ATOM      6  C   UNL     1      11.155  -4.590  -0.884  0.00  0.00    +0.000 A 
ATOM      7  N   UNL     1      10.481  -3.451  -0.607  0.00  0.00    +0.000 NA
BRANCH   4   8
ATOM      8  S   UNL     1      13.962  -3.510  -3.579  0.00  0.00    +0.000 S 
BRANCH   8   9
ATOM      9  C   UNL     1      12.914  -3.763  -5.062  0.00  0.00    +0.000 C 
ATOM     10  C   UNL     1      12.437  -5.230  -5.218  0.00  0.00    +0.000 C 
ATOM     11  N   UNL     1      12.675  -5.104  -6.686  0.00  0.00    +0.000 NA
ATOM     12  C   UNL     1      13.714  -4.082  -6.358  0.00  0.00    +0.000 C 
ATOM     13  H   UNL     1      11.866  -4.693  -7.164  0.00  0.00    +0.000 HD
BRANCH   9  14
ATOM     14  O   UNL     1      11.925  -2.717  -5.185  0.00  0.00    +0.000 OA
ATOM     15  H   UNL     1      12.444  -1.912  -5.020  0.00  0.00    +0.000 HD
ENDBRANCH   9  14
ENDBRANCH   8   9
ENDBRANCH   4   8
ENDBRANCH   1   2
BRANCH   1  16
ATOM     16  C   UNL     1      10.744  -0.149   0.091  0.00  0.00    +0.000 C 
ATOM     17  F   UNL     1      10.666  -0.725   1.319  0.00  0.00    +0.000 F 
ENDBRANCH   1  16
BRANCH   1  18
ATOM     18  C   UNL     1       8.623  -1.347  -0.614  0.00  0.00    +0.000 C 
BRANCH  18  19
ATOM     19  N   UNL     1       7.787  -0.159  -0.680  0.00  0.00    +0.000 N 
ATOM     20  H   UNL     1       7.541   0.319   0.181  0.00  0.00    +0.000 HD
BRANCH  19  24
ATOM     21  C   UNL     1       6.113   1.554  -3.989  0.00  0.00    +0.000 A 
ATOM     22  C   UNL     1       5.961   2.083  -2.717  0.00  0.00    +0.000 A 
ATOM     23  N   UNL     1       6.511   1.513  -1.613  0.00  0.00    +0.000 NA
ATOM     24  C   UNL     1       7.224   0.381  -1.803  0.00  0.00    +0.000 A 
ATOM     25  C   UNL     1       7.358  -0.140  -3.092  0.00  0.00    +0.000 A 
ATOM     26  N   UNL     1       6.821   0.422  -4.206  0.00  0.00    +0.000 NA
BRANCH  21  28
ATOM     27  N   UNL     1       5.075   2.749  -6.040  0.00  0.00    +0.000 NA
ATOM     28  C   UNL     1       5.543   2.197  -5.134  0.00  0.00    +0.000 C 
ENDBRANCH  21  28
ENDBRANCH  19  24
ENDBRANCH  18  19
ENDBRANCH   1  18
TORSDOF 9
