REMARK  Name = 
REMARK  4 active torsions:
REMARK  status: ('A' for Active; 'I' for Inactive)
REMARK    1  A    between atoms: N_1  and  C_2
REMARK    2  A    between atoms: C_2  and  C_3
REMARK    3  A    between atoms: C_6  and  C_7
REMARK    4  A    between atoms: C_7  and  N_8
REMARK                            x       y       z     vdW  Elec       q    Type
REMARK                         _______ _______ _______ _____ _____    ______ ____
ROOT
ATOM      1  C   UNL     1       2.992   0.793   1.042  0.00  0.00    +0.000 A 
ATOM      2  C   UNL     1       4.292   1.100   1.467  0.00  0.00    +0.000 A 
ATOM      3  C   UNL     1       4.525   1.593   2.753  0.00  0.00    +0.000 A 
ATOM      4  C   UNL     1       3.463   1.792   3.645  0.00  0.00    +0.000 A 
ATOM      5  C   UNL     1       2.165   1.469   3.226  0.00  0.00    +0.000 A 
ATOM      6  C   UNL     1       1.932   0.974   1.939  0.00  0.00    +0.000 A 
ENDROOT
BRANCH   1   7
ATOM      7  C   UNL     1       2.736   0.331  -0.370  0.00  0.00    +0.000 C 
BRANCH   7   8
ATOM      8  N   UNL     1       3.482  -0.879  -0.694  0.00  0.00    +0.000 NA
ATOM      9  H   UNL     1       3.202  -1.203  -1.618  0.00  0.00    +0.000 HD
ATOM     10  H   UNL     1       3.216  -1.610  -0.038  0.00  0.00    +0.000 HD
ENDBRANCH   7   8
ENDBRANCH   1   7
BRANCH   4  11
ATOM     11  C   UNL     1       3.706   2.362   5.018  0.00  0.00    +0.000 C 
BRANCH  11  12
ATOM     12  N   UNL     1       3.602   3.818   5.034  0.00  0.00    +0.000 N 
ATOM     13  C   UNL     1       2.425   4.507   5.231  0.00  0.00    +0.000 A 
ATOM     14  C   UNL     1       2.721   5.850   5.294  0.00  0.00    +0.000 A 
ATOM     15  C   UNL     1       4.117   5.985   5.138  0.00  0.00    +0.000 A 
ATOM     16  N   UNL     1       4.863   7.116   5.153  0.00  0.00    +0.000 NA
ATOM     17  C   UNL     1       6.187   6.924   4.981  0.00  0.00    +0.000 A 
ATOM     18  C   UNL     1       6.806   5.697   4.792  0.00  0.00    +0.000 A 
ATOM     19  C   UNL     1       6.033   4.538   4.781  0.00  0.00    +0.000 A 
ATOM     20  C   UNL     1       4.657   4.708   4.966  0.00  0.00    +0.000 A 
ENDBRANCH  11  12
ENDBRANCH   4  11
TORSDOF 4
