REMARK  Name = 
REMARK  5 active torsions:
REMARK  status: ('A' for Active; 'I' for Inactive)
REMARK    1  A    between atoms: C_2  and  C_4
REMARK    2  A    between atoms: N_8  and  C_9
REMARK    3  A    between atoms: C_9  and  C_10
REMARK    4  A    between atoms: CA_13  and  C_14
REMARK    5  A    between atoms: C_14  and  O_15
REMARK                            x       y       z     vdW  Elec       q    Type
REMARK                         _______ _______ _______ _____ _____    ______ ____
ROOT
ATOM      1  C   UNL     1       3.857  -0.304   0.943  0.00  0.00    +0.000 A 
ATOM      2  C   UNL     1       5.096   0.004   1.448  0.00  0.00    +0.000 A 
ATOM      3  N   UNL     1       5.552  -0.449   2.635  0.00  0.00    +0.000 NA
ATOM      4  C   UNL     1       4.729  -1.235   3.350  0.00  0.00    +0.000 A 
ATOM      5  N   UNL     1       5.148  -1.754   4.564  0.00  0.00    +0.000 N 
ATOM      6  N   UNL     1       3.490  -1.562   2.960  0.00  0.00    +0.000 NA
ATOM      7  C   UNL     1       3.076  -1.085   1.761  0.00  0.00    +0.000 A 
ATOM      8  H   UNL     1       4.315  -2.030   5.072  0.00  0.00    +0.000 HD
ENDROOT
BRANCH   1  10
ATOM      9  N   UNL     1       4.287   0.467  -1.317  0.00  0.00    +0.000 N 
ATOM     10  C   UNL     1       3.362   0.178  -0.352  0.00  0.00    +0.000 C 
ATOM     11  O   UNL     1       2.162   0.288  -0.567  0.00  0.00    +0.000 OA
ATOM     12  H   UNL     1       3.921   0.707  -2.231  0.00  0.00    +0.000 HD
ATOM     13  H   UNL     1       5.249   0.157  -1.278  0.00  0.00    +0.000 HD
ENDBRANCH   1  10
BRANCH   5  14
ATOM     14  C   UNL     1       6.066  -0.894   5.283  0.00  0.00    +0.000 C 
BRANCH  14  15
ATOM     15  C   UNL     1       6.476  -1.538   6.580  0.00  0.00    +0.000 A 
ATOM     16  C   UNL     1       7.137  -2.766   6.612  0.00  0.00    +0.000 A 
ATOM     17  C   UNL     1       7.577  -3.286   7.827  0.00  0.00    +0.000 A 
ATOM     18  CA  UNL     1       7.348  -2.560   8.993  0.00  0.00    +0.000 A 
ATOM     19  N   UNL     1       6.682  -1.379   8.993  0.00  0.00    +0.000 NA
ATOM     20  C   UNL     1       6.270  -0.896   7.797  0.00  0.00    +0.000 A 
BRANCH  18  21
ATOM     21  C   UNL     1       7.875  -3.063  10.315  0.00  0.00    +0.000 C 
BRANCH  21  22
ATOM     22  O   UNL     1       7.320  -4.331  10.652  0.00  0.00    +0.000 OA
ATOM     23  H   UNL     1       6.358  -4.196  10.696  0.00  0.00    +0.000 HD
ENDBRANCH  21  22
ENDBRANCH  18  21
ENDBRANCH  14  15
ENDBRANCH   5  14
TORSDOF 5
