REMARK  Name = 
REMARK  7 active torsions:
REMARK  status: ('A' for Active; 'I' for Inactive)
REMARK    1  A    between atoms: N_1  and  C_2
REMARK    2  A    between atoms: C_2  and  C_3
REMARK    3  A    between atoms: C_3  and  C_4
REMARK    4  A    between atoms: C_7  and  C_8
REMARK    5  A    between atoms: C_8  and  N_9
REMARK    6  A    between atoms: CA_14  and  C_15
REMARK    7  A    between atoms: C_15  and  OXT_17
REMARK                            x       y       z     vdW  Elec       q    Type
REMARK                         _______ _______ _______ _____ _____    ______ ____
ROOT
ATOM      1  N   UNL     1       9.248  -0.285  -3.166  0.00  0.00    +0.000 N 
ATOM      2  N   UNL     1       9.523   0.947  -3.664  0.00  0.00    +0.000 NA
ATOM      3  C   UNL     1      10.078   0.699  -4.851  0.00  0.00    +0.000 A 
ATOM      4  C   UNL     1      10.187  -0.680  -5.123  0.00  0.00    +0.000 A 
ATOM      5  C   UNL     1      10.708  -1.451  -6.167  0.00  0.00    +0.000 A 
ATOM      6  CA  UNL     1      10.627  -2.824  -5.995  0.00  0.00    +0.000 A 
ATOM      7  N   UNL     1      10.078  -3.456  -4.912  0.00  0.00    +0.000 NA
ATOM      8  C   UNL     1       9.574  -2.695  -3.906  0.00  0.00    +0.000 A 
ATOM      9  C   UNL     1       9.631  -1.308  -4.010  0.00  0.00    +0.000 A 
ENDROOT
BRANCH   6  10
ATOM     10  C   UNL     1      11.197  -3.721  -7.047  0.00  0.00    +0.000 C 
ATOM     11  O   UNL     1      11.738  -3.339  -8.073  0.00  0.00    +0.000 OA
BRANCH  10  12
ATOM     12  OXT UNL     1      11.043  -5.022  -6.707  0.00  0.00    +0.000 OA
ATOM     13  HXT UNL     1      10.580  -5.069  -5.836  0.00  0.00    +0.000 HD
ENDBRANCH  10  12
ENDBRANCH   6  10
BRANCH   1  14
ATOM     14  C   UNL     1       8.791  -0.394  -1.780  0.00  0.00    +0.000 C 
BRANCH  14  18
ATOM     15  C   UNL     1       4.471  -0.217  -1.474  0.00  0.00    +0.000 A 
ATOM     16  C   UNL     1       5.120  -1.450  -1.600  0.00  0.00    +0.000 A 
ATOM     17  C   UNL     1       6.516  -1.517  -1.673  0.00  0.00    +0.000 A 
ATOM     18  C   UNL     1       7.289  -0.349  -1.646  0.00  0.00    +0.000 A 
ATOM     19  C   UNL     1       6.635   0.882  -1.483  0.00  0.00    +0.000 A 
ATOM     20  C   UNL     1       5.241   0.947  -1.387  0.00  0.00    +0.000 A 
BRANCH  15  21
ATOM     21  C   UNL     1       2.964  -0.157  -1.424  0.00  0.00    +0.000 C 
BRANCH  21  22
ATOM     22  C   UNL     1       2.427  -0.263   0.006  0.00  0.00    +0.000 C 
BRANCH  22  23
ATOM     23  N   UNL     1       0.966  -0.214   0.016  0.00  0.00    +0.000 NA
ATOM     24  H   UNL     1       0.632  -0.324   0.973  0.00  0.00    +0.000 HD
ATOM     25  H   UNL     1       0.592  -1.003  -0.510  0.00  0.00    +0.000 HD
ENDBRANCH  22  23
ENDBRANCH  21  22
ENDBRANCH  15  21
ENDBRANCH  14  18
ENDBRANCH   1  14
TORSDOF 7
