REMARK  Name = 
REMARK  6 active torsions:
REMARK  status: ('A' for Active; 'I' for Inactive)
REMARK    1  A    between atoms: C_1  and  O_2
REMARK    2  A    between atoms: O_2  and  C_3
REMARK    3  A    between atoms: C_7  and  C_8
REMARK    4  A    between atoms: C_12  and  C_13
REMARK    5  A    between atoms: C_13  and  N_14
REMARK    6  A    between atoms: C_18  and  C_19
REMARK                            x       y       z     vdW  Elec       q    Type
REMARK                         _______ _______ _______ _____ _____    ______ ____
ROOT
ATOM      1  C   UNL     1       2.838  -3.217   6.954  0.00  0.00    +0.000 C 
ATOM      2  C   UNL     1       1.706  -4.033   6.356  0.00  0.00    +0.000 C 
ATOM      3  C   UNL     1       1.586  -3.551   7.763  0.00  0.00    +0.000 C 
ENDROOT
BRANCH   1   4
ATOM      4  N   UNL     1       4.099  -3.864   7.381  0.00  0.00    +0.000 N 
ATOM      5  C   UNL     1       4.900  -4.537   6.428  0.00  0.00    +0.000 A 
ATOM      6  C   UNL     1       6.124  -5.057   6.847  0.00  0.00    +0.000 A 
ATOM      7  C   UNL     1       6.946  -5.715   5.935  0.00  0.00    +0.000 A 
ATOM      8  C   UNL     1       6.507  -5.821   4.630  0.00  0.00    +0.000 A 
ATOM      9  N   UNL     1       5.324  -5.302   4.225  0.00  0.00    +0.000 NA
ATOM     10  N   UNL     1       4.529  -4.647   5.133  0.00  0.00    +0.000 NA
ATOM     11  H   UNL     1       4.027  -4.434   8.218  0.00  0.00    +0.000 HD
BRANCH   8  12
ATOM     12  C   UNL     1       7.318  -6.521   3.599  0.00  0.00    +0.000 C 
ATOM     13  N   UNL     1       6.769  -6.584   2.343  0.00  0.00    +0.000 N 
ATOM     14  O   UNL     1       8.409  -7.018   3.850  0.00  0.00    +0.000 OA
ATOM     15  H   UNL     1       5.869  -6.161   2.149  0.00  0.00    +0.000 HD
ATOM     16  H   UNL     1       7.283  -7.038   1.602  0.00  0.00    +0.000 HD
ENDBRANCH   8  12
ENDBRANCH   1   4
BRANCH   1  21
ATOM     17  C   UNL     1       3.335  -0.006   4.837  0.00  0.00    +0.000 A 
ATOM     18  C   UNL     1       3.166   0.909   5.880  0.00  0.00    +0.000 A 
ATOM     19  N   UNL     1       2.985   0.588   7.180  0.00  0.00    +0.000 NA
ATOM     20  C   UNL     1       2.930  -0.730   7.468  0.00  0.00    +0.000 A 
ATOM     21  C   UNL     1       3.003  -1.762   6.534  0.00  0.00    +0.000 A 
ATOM     22  C   UNL     1       3.234  -1.363   5.203  0.00  0.00    +0.000 A 
BRANCH  17  27
ATOM     23  C   UNL     1       3.560   0.138   1.034  0.00  0.00    +0.000 A 
ATOM     24  C   UNL     1       4.268   1.326   0.918  0.00  0.00    +0.000 A 
ATOM     25  N   UNL     1       4.663   2.081   1.965  0.00  0.00    +0.000 NA
ATOM     26  C   UNL     1       4.341   1.612   3.194  0.00  0.00    +0.000 A 
ATOM     27  C   UNL     1       3.626   0.436   3.455  0.00  0.00    +0.000 A 
ATOM     28  C   UNL     1       3.231  -0.297   2.321  0.00  0.00    +0.000 A 
BRANCH  23  30
ATOM     29  C   UNL     1       2.543  -1.716  -0.045  0.00  0.00    +0.000 C 
ATOM     30  O   UNL     1       3.260  -0.492  -0.139  0.00  0.00    +0.000 OA
ENDBRANCH  23  30
ENDBRANCH  17  27
ENDBRANCH   1  21
TORSDOF 5
