REMARK  Name = 
REMARK  10 active torsions:
REMARK  status: ('A' for Active; 'I' for Inactive)
REMARK    1  A    between atoms: N_1  and  C_2
REMARK    2  A    between atoms: C_2  and  C_3
REMARK    3  A    between atoms: C_3  and  O_4
REMARK    4  A    between atoms: O_4  and  C_5
REMARK    5  A    between atoms: C_7  and  N_8
REMARK    6  A    between atoms: N_8  and  C_9
REMARK    7  A    between atoms: C_9  and  C_10
REMARK    8  A    between atoms: C_18  and  C_19
REMARK    9  A    between atoms: C_19  and  N_20
REMARK   10  A    between atoms: C_21  and  C_23
REMARK                            x       y       z     vdW  Elec       q    Type
REMARK                         _______ _______ _______ _____ _____    ______ ____
ROOT
ATOM      1  C   UNL     1       5.003   1.521  -2.052  0.00  0.00    +0.000 A 
ATOM      2  C   UNL     1       4.753   2.871  -2.360  0.00  0.00    +0.000 A 
ATOM      3  C   UNL     1       5.455   3.540  -3.368  0.00  0.00    +0.000 A 
ATOM      4  C   UNL     1       6.303   2.744  -4.129  0.00  0.00    +0.000 A 
ATOM      5  N   UNL     1       6.621   1.462  -3.857  0.00  0.00    +0.000 NA
ATOM      6  C   UNL     1       6.019   0.877  -2.786  0.00  0.00    +0.000 A 
ENDROOT
BRANCH   3   7
ATOM      7  N   UNL     1       5.201   4.885  -3.633  0.00  0.00    +0.000 N 
ATOM      8  H   UNL     1       4.721   5.379  -2.888  0.00  0.00    +0.000 HD
BRANCH   7   9
ATOM      9  C   UNL     1       6.188   5.675  -4.376  0.00  0.00    +0.000 C 
BRANCH   9  10
ATOM     10  C   UNL     1       6.702   6.888  -3.577  0.00  0.00    +0.000 C 
ATOM     11  C   UNL     1       5.640   7.974  -3.359  0.00  0.00    +0.000 C 
ATOM     12  C   UNL     1       5.257   8.655  -4.671  0.00  0.00    +0.000 C 
ATOM     13  C   UNL     1       6.486   9.112  -5.460  0.00  0.00    +0.000 C 
ATOM     14  N   UNL     1       7.482   8.049  -5.622  0.00  0.00    +0.000 NA
ATOM     15  C   UNL     1       7.897   7.510  -4.325  0.00  0.00    +0.000 C 
ATOM     16  H   UNL     1       8.293   8.420  -6.116  0.00  0.00    +0.000 HD
ENDBRANCH   9  10
ENDBRANCH   7   9
ENDBRANCH   3   7
BRANCH   1  17
ATOM     17  O   UNL     1       4.176   1.029  -1.058  0.00  0.00    +0.000 OA
BRANCH  17  18
ATOM     18  C   UNL     1       4.364  -0.328  -0.680  0.00  0.00    +0.000 C 
BRANCH  18  19
ATOM     19  C   UNL     1       3.215  -1.002   0.056  0.00  0.00    +0.000 C 
BRANCH  19  20
ATOM     20  N   UNL     1       3.560  -2.420   0.229  0.00  0.00    +0.000 NA
ATOM     21  H   UNL     1       2.928  -2.870   0.885  0.00  0.00    +0.000 HD
ATOM     22  H   UNL     1       4.504  -2.521   0.609  0.00  0.00    +0.000 HD
ENDBRANCH  19  20
ENDBRANCH  18  19
ENDBRANCH  17  18
ENDBRANCH   1  17
BRANCH   6  23
ATOM     23  C   UNL     1       6.524  -0.513  -2.501  0.00  0.00    +0.000 C 
BRANCH  23  24
ATOM     24  N   UNL     1       7.879  -0.771  -2.886  0.00  0.00    +0.000 N 
ATOM     25  C   UNL     1       8.585  -1.744  -2.224  0.00  0.00    +0.000 C 
ATOM     26  O   UNL     1       8.077  -2.468  -1.371  0.00  0.00    +0.000 OA
ATOM     27  H   UNL     1       8.315  -0.056  -3.456  0.00  0.00    +0.000 HD
BRANCH  25  28
ATOM     28  C   UNL     1       9.963  -1.920  -2.645  0.00  0.00    +0.000 A 
ATOM     29  C   UNL     1      10.596  -3.144  -2.481  0.00  0.00    +0.000 A 
ATOM     30  S   UNL     1      12.145  -3.187  -3.194  0.00  0.00    +0.000 S 
ATOM     31  C   UNL     1      12.028  -1.557  -3.683  0.00  0.00    +0.000 A 
ATOM     32  N   UNL     1      13.020  -0.955  -4.393  0.00  0.00    +0.000 NA
ATOM     33  C   UNL     1      12.795   0.285  -4.674  0.00  0.00    +0.000 A 
ATOM     34  N   UNL     1      11.682   0.990  -4.285  0.00  0.00    +0.000 N 
ATOM     35  C   UNL     1      10.679   0.439  -3.532  0.00  0.00    +0.000 A 
ATOM     36  O   UNL     1       9.738   1.118  -3.132  0.00  0.00    +0.000 OA
ATOM     37  C   UNL     1      10.843  -0.971  -3.267  0.00  0.00    +0.000 A 
ATOM     38  H   UNL     1      11.581   1.969  -4.503  0.00  0.00    +0.000 HD
ENDBRANCH  25  28
ENDBRANCH  23  24
ENDBRANCH   6  23
TORSDOF 10
