REMARK  Name = 
REMARK  8 active torsions:
REMARK  status: ('A' for Active; 'I' for Inactive)
REMARK    1  A    between atoms: C_2  and  C_21
REMARK    2  A    between atoms: N_3  and  C_4
REMARK    3  A    between atoms: C_4  and  C_5
REMARK    4  A    between atoms: C_8  and  C_9
REMARK    5  A    between atoms: C_9  and  C_10
REMARK    6  A    between atoms: C_10  and  C_11
REMARK    7  A    between atoms: C_11  and  O_12
REMARK    8  A    between atoms: C_11  and  C_13
REMARK                            x       y       z     vdW  Elec       q    Type
REMARK                         _______ _______ _______ _____ _____    ______ ____
ROOT
ATOM      1  C   UNL     1      11.914   9.958  -1.383  0.00  0.00    +0.000 A 
ATOM      2  C   UNL     1      11.100   8.829  -1.292  0.00  0.00    +0.000 A 
ATOM      3  C   UNL     1       9.957   8.861  -0.499  0.00  0.00    +0.000 A 
ATOM      4  C   UNL     1       9.636  10.039   0.169  0.00  0.00    +0.000 A 
ATOM      5  N   UNL     1      10.390  11.158   0.067  0.00  0.00    +0.000 NA
ATOM      6  C   UNL     1      11.502  11.096  -0.701  0.00  0.00    +0.000 A 
ENDROOT
BRANCH   1   7
ATOM      7  C   UNL     1      13.173   9.943  -2.196  0.00  0.00    +0.000 C 
BRANCH   7  10
ATOM      8  O   UNL     1      12.717   8.134  -4.306  0.00  0.00    +0.000 OA
ATOM      9  C   UNL     1      12.680   9.339  -4.537  0.00  0.00    +0.000 C 
ATOM     10  N   UNL     1      12.922  10.281  -3.572  0.00  0.00    +0.000 N 
ATOM     11  H   UNL     1      12.703  11.252  -3.763  0.00  0.00    +0.000 HD
BRANCH   9  12
ATOM     12  C   UNL     1      12.428   9.853  -5.888  0.00  0.00    +0.000 A 
ATOM     13  C   UNL     1      12.689   9.057  -6.993  0.00  0.00    +0.000 A 
ATOM     14  S   UNL     1      12.340   9.819  -8.480  0.00  0.00    +0.000 S 
ATOM     15  C   UNL     1      11.789  11.224  -7.694  0.00  0.00    +0.000 A 
ATOM     16  N   UNL     1      11.304  12.281  -8.400  0.00  0.00    +0.000 NA
ATOM     17  C   UNL     1      10.886  13.263  -7.675  0.00  0.00    +0.000 A 
ATOM     18  N   UNL     1      10.924  13.294  -6.302  0.00  0.00    +0.000 N 
ATOM     19  C   UNL     1      11.477  12.287  -5.556  0.00  0.00    +0.000 A 
ATOM     20  O   UNL     1      11.627  12.403  -4.343  0.00  0.00    +0.000 OA
ATOM     21  C   UNL     1      11.906  11.129  -6.320  0.00  0.00    +0.000 A 
ATOM     22  H   UNL     1      10.613  14.113  -5.798  0.00  0.00    +0.000 HD
ENDBRANCH   9  12
ENDBRANCH   7  10
ENDBRANCH   1   7
BRANCH   4  23
ATOM     23  C   UNL     1       8.434  10.106   1.074  0.00  0.00    +0.000 C 
BRANCH  23  24
ATOM     24  C   UNL     1       7.432  11.197   0.686  0.00  0.00    +0.000 C 
BRANCH  24  25
ATOM     25  C   UNL     1       6.818  11.050  -0.714  0.00  0.00    +0.000 C 
BRANCH  25  26
ATOM     26  C   UNL     1       6.099   9.732  -0.903  0.00  0.00    +0.000 A 
ATOM     27  C   UNL     1       6.479   8.855  -1.914  0.00  0.00    +0.000 A 
ATOM     28  N   UNL     1       5.900   7.644  -2.092  0.00  0.00    +0.000 NA
ATOM     29  C   UNL     1       4.901   7.348  -1.232  0.00  0.00    +0.000 A 
ATOM     30  C   UNL     1       4.491   8.226  -0.244  0.00  0.00    +0.000 A 
ATOM     31  N   UNL     1       5.072   9.435  -0.058  0.00  0.00    +0.000 NA
ENDBRANCH  25  26
BRANCH  25  32
ATOM     32  O   UNL     1       5.872  12.115  -0.888  0.00  0.00    +0.000 OA
ATOM     33  H   UNL     1       5.033  11.787  -0.509  0.00  0.00    +0.000 HD
ENDBRANCH  25  32
ENDBRANCH  24  25
ENDBRANCH  23  24
ENDBRANCH   4  23
TORSDOF 8
