REMARK  Name = 
REMARK  10 active torsions:
REMARK  status: ('A' for Active; 'I' for Inactive)
REMARK    1  A    between atoms: C_1  and  O_2
REMARK    2  A    between atoms: O_2  and  C_3
REMARK    3  A    between atoms: C_10  and  C_11
REMARK    4  A    between atoms: N_13  and  C_14
REMARK    5  A    between atoms: C_14  and  C_15
REMARK    6  A    between atoms: C_18  and  C_19
REMARK    7  A    between atoms: C_19  and  N_20
REMARK    8  A    between atoms: N_20  and  C_21
REMARK    9  A    between atoms: C_21  and  C_22
REMARK   10  A    between atoms: C_26  and  C_27
REMARK                            x       y       z     vdW  Elec       q    Type
REMARK                         _______ _______ _______ _____ _____    ______ ____
ROOT
ATOM      1  C   UNL     1       1.642  -0.174  -3.243  0.00  0.00    +0.000 A 
ATOM      2  C   UNL     1       1.792  -1.563  -3.328  0.00  0.00    +0.000 A 
ATOM      3  C   UNL     1       0.675  -2.403  -3.277  0.00  0.00    +0.000 A 
ATOM      4  C   UNL     1      -0.622  -1.887  -3.123  0.00  0.00    +0.000 A 
ATOM      5  C   UNL     1      -0.772  -0.493  -3.079  0.00  0.00    +0.000 A 
ATOM      6  C   UNL     1       0.347   0.352  -3.141  0.00  0.00    +0.000 A 
ENDROOT
BRANCH   1   7
ATOM      7  C   UNL     1       2.846   0.731  -3.324  0.00  0.00    +0.000 C 
BRANCH   7  10
ATOM      8  C   UNL     1       4.269   1.776  -5.043  0.00  0.00    +0.000 C 
ATOM      9  O   UNL     1       5.024   2.237  -4.190  0.00  0.00    +0.000 OA
ATOM     10  N   UNL     1       3.170   1.031  -4.694  0.00  0.00    +0.000 N 
ATOM     11  H   UNL     1       2.519   0.733  -5.402  0.00  0.00    +0.000 HD
BRANCH   8  19
ATOM     12  C   UNL     1       2.680   0.688  -7.898  0.00  0.00    +0.000 A 
ATOM     13  N   UNL     1       2.296   0.369  -9.150  0.00  0.00    +0.000 NA
ATOM     14  C   UNL     1       3.023   0.836 -10.169  0.00  0.00    +0.000 A 
ATOM     15  N   UNL     1       4.105   1.605 -10.093  0.00  0.00    +0.000 NA
ATOM     16  C   UNL     1       4.453   1.902  -8.829  0.00  0.00    +0.000 A 
ATOM     17  S   UNL     1       5.804   2.889  -8.542  0.00  0.00    +0.000 S 
ATOM     18  C   UNL     1       5.596   2.770  -6.861  0.00  0.00    +0.000 A 
ATOM     19  C   UNL     1       4.511   1.988  -6.480  0.00  0.00    +0.000 A 
ATOM     20  C   UNL     1       3.813   1.488  -7.665  0.00  0.00    +0.000 A 
BRANCH  12  22
ATOM     21  C   UNL     1       1.122  -0.893  -7.149  0.00  0.00    +0.000 C 
ATOM     22  O   UNL     1       1.887   0.271  -6.851  0.00  0.00    +0.000 OA
ENDBRANCH  12  22
ENDBRANCH   8  19
ENDBRANCH   7  10
ENDBRANCH   1   7
BRANCH   4  23
ATOM     23  C   UNL     1      -1.830  -2.810  -3.043  0.00  0.00    +0.000 C 
BRANCH  23  24
ATOM     24  N   UNL     1      -1.474  -4.055  -2.357  0.00  0.00    +0.000 NA
ATOM     25  H   UNL     1      -1.147  -3.808  -1.423  0.00  0.00    +0.000 HD
BRANCH  24  26
ATOM     26  C   UNL     1      -2.556  -5.033  -2.250  0.00  0.00    +0.000 C 
BRANCH  26  27
ATOM     27  C   UNL     1      -2.043  -6.238  -1.417  0.00  0.00    +0.000 C 
ATOM     28  C   UNL     1      -0.857  -7.005  -2.070  0.00  0.00    +0.000 C 
ATOM     29  C   UNL     1      -1.230  -8.239  -2.900  0.00  0.00    +0.000 C 
ATOM     30  N   UNL     1      -2.277  -9.019  -2.250  0.00  0.00    +0.000 N 
ATOM     31  C   UNL     1      -2.151 -10.238  -1.600  0.00  0.00    +0.000 C 
ATOM     32  C   UNL     1      -0.830 -10.965  -1.597  0.00  0.00    +0.000 C 
ATOM     33  O   UNL     1      -3.106 -10.766  -1.020  0.00  0.00    +0.000 OA
ATOM     34  C   UNL     1      -3.495  -8.249  -2.025  0.00  0.00    +0.000 C 
ATOM     35  C   UNL     1      -3.193  -7.173  -0.991  0.00  0.00    +0.000 C 
ENDBRANCH  26  27
ENDBRANCH  24  26
ENDBRANCH  23  24
ENDBRANCH   4  23
TORSDOF 8
