REMARK  Name = 
REMARK  8 active torsions:
REMARK  status: ('A' for Active; 'I' for Inactive)
REMARK    1  A    between atoms: C_1  and  C_2
REMARK    2  A    between atoms: C_2  and  N_3
REMARK    3  A    between atoms: C_2  and  C_25
REMARK    4  A    between atoms: N_3  and  C_4
REMARK    5  A    between atoms: C_4  and  C_5
REMARK    6  A    between atoms: C_8  and  C_9
REMARK    7  A    between atoms: C_9  and  N_10
REMARK    8  A    between atoms: C_11  and  C_13
REMARK                            x       y       z     vdW  Elec       q    Type
REMARK                         _______ _______ _______ _____ _____    ______ ____
ROOT
ATOM      1  C   UNL     1       2.919  -1.805   3.258  0.00  0.00    +0.000 A 
ATOM      2  C   UNL     1       3.663  -1.486   4.394  0.00  0.00    +0.000 A 
ATOM      3  C   UNL     1       4.028  -2.505   5.272  0.00  0.00    +0.000 A 
ATOM      4  C   UNL     1       3.652  -3.821   5.002  0.00  0.00    +0.000 A 
ATOM      5  C   UNL     1       2.899  -4.045   3.857  0.00  0.00    +0.000 A 
ATOM      6  N   UNL     1       2.526  -3.077   2.989  0.00  0.00    +0.000 NA
ENDROOT
BRANCH   1   7
ATOM      7  C   UNL     1       2.478  -0.720   2.290  0.00  0.00    +0.000 C 
BRANCH   7   8
ATOM      8  N   UNL     1       3.597  -0.034   1.637  0.00  0.00    +0.000 NA
ATOM      9  H   UNL     1       4.234   0.363   2.329  0.00  0.00    +0.000 HD
BRANCH   8  11
ATOM     10  C   UNL     1       2.359   0.551  -0.452  0.00  0.00    +0.000 C 
ATOM     11  C   UNL     1       3.192   1.054   0.732  0.00  0.00    +0.000 C 
BRANCH  11  12
ATOM     12  C   UNL     1       4.457   1.838   0.227  0.00  0.00    +0.000 C 
ATOM     13  C   UNL     1       5.424   0.947  -0.579  0.00  0.00    +0.000 C 
ATOM     14  C   UNL     1       6.636   1.734  -1.066  0.00  0.00    +0.000 C 
ATOM     15  C   UNL     1       7.308   2.458   0.093  0.00  0.00    +0.000 C 
ATOM     16  C   UNL     1       6.299   3.279   0.890  0.00  0.00    +0.000 C 
ATOM     17  N   UNL     1       5.181   2.457   1.366  0.00  0.00    +0.000 NA
ATOM     18  H   UNL     1       4.536   3.050   1.887  0.00  0.00    +0.000 HD
ENDBRANCH  11  12
ENDBRANCH   8  11
ENDBRANCH   7   8
ENDBRANCH   1   7
BRANCH   4  19
ATOM     19  C   UNL     1       3.977  -4.949   5.934  0.00  0.00    +0.000 C 
BRANCH  19  20
ATOM     20  N   UNL     1       2.927  -5.129   6.906  0.00  0.00    +0.000 N 
ATOM     21  C   UNL     1       3.043  -6.045   7.919  0.00  0.00    +0.000 C 
ATOM     22  O   UNL     1       4.061  -6.712   8.079  0.00  0.00    +0.000 OA
ATOM     23  H   UNL     1       2.010  -4.763   6.672  0.00  0.00    +0.000 HD
BRANCH  21  24
ATOM     24  C   UNL     1       1.906  -6.145   8.844  0.00  0.00    +0.000 A 
ATOM     25  C   UNL     1       2.106  -6.643  10.124  0.00  0.00    +0.000 A 
ATOM     26  S   UNL     1       0.696  -6.654  11.082  0.00  0.00    +0.000 S 
ATOM     27  C   UNL     1      -0.245  -6.040   9.805  0.00  0.00    +0.000 A 
ATOM     28  N   UNL     1      -1.579  -5.834   9.955  0.00  0.00    +0.000 NA
ATOM     29  C   UNL     1      -2.176  -5.396   8.896  0.00  0.00    +0.000 A 
ATOM     30  N   UNL     1      -1.554  -5.137   7.702  0.00  0.00    +0.000 N 
ATOM     31  C   UNL     1      -0.203  -5.298   7.513  0.00  0.00    +0.000 A 
ATOM     32  O   UNL     1       0.333  -5.011   6.448  0.00  0.00    +0.000 OA
ATOM     33  C   UNL     1       0.512  -5.810   8.667  0.00  0.00    +0.000 A 
ATOM     34  H   UNL     1      -2.078  -4.784   6.914  0.00  0.00    +0.000 HD
ENDBRANCH  21  24
ENDBRANCH  19  20
ENDBRANCH   4  19
TORSDOF 7
