REMARK  Name = 
REMARK  9 active torsions:
REMARK  status: ('A' for Active; 'I' for Inactive)
REMARK    1  A    between atoms: C_1  and  C_2
REMARK    2  A    between atoms: C_2  and  N_3
REMARK    3  A    between atoms: N_3  and  C_4
REMARK    4  A    between atoms: N_3  and  C_5
REMARK    5  A    between atoms: C_5  and  C_6
REMARK    6  A    between atoms: C_5  and  C_7
REMARK    7  A    between atoms: C_10  and  O_11
REMARK    8  A    between atoms: O_11  and  C_12
REMARK    9  A    between atoms: C_12  and  C_13
REMARK                            x       y       z     vdW  Elec       q    Type
REMARK                         _______ _______ _______ _____ _____    ______ ____
ROOT
ATOM      1  C   UNL     1       5.000  -2.628  -0.971  0.00  0.00    +0.000 A 
ATOM      2  C   UNL     1       5.974  -2.718  -1.974  0.00  0.00    +0.000 A 
ATOM      3  C   UNL     1       6.348  -3.973  -2.448  0.00  0.00    +0.000 A 
ATOM      4  C   UNL     1       5.738  -5.106  -1.915  0.00  0.00    +0.000 A 
ATOM      5  C   UNL     1       4.826  -4.923  -0.886  0.00  0.00    +0.000 A 
ATOM      6  N   UNL     1       4.435  -3.724  -0.416  0.00  0.00    +0.000 NA
ENDROOT
BRANCH   1   7
ATOM      7  C   UNL     1       4.542  -1.264  -0.446  0.00  0.00    +0.000 C 
ATOM      8  C   UNL     1       3.024  -1.185  -0.705  0.00  0.00    +0.000 C 
BRANCH   7   9
ATOM      9  N   UNL     1       4.896  -1.034   0.981  0.00  0.00    +0.000 NA
ATOM     10  C   UNL     1       6.321  -1.250   1.247  0.00  0.00    +0.000 C 
BRANCH   9  12
ATOM     11  C   UNL     1       5.147   1.493   0.932  0.00  0.00    +0.000 C 
ATOM     12  C   UNL     1       4.452   0.264   1.512  0.00  0.00    +0.000 C 
ENDBRANCH   9  12
ENDBRANCH   7   9
ENDBRANCH   1   7
BRANCH   4  13
ATOM     13  O   UNL     1       6.059  -6.328  -2.431  0.00  0.00    +0.000 OA
BRANCH  13  14
ATOM     14  C   UNL     1       5.025  -7.316  -2.271  0.00  0.00    +0.000 C 
BRANCH  14  15
ATOM     15  C   UNL     1       5.156  -8.362  -3.319  0.00  0.00    +0.000 A 
ATOM     16  C   UNL     1       6.380  -8.778  -3.810  0.00  0.00    +0.000 A 
ATOM     17  N   UNL     1       6.520  -9.724  -4.754  0.00  0.00    +0.000 NA
ATOM     18  C   UNL     1       5.379 -10.266  -5.206  0.00  0.00    +0.000 A 
ATOM     19  N   UNL     1       4.137  -9.965  -4.791  0.00  0.00    +0.000 NA
ATOM     20  C   UNL     1       4.061  -9.012  -3.846  0.00  0.00    +0.000 A 
ENDBRANCH  14  15
ENDBRANCH  13  14
ENDBRANCH   4  13
TORSDOF 6
