REMARK  Name = 
REMARK  6 active torsions:
REMARK  status: ('A' for Active; 'I' for Inactive)
REMARK    1  A    between atoms: C_2  and  C_4
REMARK    2  A    between atoms: C_7  and  N_8
REMARK    3  A    between atoms: N_8  and  C_9
REMARK    4  A    between atoms: C_9  and  C_10
REMARK    5  A    between atoms: C_12  and  C_13
REMARK    6  A    between atoms: C_20  and  N_21
REMARK                            x       y       z     vdW  Elec       q    Type
REMARK                         _______ _______ _______ _____ _____    ______ ____
ROOT
ATOM      1  C   UNL     1       6.145   6.830  -1.359  0.00  0.00    +0.000 A 
ATOM      2  C   UNL     1       5.745   8.183  -1.367  0.00  0.00    +0.000 A 
ATOM      3  C   UNL     1       6.615   9.234  -1.719  0.00  0.00    +0.000 A 
ATOM      4  C   UNL     1       7.920   8.883  -2.098  0.00  0.00    +0.000 A 
ATOM      5  C   UNL     1       8.329   7.539  -2.116  0.00  0.00    +0.000 A 
ATOM      6  C   UNL     1       7.450   6.511  -1.745  0.00  0.00    +0.000 A 
ENDROOT
BRANCH   3   7
ATOM      7  C   UNL     1       6.178  10.647  -1.666  0.00  0.00    +0.000 A 
ATOM      8  C   UNL     1       6.667  11.622  -2.549  0.00  0.00    +0.000 A 
ATOM      9  C   UNL     1       6.244  12.949  -2.453  0.00  0.00    +0.000 A 
ATOM     10  C   UNL     1       5.325  13.278  -1.474  0.00  0.00    +0.000 A 
ATOM     11  N   UNL     1       4.819  12.385  -0.602  0.00  0.00    +0.000 NA
ATOM     12  C   UNL     1       5.258  11.107  -0.718  0.00  0.00    +0.000 A 
ENDBRANCH   3   7
BRANCH   5  13
ATOM     13  N   UNL     1       9.704   7.214  -2.518  0.00  0.00    +0.000 N 
ATOM     14  O   UNL     1      10.455   8.150  -2.830  0.00  0.00    +0.000 OA
ATOM     15  O   UNL     1      10.033   6.019  -2.524  0.00  0.00    +0.000 OA
ENDBRANCH   5  13
BRANCH   1  16
ATOM     16  C   UNL     1       5.147   5.767  -0.940  0.00  0.00    +0.000 C 
BRANCH  16  17
ATOM     17  N   UNL     1       4.779   6.014   0.449  0.00  0.00    +0.000 N 
ATOM     18  H   UNL     1       5.495   5.697   1.096  0.00  0.00    +0.000 HD
BRANCH  17  22
ATOM     19  C   UNL     1       1.010   4.990   1.729  0.00  0.00    +0.000 A 
ATOM     20  C   UNL     1       1.414   4.715   0.433  0.00  0.00    +0.000 A 
ATOM     21  N   UNL     1       2.664   5.006  -0.024  0.00  0.00    +0.000 NA
ATOM     22  C   UNL     1       3.512   5.581   0.854  0.00  0.00    +0.000 A 
ATOM     23  C   UNL     1       3.082   5.842   2.165  0.00  0.00    +0.000 A 
ATOM     24  N   UNL     1       1.841   5.559   2.643  0.00  0.00    +0.000 NA
BRANCH  19  26
ATOM     25  N   UNL     1      -0.717   5.070   3.426  0.00  0.00    +0.000 N 
ATOM     26  C   UNL     1      -0.387   4.692   2.153  0.00  0.00    +0.000 C 
ATOM     27  O   UNL     1      -1.195   4.156   1.407  0.00  0.00    +0.000 OA
ATOM     28  H   UNL     1      -1.662   4.935   3.755  0.00  0.00    +0.000 HD
ATOM     29  H   UNL     1      -0.040   5.555   4.004  0.00  0.00    +0.000 HD
ENDBRANCH  19  26
ENDBRANCH  17  22
ENDBRANCH  16  17
ENDBRANCH   1  16
TORSDOF 6
