REMARK  Name = 
REMARK  7 active torsions:
REMARK  status: ('A' for Active; 'I' for Inactive)
REMARK    1  A    between atoms: C_2  and  C_4
REMARK    2  A    between atoms: C_7  and  C_8
REMARK    3  A    between atoms: C_8  and  C_9
REMARK    4  A    between atoms: C_9  and  O_10
REMARK    5  A    between atoms: O_10  and  C_11
REMARK    6  A    between atoms: C_15  and  O_16
REMARK    7  A    between atoms: O_16  and  C_17
REMARK                            x       y       z     vdW  Elec       q    Type
REMARK                         _______ _______ _______ _____ _____    ______ ____
ROOT
ATOM      1  C   UNL     1       4.954  -3.522  -4.758  0.00  0.00    +0.000 C 
ENDROOT
BRANCH   1   2
ATOM      2  C   UNL     1       5.257  -3.660  -3.269  0.00  0.00    +0.000 C 
BRANCH   2   6
ATOM      3  C   UNL     1       3.535  -7.078  -1.425  0.00  0.00    +0.000 A 
ATOM      4  C   UNL     1       4.829  -7.174  -1.934  0.00  0.00    +0.000 A 
ATOM      5  C   UNL     1       5.395  -6.066  -2.560  0.00  0.00    +0.000 A 
ATOM      6  C   UNL     1       4.652  -4.890  -2.654  0.00  0.00    +0.000 A 
ATOM      7  N   UNL     1       3.382  -4.788  -2.191  0.00  0.00    +0.000 NA
ATOM      8  C   UNL     1       2.848  -5.885  -1.599  0.00  0.00    +0.000 A 
BRANCH   3  10
ATOM      9  N   UNL     1       3.683  -9.057  -0.032  0.00  0.00    +0.000 N 
ATOM     10  C   UNL     1       2.872  -8.188  -0.714  0.00  0.00    +0.000 C 
ATOM     11  O   UNL     1       1.659  -8.304  -0.692  0.00  0.00    +0.000 OA
ATOM     12  H   UNL     1       3.219  -9.749   0.543  0.00  0.00    +0.000 HD
ATOM     13  H   UNL     1       4.649  -8.847   0.175  0.00  0.00    +0.000 HD
ENDBRANCH   3  10
ENDBRANCH   2   6
ENDBRANCH   1   2
BRANCH   1  14
ATOM     14  O   UNL     1       5.562  -4.583  -5.509  0.00  0.00    +0.000 OA
BRANCH  14  15
ATOM     15  C   UNL     1       5.332  -4.526  -6.863  0.00  0.00    +0.000 A 
ATOM     16  C   UNL     1       5.180  -3.341  -7.582  0.00  0.00    +0.000 A 
ATOM     17  C   UNL     1       4.983  -3.375  -8.964  0.00  0.00    +0.000 A 
ATOM     18  C   UNL     1       4.939  -4.595  -9.640  0.00  0.00    +0.000 A 
ATOM     19  C   UNL     1       5.091  -5.784  -8.929  0.00  0.00    +0.000 A 
ATOM     20  C   UNL     1       5.304  -5.745  -7.546  0.00  0.00    +0.000 A 
BRANCH  19  21
ATOM     21  O   UNL     1       5.087  -7.035  -9.499  0.00  0.00    +0.000 OA
BRANCH  21  22
ATOM     22  C   UNL     1       4.413  -7.229 -10.766  0.00  0.00    +0.000 C 
ATOM     23  C   UNL     1       2.870  -7.132 -10.764  0.00  0.00    +0.000 C 
ATOM     24  C   UNL     1       2.794  -8.460 -11.529  0.00  0.00    +0.000 C 
ATOM     25  C   UNL     1       4.267  -8.713 -11.188  0.00  0.00    +0.000 C 
ENDBRANCH  21  22
ENDBRANCH  19  21
ENDBRANCH  14  15
ENDBRANCH   1  14
TORSDOF 7
