REMARK  Name = 
REMARK  5 active torsions:
REMARK  status: ('A' for Active; 'I' for Inactive)
REMARK    1  A    between atoms: C_1  and  C_2
REMARK    2  A    between atoms: C_2  and  C_3
REMARK    3  A    between atoms: C_7  and  C_8
REMARK    4  A    between atoms: C_8  and  C_9
REMARK    5  A    between atoms: C_9  and  N_10
REMARK                            x       y       z     vdW  Elec       q    Type
REMARK                         _______ _______ _______ _____ _____    ______ ____
ROOT
ATOM      1  C   UNL     1       3.006   0.063   1.513  0.00  0.00    +0.000 A 
ATOM      2  C   UNL     1       2.759   1.168   2.347  0.00  0.00    +0.000 A 
ATOM      3  C   UNL     1       3.173   1.166   3.681  0.00  0.00    +0.000 A 
ATOM      4  C   UNL     1       3.819   0.051   4.215  0.00  0.00    +0.000 A 
ATOM      5  C   UNL     1       4.050  -1.078   3.420  0.00  0.00    +0.000 A 
ATOM      6  C   UNL     1       3.672  -1.047   2.068  0.00  0.00    +0.000 A 
ENDROOT
BRANCH   1   8
ATOM      7  C   UNL     1       0.980   0.130   0.019  0.00  0.00    +0.000 C 
ATOM      8  C   UNL     1       2.515   0.056   0.063  0.00  0.00    +0.000 C 
ATOM      9  C   UNL     1       3.139   1.160  -0.753  0.00  0.00    +0.000 C 
ATOM     10  C   UNL     1       3.825   0.696  -1.796  0.00  0.00    +0.000 C 
ATOM     11  C   UNL     1       3.631  -0.740  -1.669  0.00  0.00    +0.000 C 
ATOM     12  N   UNL     1       2.913  -1.177  -0.683  0.00  0.00    +0.000 NA
ENDBRANCH   1   8
BRANCH   5  13
ATOM     13  C   UNL     1       4.669  -2.326   4.010  0.00  0.00    +0.000 C 
BRANCH  13  14
ATOM     14  C   UNL     1       6.196  -2.323   3.927  0.00  0.00    +0.000 C 
BRANCH  14  15
ATOM     15  N   UNL     1       6.762  -3.565   4.481  0.00  0.00    +0.000 N 
ATOM     16  C   UNL     1       8.170  -3.581   4.425  0.00  0.00    +0.000 A 
ATOM     17  C   UNL     1       8.856  -4.688   4.911  0.00  0.00    +0.000 A 
ATOM     18  C   UNL     1      10.257  -4.700   4.876  0.00  0.00    +0.000 A 
ATOM     19  C   UNL     1      10.929  -3.606   4.354  0.00  0.00    +0.000 A 
ATOM     20 CL   UNL     1      12.642  -3.568   4.280  0.00  0.00    +0.000 Cl
ATOM     21  C   UNL     1      10.177  -2.543   3.899  0.00  0.00    +0.000 A 
ATOM     22  N   UNL     1       8.826  -2.510   3.929  0.00  0.00    +0.000 NA
ATOM     23  H   UNL     1       6.412  -4.394   4.008  0.00  0.00    +0.000 HD
ENDBRANCH  14  15
ENDBRANCH  13  14
ENDBRANCH   5  13
TORSDOF 4
