REMARK  Name = 
REMARK  6 active torsions:
REMARK  status: ('A' for Active; 'I' for Inactive)
REMARK    1  A    between atoms: N_1  and  C_2
REMARK    2  A    between atoms: C_2  and  C_3
REMARK    3  A    between atoms: C_3  and  C_4
REMARK    4  A    between atoms: N_7  and  C_8
REMARK    5  A    between atoms: C_8  and  C_9
REMARK    6  A    between atoms: C_15  and  C_16
REMARK                            x       y       z     vdW  Elec       q    Type
REMARK                         _______ _______ _______ _____ _____    ______ ____
ROOT
ATOM      1  C   UNL     1       5.301  -5.704   1.559  0.00  0.00    +0.000 A 
ATOM      2  N   UNL     1       4.497  -6.764   1.380  0.00  0.00    +0.000 NA
ATOM      3  O   UNL     1       5.338  -7.820   1.050  0.00  0.00    +0.000 OA
ATOM      4  C   UNL     1       6.633  -7.391   1.027  0.00  0.00    +0.000 A 
ATOM      5  N   UNL     1       7.690  -8.174   0.742  0.00  0.00    +0.000 NA
ATOM      6  C   UNL     1       8.865  -7.487   0.748  0.00  0.00    +0.000 A 
ATOM      7  C   UNL     1       9.023  -6.125   1.017  0.00  0.00    +0.000 A 
ATOM      8  C   UNL     1       7.890  -5.374   1.340  0.00  0.00    +0.000 A 
ATOM      9  C   UNL     1       6.657  -6.043   1.339  0.00  0.00    +0.000 A 
ENDROOT
BRANCH   7  10
ATOM     10  C   UNL     1      10.376  -5.531   0.919  0.00  0.00    +0.000 C 
ATOM     11  N   UNL     1      10.528  -4.198   1.166  0.00  0.00    +0.000 N 
ATOM     12  O   UNL     1      11.345  -6.218   0.609  0.00  0.00    +0.000 OA
ATOM     13  H   UNL     1       9.791  -3.552   1.403  0.00  0.00    +0.000 HD
ATOM     14  H   UNL     1      11.460  -3.815   1.055  0.00  0.00    +0.000 HD
ENDBRANCH   7  10
BRANCH   1  15
ATOM     15  C   UNL     1       4.731  -4.366   1.919  0.00  0.00    +0.000 C 
BRANCH  15  19
ATOM     16  C   UNL     1       4.385  -1.127  -0.906  0.00  0.00    +0.000 C 
ATOM     17  C   UNL     1       4.890  -2.490  -1.400  0.00  0.00    +0.000 C 
ATOM     18  C   UNL     1       4.631  -3.610  -0.388  0.00  0.00    +0.000 C 
ATOM     19  N   UNL     1       5.156  -3.313   0.961  0.00  0.00    +0.000 NA
ATOM     20  C   UNL     1       4.693  -2.002   1.451  0.00  0.00    +0.000 C 
ATOM     21  C   UNL     1       5.024  -0.878   0.466  0.00  0.00    +0.000 C 
BRANCH  16  22
ATOM     22  C   UNL     1       2.838  -1.077  -0.899  0.00  0.00    +0.000 C 
BRANCH  22  23
ATOM     23  C   UNL     1       2.263   0.257  -0.419  0.00  0.00    +0.000 C 
BRANCH  23  24
ATOM     24  N   UNL     1       0.805   0.214  -0.452  0.00  0.00    +0.000 NA
ATOM     25  H   UNL     1       0.431   1.084  -0.074  0.00  0.00    +0.000 HD
ATOM     26  H   UNL     1       0.465  -0.528   0.159  0.00  0.00    +0.000 HD
ENDBRANCH  23  24
ENDBRANCH  22  23
ENDBRANCH  16  22
ENDBRANCH  15  19
ENDBRANCH   1  15
TORSDOF 6
