REMARK  Name = 
REMARK  9 active torsions:
REMARK  status: ('A' for Active; 'I' for Inactive)
REMARK    1  A    between atoms: C_1  and  O_2
REMARK    2  A    between atoms: O_2  and  C_3
REMARK    3  A    between atoms: C_6  and  C_7
REMARK    4  A    between atoms: C_7  and  N_8
REMARK    5  A    between atoms: N_8  and  C_9
REMARK    6  A    between atoms: C_12  and  C_13
REMARK    7  A    between atoms: C_17  and  C_18
REMARK    8  A    between atoms: C_22  and  C_23
REMARK    9  A    between atoms: C_27  and  C_28
REMARK                            x       y       z     vdW  Elec       q    Type
REMARK                         _______ _______ _______ _____ _____    ______ ____
ROOT
ATOM      1  C   UNL     1       3.050   0.548  -0.917  0.00  0.00    +0.000 A 
ATOM      2  C   UNL     1       2.702   1.837  -1.330  0.00  0.00    +0.000 A 
ATOM      3  C   UNL     1       3.393   2.464  -2.373  0.00  0.00    +0.000 A 
ATOM      4  C   UNL     1       4.494   1.861  -2.992  0.00  0.00    +0.000 A 
ATOM      5  C   UNL     1       4.892   0.614  -2.480  0.00  0.00    +0.000 A 
ATOM      6  C   UNL     1       4.152  -0.104  -1.512  0.00  0.00    +0.000 A 
ENDROOT
BRANCH   6   7
ATOM      7  C   UNL     1       4.465  -1.544  -1.297  0.00  0.00    +0.000 A 
ATOM      8  C   UNL     1       4.397  -2.166  -0.042  0.00  0.00    +0.000 A 
ATOM      9  C   UNL     1       4.593  -3.545   0.099  0.00  0.00    +0.000 A 
ATOM     10  C   UNL     1       4.882  -4.331  -1.014  0.00  0.00    +0.000 A 
ATOM     11  C   UNL     1       4.971  -3.741  -2.275  0.00  0.00    +0.000 A 
ATOM     12  C   UNL     1       4.776  -2.362  -2.407  0.00  0.00    +0.000 A 
BRANCH  11  13
ATOM     13  C   UNL     1       5.267  -4.609  -3.445  0.00  0.00    +0.000 C 
ATOM     14  N   UNL     1       4.880  -4.163  -4.682  0.00  0.00    +0.000 N 
ATOM     15  O   UNL     1       5.807  -5.701  -3.321  0.00  0.00    +0.000 OA
ATOM     16  H   UNL     1       4.213  -3.417  -4.802  0.00  0.00    +0.000 HD
ATOM     17  H   UNL     1       4.980  -4.826  -5.440  0.00  0.00    +0.000 HD
ENDBRANCH  11  13
ENDBRANCH   6   7
BRANCH   4  18
ATOM     18  C   UNL     1       5.180   2.452  -4.229  0.00  0.00    +0.000 C 
ATOM     19  C   UNL     1       4.391   2.487  -5.526  0.00  0.00    +0.000 C 
ATOM     20  C   UNL     1       5.474   1.476  -5.373  0.00  0.00    +0.000 C 
BRANCH  18  21
ATOM     21  N   UNL     1       6.246   3.430  -3.948  0.00  0.00    +0.000 N 
ATOM     22  H   UNL     1       7.194   3.138  -4.162  0.00  0.00    +0.000 HD
BRANCH  21  23
ATOM     23  C   UNL     1       6.066   4.820  -3.845  0.00  0.00    +0.000 A 
ATOM     24  C   UNL     1       4.827   5.444  -3.905  0.00  0.00    +0.000 A 
ATOM     25  N   UNL     1       4.602   6.763  -3.721  0.00  0.00    +0.000 NA
ATOM     26  C   UNL     1       5.690   7.495  -3.448  0.00  0.00    +0.000 A 
ATOM     27  N   UNL     1       6.955   7.026  -3.355  0.00  0.00    +0.000 NA
ATOM     28  C   UNL     1       7.119   5.695  -3.557  0.00  0.00    +0.000 A 
ATOM     29  C   UNL     1       8.539   5.210  -3.453  0.00  0.00    +0.000 C 
BRANCH  26  30
ATOM     30  C   UNL     1       5.509   8.983  -3.232  0.00  0.00    +0.000 C 
ATOM     31  N   UNL     1       6.651   9.681  -2.916  0.00  0.00    +0.000 N 
ATOM     32  O   UNL     1       4.427   9.559  -3.315  0.00  0.00    +0.000 OA
ATOM     33  H   UNL     1       7.538   9.198  -2.837  0.00  0.00    +0.000 HD
ATOM     34  H   UNL     1       6.591  10.678  -2.762  0.00  0.00    +0.000 HD
ENDBRANCH  26  30
ENDBRANCH  21  23
ENDBRANCH  18  21
ENDBRANCH   4  18
BRANCH   1  36
ATOM     35  C   UNL     1       0.996   0.192   0.246  0.00  0.00    +0.000 C 
ATOM     36  O   UNL     1       2.371  -0.122   0.069  0.00  0.00    +0.000 OA
ENDBRANCH   1  36
TORSDOF 7
