REMARK  Name = 
REMARK  7 active torsions:
REMARK  status: ('A' for Active; 'I' for Inactive)
REMARK    1  A    between atoms: C_2  and  C_3
REMARK    2  A    between atoms: C_2  and  C_25
REMARK    3  A    between atoms: C_3  and  O_4
REMARK    4  A    between atoms: O_4  and  C_5
REMARK    5  A    between atoms: C_8  and  C_9
REMARK    6  A    between atoms: C_9  and  N_10
REMARK    7  A    between atoms: C_11  and  C_13
REMARK                            x       y       z     vdW  Elec       q    Type
REMARK                         _______ _______ _______ _____ _____    ______ ____
ROOT
ATOM      1  C   UNL     1       2.541  -1.369   3.492  0.00  0.00    +0.000 A 
ATOM      2  C   UNL     1       3.557  -0.663   4.115  0.00  0.00    +0.000 A 
ATOM      3  C   UNL     1       3.960  -1.064   5.385  0.00  0.00    +0.000 A 
ATOM      4  C   UNL     1       3.310  -2.132   6.010  0.00  0.00    +0.000 A 
ATOM      5  C   UNL     1       2.297  -2.769   5.296  0.00  0.00    +0.000 A 
ATOM      6  N   UNL     1       1.897  -2.414   4.051  0.00  0.00    +0.000 NA
ENDROOT
BRANCH   1   7
ATOM      7  O   UNL     1       2.181  -0.936   2.236  0.00  0.00    +0.000 OA
BRANCH   7   8
ATOM      8  C   UNL     1       1.548  -1.948   1.453  0.00  0.00    +0.000 C 
BRANCH   8  10
ATOM      9  O   UNL     1       2.085  -0.445  -0.385  0.00  0.00    +0.000 OA
ATOM     10  C   UNL     1       1.648  -1.530  -0.008  0.00  0.00    +0.000 C 
BRANCH  10  11
ATOM     11  C   UNL     1       1.213  -2.517  -1.018  0.00  0.00    +0.000 A 
ATOM     12  C   UNL     1       1.402  -2.247  -2.369  0.00  0.00    +0.000 A 
ATOM     13  N   UNL     1       1.046  -3.123  -3.345  0.00  0.00    +0.000 NA
ATOM     14  C   UNL     1       0.489  -4.276  -2.910  0.00  0.00    +0.000 A 
ATOM     15  C   UNL     1       0.297  -4.545  -1.563  0.00  0.00    +0.000 A 
ATOM     16  N   UNL     1       0.655  -3.678  -0.585  0.00  0.00    +0.000 NA
ENDBRANCH  10  11
ENDBRANCH   8  10
ENDBRANCH   7   8
ENDBRANCH   1   7
BRANCH   4  17
ATOM     17  C   UNL     1       3.704  -2.596   7.381  0.00  0.00    +0.000 C 
BRANCH  17  18
ATOM     18  N   UNL     1       4.717  -3.618   7.321  0.00  0.00    +0.000 N 
ATOM     19  C   UNL     1       5.102  -4.299   8.450  0.00  0.00    +0.000 C 
ATOM     20  O   UNL     1       4.558  -4.109   9.535  0.00  0.00    +0.000 OA
ATOM     21  H   UNL     1       5.334  -3.616   6.513  0.00  0.00    +0.000 HD
BRANCH  19  22
ATOM     22  C   UNL     1       6.153  -5.310   8.287  0.00  0.00    +0.000 A 
ATOM     23  C   UNL     1       6.268  -6.337   9.213  0.00  0.00    +0.000 A 
ATOM     24  S   UNL     1       7.502  -7.455   8.849  0.00  0.00    +0.000 S 
ATOM     25  C   UNL     1       7.964  -6.577   7.467  0.00  0.00    +0.000 A 
ATOM     26  N   UNL     1       9.004  -6.988   6.693  0.00  0.00    +0.000 NA
ATOM     27  C   UNL     1       9.269  -6.209   5.698  0.00  0.00    +0.000 A 
ATOM     28  N   UNL     1       8.582  -5.060   5.402  0.00  0.00    +0.000 N 
ATOM     29  C   UNL     1       7.504  -4.624   6.135  0.00  0.00    +0.000 A 
ATOM     30  O   UNL     1       6.881  -3.616   5.817  0.00  0.00    +0.000 OA
ATOM     31  C   UNL     1       7.174  -5.457   7.276  0.00  0.00    +0.000 A 
ATOM     32  H   UNL     1       8.836  -4.499   4.602  0.00  0.00    +0.000 HD
ENDBRANCH  19  22
ENDBRANCH  17  18
ENDBRANCH   4  17
TORSDOF 7
