REMARK  Name = 
REMARK  9 active torsions:
REMARK  status: ('A' for Active; 'I' for Inactive)
REMARK    1  A    between atoms: C_1  and  O_2
REMARK    2  A    between atoms: O_2  and  C_3
REMARK    3  A    between atoms: C_5  and  C_6
REMARK    4  A    between atoms: C_6  and  O_7
REMARK    5  A    between atoms: O_7  and  C_8
REMARK    6  A    between atoms: C_11  and  C_12
REMARK    7  A    between atoms: C_12  and  N_13
REMARK    8  A    between atoms: C_14  and  C_16
REMARK    9  A    between atoms: C_27  and  C_28
REMARK                            x       y       z     vdW  Elec       q    Type
REMARK                         _______ _______ _______ _____ _____    ______ ____
ROOT
ATOM      1  C   UNL     1       3.477   7.276  -0.679  0.00  0.00    +0.000 A 
ATOM      2  N   UNL     1       3.383   8.076  -1.766  0.00  0.00    +0.000 NA
ATOM      3  C   UNL     1       3.094   9.376  -1.551  0.00  0.00    +0.000 A 
ATOM      4  C   UNL     1       2.896   9.930  -0.295  0.00  0.00    +0.000 A 
ATOM      5  C   UNL     1       2.935   9.066   0.801  0.00  0.00    +0.000 A 
ATOM      6  C   UNL     1       3.242   7.711   0.623  0.00  0.00    +0.000 A 
ATOM      7  C   UNL     1       3.308   6.791   1.803  0.00  0.00    +0.000 C 
ENDROOT
BRANCH   1   8
ATOM      8  O   UNL     1       3.807   5.951  -0.885  0.00  0.00    +0.000 OA
BRANCH   8   9
ATOM      9  C   UNL     1       4.588   5.801  -2.078  0.00  0.00    +0.000 C 
BRANCH   9  12
ATOM     10  C   UNL     1       4.478   2.146  -2.818  0.00  0.00    +0.000 A 
ATOM     11  C   UNL     1       4.017   3.424  -2.620  0.00  0.00    +0.000 A 
ATOM     12  C   UNL     1       4.973   4.354  -2.273  0.00  0.00    +0.000 A 
ATOM     13  N   UNL     1       6.278   4.023  -2.130  0.00  0.00    +0.000 NA
ATOM     14  C   UNL     1       6.609   2.744  -2.321  0.00  0.00    +0.000 A 
ATOM     15  N   UNL     1       7.934   2.396  -2.169  0.00  0.00    +0.000 N 
ATOM     16  N   UNL     1       5.764   1.784  -2.691  0.00  0.00    +0.000 NA
ATOM     17  H   UNL     1       8.521   3.205  -2.314  0.00  0.00    +0.000 HD
ATOM     18  H   UNL     1       8.136   1.566  -2.708  0.00  0.00    +0.000 HD
BRANCH  10  20
ATOM     19  C   UNL     1       4.082  -0.103  -3.329  0.00  0.00    +0.000 C 
ATOM     20  O   UNL     1       3.531   1.202  -3.170  0.00  0.00    +0.000 OA
ENDBRANCH  10  20
ENDBRANCH   9  12
ENDBRANCH   8   9
ENDBRANCH   1   8
BRANCH   4  21
ATOM     21  C   UNL     1       2.655  11.399  -0.133  0.00  0.00    +0.000 C 
BRANCH  21  22
ATOM     22  N   UNL     1       1.260  11.731  -0.252  0.00  0.00    +0.000 N 
ATOM     23  C   UNL     1       0.471  11.974   0.839  0.00  0.00    +0.000 C 
ATOM     24  O   UNL     1       0.906  11.906   1.986  0.00  0.00    +0.000 OA
ATOM     25  H   UNL     1       0.839  11.647  -1.172  0.00  0.00    +0.000 HD
BRANCH  23  26
ATOM     26  C   UNL     1      -0.913  12.387   0.572  0.00  0.00    +0.000 A 
ATOM     27  C   UNL     1      -1.625  13.051   1.562  0.00  0.00    +0.000 A 
ATOM     28  S   UNL     1      -3.207  13.482   1.099  0.00  0.00    +0.000 S 
ATOM     29  C   UNL     1      -3.013  12.759  -0.429  0.00  0.00    +0.000 A 
ATOM     30  N   UNL     1      -4.035  12.745  -1.326  0.00  0.00    +0.000 NA
ATOM     31  C   UNL     1      -3.769  12.135  -2.431  0.00  0.00    +0.000 A 
ATOM     32  N   UNL     1      -2.564  11.548  -2.729  0.00  0.00    +0.000 N 
ATOM     33  C   UNL     1      -1.480  11.597  -1.878  0.00  0.00    +0.000 A 
ATOM     34  O   UNL     1      -0.381  11.174  -2.222  0.00  0.00    +0.000 OA
ATOM     35  C   UNL     1      -1.746  12.225  -0.599  0.00  0.00    +0.000 A 
ATOM     36  H   UNL     1      -2.409  11.115  -3.627  0.00  0.00    +0.000 HD
ENDBRANCH  23  26
ENDBRANCH  21  22
ENDBRANCH   4  21
TORSDOF 7
