REMARK  Name = 
REMARK  7 active torsions:
REMARK  status: ('A' for Active; 'I' for Inactive)
REMARK    1  A    between atoms: C_2  and  C_20
REMARK    2  A    between atoms: N_3  and  C_4
REMARK    3  A    between atoms: C_4  and  C_5
REMARK    4  A    between atoms: C_8  and  C_9
REMARK    5  A    between atoms: C_9  and  C_10
REMARK    6  A    between atoms: C_10  and  O_11
REMARK    7  A    between atoms: C_10  and  C_12
REMARK                            x       y       z     vdW  Elec       q    Type
REMARK                         _______ _______ _______ _____ _____    ______ ____
ROOT
ATOM      1  C   UNL     1       2.380   1.155  -2.139  0.00  0.00    +0.000 C 
ENDROOT
BRANCH   1   2
ATOM      2  C   UNL     1       3.312   1.658  -3.206  0.00  0.00    +0.000 A 
ATOM      3  C   UNL     1       4.096   0.770  -3.933  0.00  0.00    +0.000 A 
ATOM      4  N   UNL     1       4.933   1.164  -4.921  0.00  0.00    +0.000 NA
ATOM      5  C   UNL     1       4.962   2.495  -5.183  0.00  0.00    +0.000 A 
ATOM      6  C   UNL     1       4.167   3.382  -4.465  0.00  0.00    +0.000 A 
ATOM      7  N   UNL     1       3.332   2.991  -3.472  0.00  0.00    +0.000 NA
BRANCH   5   8
ATOM      8  C   UNL     1       5.845   2.948  -6.315  0.00  0.00    +0.000 C 
BRANCH   8   9
ATOM      9  C   UNL     1       6.933   3.952  -5.896  0.00  0.00    +0.000 C 
BRANCH   9  10
ATOM     10  C   UNL     1       7.773   4.423  -7.059  0.00  0.00    +0.000 A 
ATOM     11  C   UNL     1       8.538   3.551  -7.843  0.00  0.00    +0.000 A 
ATOM     12  C   UNL     1       9.321   4.054  -8.880  0.00  0.00    +0.000 A 
ATOM     13  C   UNL     1       9.310   5.419  -9.109  0.00  0.00    +0.000 A 
ATOM     14  N   UNL     1       8.577   6.292  -8.387  0.00  0.00    +0.000 NA
ATOM     15  C   UNL     1       7.837   5.777  -7.379  0.00  0.00    +0.000 A 
ENDBRANCH   9  10
BRANCH   9  16
ATOM     16  O   UNL     1       7.812   3.402  -4.916  0.00  0.00    +0.000 OA
ATOM     17  H   UNL     1       8.119   2.536  -5.234  0.00  0.00    +0.000 HD
ENDBRANCH   9  16
ENDBRANCH   8   9
ENDBRANCH   5   8
ENDBRANCH   1   2
BRANCH   1  20
ATOM     18  O   UNL     1       1.587  -1.310  -3.249  0.00  0.00    +0.000 OA
ATOM     19  C   UNL     1       0.759  -0.412  -3.152  0.00  0.00    +0.000 C 
ATOM     20  N   UNL     1       1.077   0.826  -2.664  0.00  0.00    +0.000 N 
ATOM     21  H   UNL     1       0.363   1.537  -2.563  0.00  0.00    +0.000 HD
BRANCH  19  22
ATOM     22  C   UNL     1      -0.628  -0.583  -3.594  0.00  0.00    +0.000 A 
ATOM     23  C   UNL     1      -0.947  -1.531  -4.556  0.00  0.00    +0.000 A 
ATOM     24  S   UNL     1      -2.606  -1.567  -4.950  0.00  0.00    +0.000 S 
ATOM     25  C   UNL     1      -2.960  -0.347  -3.816  0.00  0.00    +0.000 A 
ATOM     26  N   UNL     1      -4.235   0.091  -3.630  0.00  0.00    +0.000 NA
ATOM     27  C   UNL     1      -4.361   0.989  -2.710  0.00  0.00    +0.000 A 
ATOM     28  N   UNL     1      -3.329   1.493  -1.963  0.00  0.00    +0.000 N 
ATOM     29  C   UNL     1      -2.019   1.122  -2.152  0.00  0.00    +0.000 A 
ATOM     30  O   UNL     1      -1.114   1.669  -1.530  0.00  0.00    +0.000 OA
ATOM     31  C   UNL     1      -1.827   0.094  -3.158  0.00  0.00    +0.000 A 
ATOM     32  H   UNL     1      -3.490   2.211  -1.271  0.00  0.00    +0.000 HD
ENDBRANCH  19  22
ENDBRANCH   1  20
TORSDOF 7
