REMARK  Name = 
REMARK  10 active torsions:
REMARK  status: ('A' for Active; 'I' for Inactive)
REMARK    1  A    between atoms: N_1  and  C_2
REMARK    2  A    between atoms: C_2  and  C_3
REMARK    3  A    between atoms: C_3  and  C_4
REMARK    4  A    between atoms: C_4  and  C_5
REMARK    5  A    between atoms: C_5  and  N_6
REMARK    6  A    between atoms: N_6  and  C_7
REMARK    7  A    between atoms: C_7  and  C_8
REMARK    8  A    between atoms: C_11  and  O_12
REMARK    9  A    between atoms: O_12  and  C_13
REMARK   10  A    between atoms: C_13  and  C_14
REMARK                            x       y       z     vdW  Elec       q    Type
REMARK                         _______ _______ _______ _____ _____    ______ ____
ROOT
ATOM      1  C   UNL     1       8.425  -3.843   1.556  0.00  0.00    +0.000 A 
ATOM      2  C   UNL     1       9.119  -2.732   1.056  0.00  0.00    +0.000 A 
ATOM      3  C   UNL     1      10.512  -2.669   1.130  0.00  0.00    +0.000 A 
ATOM      4  C   UNL     1      11.229  -3.715   1.712  0.00  0.00    +0.000 A 
ATOM      5  C   UNL     1      10.548  -4.839   2.179  0.00  0.00    +0.000 A 
ATOM      6  C   UNL     1       9.155  -4.901   2.112  0.00  0.00    +0.000 A 
ENDROOT
BRANCH   1   7
ATOM      7  C   UNL     1       6.920  -3.912   1.473  0.00  0.00    +0.000 C 
BRANCH   7   8
ATOM      8  N   UNL     1       6.399  -3.818   0.106  0.00  0.00    +0.000 NA
ATOM      9  H   UNL     1       5.382  -3.826   0.149  0.00  0.00    +0.000 HD
BRANCH   8  10
ATOM     10  C   UNL     1       6.852  -4.928  -0.735  0.00  0.00    +0.000 C 
BRANCH  10  11
ATOM     11  C   UNL     1       6.262  -4.767  -2.135  0.00  0.00    +0.000 C 
BRANCH  11  12
ATOM     12  C   UNL     1       6.738  -5.889  -3.057  0.00  0.00    +0.000 C 
BRANCH  12  13
ATOM     13  C   UNL     1       6.153  -5.729  -4.456  0.00  0.00    +0.000 C 
BRANCH  13  14
ATOM     14  N   UNL     1       6.614  -6.810  -5.316  0.00  0.00    +0.000 NA
ATOM     15  H   UNL     1       6.179  -6.722  -6.233  0.00  0.00    +0.000 HD
ATOM     16  H   UNL     1       6.308  -7.706  -4.938  0.00  0.00    +0.000 HD
ENDBRANCH  13  14
ENDBRANCH  12  13
ENDBRANCH  11  12
ENDBRANCH  10  11
ENDBRANCH   8  10
ENDBRANCH   7   8
ENDBRANCH   1   7
BRANCH   4  17
ATOM     17  O   UNL     1      12.591  -3.766   1.826  0.00  0.00    +0.000 OA
BRANCH  17  18
ATOM     18  C   UNL     1      13.231  -2.498   2.011  0.00  0.00    +0.000 C 
BRANCH  18  19
ATOM     19  C   UNL     1      14.720  -2.701   2.183  0.00  0.00    +0.000 A 
ATOM     20  N   UNL     1      15.483  -2.665   1.069  0.00  0.00    +0.000 NA
ATOM     21  C   UNL     1      16.805  -2.850   1.238  0.00  0.00    +0.000 A 
ATOM     22  C   UNL     1      17.389  -3.059   2.463  0.00  0.00    +0.000 A 
ATOM     23  C   UNL     1      16.532  -3.072   3.536  0.00  0.00    +0.000 A 
ATOM     24  N   UNL     1      15.201  -2.893   3.429  0.00  0.00    +0.000 NA
ENDBRANCH  18  19
ENDBRANCH  17  18
ENDBRANCH   4  17
TORSDOF 10
