REMARK  Name = 
REMARK  5 active torsions:
REMARK  status: ('A' for Active; 'I' for Inactive)
REMARK    1  A    between atoms: C_2  and  C_4
REMARK    2  A    between atoms: C_6  and  S_7
REMARK    3  A    between atoms: S_7  and  C_8
REMARK    4  A    between atoms: C_8  and  C_9
REMARK    5  A    between atoms: C_13  and  C_14
REMARK                            x       y       z     vdW  Elec       q    Type
REMARK                         _______ _______ _______ _____ _____    ______ ____
ROOT
ATOM      1  C   UNL     1       1.404   5.007  -1.698  0.00  0.00    +0.000 C 
ENDROOT
BRANCH   1   2
ATOM      2  C   UNL     1       0.866   6.387  -2.007  0.00  0.00    +0.000 A 
ATOM      3  C   UNL     1      -0.313   6.582  -2.720  0.00  0.00    +0.000 A 
ATOM      4  C   UNL     1      -0.731   7.876  -2.992  0.00  0.00    +0.000 A 
ATOM      5  C   UNL     1       0.013   8.947  -2.507  0.00  0.00    +0.000 A 
ATOM      6  C   UNL     1       1.159   8.702  -1.756  0.00  0.00    +0.000 A 
ATOM      7  N   UNL     1       1.580   7.433  -1.508  0.00  0.00    +0.000 NA
BRANCH   6   8
ATOM      8  C   UNL     1       1.963   9.782  -1.161  0.00  0.00    +0.000 A 
ATOM      9  C   UNL     1       2.074  11.058  -1.737  0.00  0.00    +0.000 A 
ATOM     10  C   UNL     1       2.819  12.060  -1.116  0.00  0.00    +0.000 A 
ATOM     11  C   UNL     1       3.449  11.765   0.079  0.00  0.00    +0.000 A 
ATOM     12  N   UNL     1       3.384  10.559   0.675  0.00  0.00    +0.000 NA
ATOM     13  C   UNL     1       2.656   9.603   0.039  0.00  0.00    +0.000 A 
ENDBRANCH   6   8
ENDBRANCH   1   2
BRANCH   1  14
ATOM     14  S   UNL     1       1.182   3.735  -3.001  0.00  0.00    +0.000 S 
BRANCH  14  17
ATOM     15  C   UNL     1       3.556   5.792  -5.581  0.00  0.00    +0.000 A 
ATOM     16  C   UNL     1       3.065   5.274  -4.392  0.00  0.00    +0.000 A 
ATOM     17  C   UNL     1       1.906   4.508  -4.442  0.00  0.00    +0.000 A 
ATOM     18  C   UNL     1       1.298   4.285  -5.679  0.00  0.00    +0.000 A 
ATOM     19  C   UNL     1       1.857   4.850  -6.814  0.00  0.00    +0.000 A 
ATOM     20  N   UNL     1       2.975   5.604  -6.800  0.00  0.00    +0.000 NA
BRANCH  15  22
ATOM     21  N   UNL     1       5.229   7.077  -6.777  0.00  0.00    +0.000 N 
ATOM     22  C   UNL     1       4.823   6.590  -5.564  0.00  0.00    +0.000 C 
ATOM     23  O   UNL     1       5.468   6.790  -4.543  0.00  0.00    +0.000 OA
ATOM     24  H   UNL     1       6.092   7.596  -6.838  0.00  0.00    +0.000 HD
ATOM     25  H   UNL     1       4.686   6.868  -7.607  0.00  0.00    +0.000 HD
ENDBRANCH  15  22
ENDBRANCH  14  17
ENDBRANCH   1  14
TORSDOF 5
