REMARK  Name = 
REMARK  5 active torsions:
REMARK  status: ('A' for Active; 'I' for Inactive)
REMARK    1  A    between atoms: N_1  and  C_2
REMARK    2  A    between atoms: C_2  and  C_3
REMARK    3  A    between atoms: N_8  and  C_9
REMARK    4  A    between atoms: C_9  and  C_10
REMARK    5  A    between atoms: C_10  and  N_11
REMARK                            x       y       z     vdW  Elec       q    Type
REMARK                         _______ _______ _______ _____ _____    ______ ____
ROOT
ATOM      1  C   UNL     1       3.132  -0.464   1.403  0.00  0.00    +0.000 A 
ATOM      2  C   UNL     1       3.989   0.272   2.195  0.00  0.00    +0.000 A 
ATOM      3  C   UNL     1       4.596  -0.414   3.215  0.00  0.00    +0.000 A 
ATOM      4  N   UNL     1       4.387  -1.719   3.457  0.00  0.00    +0.000 NA
ATOM      5  C   UNL     1       3.540  -2.360   2.640  0.00  0.00    +0.000 A 
ATOM      6  N   UNL     1       3.271  -3.710   2.819  0.00  0.00    +0.000 N 
ATOM      7  N   UNL     1       2.898  -1.779   1.620  0.00  0.00    +0.000 NA
ATOM      8  H   UNL     1       2.389  -3.880   2.351  0.00  0.00    +0.000 HD
ENDROOT
BRANCH   1   9
ATOM      9  C   UNL     1       2.425   0.179   0.232  0.00  0.00    +0.000 C 
BRANCH   9  10
ATOM     10  N   UNL     1       3.356   0.726  -0.759  0.00  0.00    +0.000 NA
ATOM     11  H   UNL     1       2.821   1.037  -1.568  0.00  0.00    +0.000 HD
ATOM     12  H   UNL     1       3.943  -0.041  -1.094  0.00  0.00    +0.000 HD
ENDBRANCH   9  10
ENDBRANCH   1   9
BRANCH   6  13
ATOM     13  C   UNL     1       3.361  -4.163   4.200  0.00  0.00    +0.000 C 
BRANCH  13  14
ATOM     14  C   UNL     1       3.070  -5.678   4.272  0.00  0.00    +0.000 C 
BRANCH  14  15
ATOM     15  N   UNL     1       3.144  -6.272   5.624  0.00  0.00    +0.000 NA
ATOM     16  C   UNL     1       4.482  -6.150   6.249  0.00  0.00    +0.000 C 
ATOM     17  C   UNL     1       5.558  -7.025   5.585  0.00  0.00    +0.000 C 
ATOM     18  O   UNL     1       5.175  -8.406   5.593  0.00  0.00    +0.000 OA
ATOM     19  C   UNL     1       3.910  -8.593   4.946  0.00  0.00    +0.000 C 
ATOM     20  C   UNL     1       2.812  -7.718   5.580  0.00  0.00    +0.000 C 
ENDBRANCH  14  15
ENDBRANCH  13  14
ENDBRANCH   6  13
TORSDOF 5
