REMARK  Name = 
REMARK  6 active torsions:
REMARK  status: ('A' for Active; 'I' for Inactive)
REMARK    1  A    between atoms: C_1  and  C_2
REMARK    2  A    between atoms: C_2  and  C_3
REMARK    3  A    between atoms: C_7  and  C_8
REMARK    4  A    between atoms: C_8  and  C_9
REMARK    5  A    between atoms: C_9  and  N_10
REMARK    6  A    between atoms: C_14  and  C_15
REMARK                            x       y       z     vdW  Elec       q    Type
REMARK                         _______ _______ _______ _____ _____    ______ ____
ROOT
ATOM      1  C   UNL     1       3.306   3.645  -4.245  0.00  0.00    +0.000 C 
ENDROOT
BRANCH   1   2
ATOM      2  N   UNL     1       3.803   4.931  -4.749  0.00  0.00    +0.000 N 
ATOM      3  C   UNL     1       2.761   5.841  -5.032  0.00  0.00    +0.000 A 
ATOM      4  C   UNL     1       3.078   7.105  -5.514  0.00  0.00    +0.000 A 
ATOM      5  C   UNL     1       2.050   8.018  -5.777  0.00  0.00    +0.000 A 
ATOM      6  C   UNL     1       0.722   7.653  -5.553  0.00  0.00    +0.000 A 
ATOM      7  C   UNL     1       0.499   6.380  -5.064  0.00  0.00    +0.000 A 
ATOM      8  N   UNL     1       1.481   5.482  -4.800  0.00  0.00    +0.000 NA
ATOM      9  H   UNL     1       4.380   4.828  -5.579  0.00  0.00    +0.000 HD
BRANCH   6  10
ATOM     10  C   UNL     1      -0.369   8.617  -5.836  0.00  0.00    +0.000 C 
ATOM     11  N   UNL     1      -1.666   8.233  -5.635  0.00  0.00    +0.000 N 
ATOM     12  O   UNL     1      -0.121   9.744  -6.251  0.00  0.00    +0.000 OA
ATOM     13  H   UNL     1      -1.981   7.331  -5.312  0.00  0.00    +0.000 HD
ATOM     14  H   UNL     1      -2.377   8.921  -5.847  0.00  0.00    +0.000 HD
ENDBRANCH   6  10
ENDBRANCH   1   2
BRANCH   1  15
ATOM     15  C   UNL     1       4.454   2.676  -3.942  0.00  0.00    +0.000 C 
BRANCH  15  20
ATOM     16  C   UNL     1       3.022   0.103  -1.487  0.00  0.00    +0.000 A 
ATOM     17  C   UNL     1       2.723  -0.942  -2.384  0.00  0.00    +0.000 A 
ATOM     18  C   UNL     1       3.006  -0.838  -3.747  0.00  0.00    +0.000 A 
ATOM     19  C   UNL     1       3.588   0.320  -4.253  0.00  0.00    +0.000 A 
ATOM     20  C   UNL     1       3.914   1.372  -3.393  0.00  0.00    +0.000 A 
ATOM     21  C   UNL     1       3.643   1.247  -2.016  0.00  0.00    +0.000 A 
BRANCH  16  23
ATOM     22  C   UNL     1       1.043  -0.091   0.025  0.00  0.00    +0.000 C 
ATOM     23  C   UNL     1       2.580  -0.010  -0.016  0.00  0.00    +0.000 C 
ATOM     24  C   UNL     1       3.237  -1.210   0.675  0.00  0.00    +0.000 C 
ATOM     25  C   UNL     1       4.472  -0.639   1.357  0.00  0.00    +0.000 C 
ATOM     26  O   UNL     1       4.375   0.789   1.325  0.00  0.00    +0.000 OA
ATOM     27  C   UNL     1       3.040   1.116   0.924  0.00  0.00    +0.000 C 
ENDBRANCH  16  23
ENDBRANCH  15  20
ENDBRANCH   1  15
TORSDOF 5
