REMARK  Name = 
REMARK  3 active torsions:
REMARK  status: ('A' for Active; 'I' for Inactive)
REMARK    1  A    between atoms: C_5  and  N_6
REMARK    2  A    between atoms: N_6  and  C_7
REMARK    3  A    between atoms: C_7  and  C_8
REMARK                            x       y       z     vdW  Elec       q    Type
REMARK                         _______ _______ _______ _____ _____    ______ ____
ROOT
ATOM      1  C   UNL     1       3.499  -3.852  -0.111  0.00  0.00    +0.000 A 
ATOM      2  C   UNL     1       4.860  -4.074  -0.094  0.00  0.00    +0.000 A 
ATOM      3  C   UNL     1       5.241  -5.386  -0.048  0.00  0.00    +0.000 A 
ATOM      4  N   UNL     1       4.372  -6.413  -0.014  0.00  0.00    +0.000 NA
ATOM      5  C   UNL     1       3.061  -6.128  -0.058  0.00  0.00    +0.000 A 
ATOM      6  N   UNL     1       2.154  -7.149   0.050  0.00  0.00    +0.000 N 
ATOM      7  C   UNL     1       2.594  -8.502   0.368  0.00  0.00    +0.000 C 
ATOM      8  C   UNL     1       1.766  -9.061   1.530  0.00  0.00    +0.000 C 
ATOM      9  S   UNL     1      -0.019  -9.143   1.138  0.00  0.00    +0.000 S 
ATOM     10  C   UNL     1      -0.238  -7.411   0.588  0.00  0.00    +0.000 C 
ATOM     11  C   UNL     1       0.795  -6.983  -0.460  0.00  0.00    +0.000 C 
ATOM     12  N   UNL     1       2.605  -4.867  -0.121  0.00  0.00    +0.000 NA
ENDROOT
BRANCH   1  13
ATOM     13  C   UNL     1       2.953  -2.441  -0.069  0.00  0.00    +0.000 C 
BRANCH  13  14
ATOM     14  N   UNL     1       2.809  -1.874  -1.402  0.00  0.00    +0.000 N 
ATOM     15  H   UNL     1       3.448  -2.227  -2.108  0.00  0.00    +0.000 HD
BRANCH  14  20
ATOM     16  C   UNL     1       1.330   1.495  -0.832  0.00  0.00    +0.000 A 
ATOM     17  C   UNL     1       1.298   1.926  -2.145  0.00  0.00    +0.000 A 
ATOM     18  N   UNL     1       1.752   1.192  -3.178  0.00  0.00    +0.000 NA
ATOM     19  C   UNL     1       2.255  -0.032  -2.873  0.00  0.00    +0.000 A 
ATOM     20  C   UNL     1       2.361  -0.570  -1.586  0.00  0.00    +0.000 A 
ATOM     21  C   UNL     1       1.859   0.232  -0.559  0.00  0.00    +0.000 A 
ENDBRANCH  14  20
ENDBRANCH  13  14
ENDBRANCH   1  13
TORSDOF 3
