REMARK  Name = 
REMARK  6 active torsions:
REMARK  status: ('A' for Active; 'I' for Inactive)
REMARK    1  A    between atoms: N_1  and  C_2
REMARK    2  A    between atoms: C_2  and  C_3
REMARK    3  A    between atoms: C_3  and  C_4
REMARK    4  A    between atoms: C_7  and  C_8
REMARK    5  A    between atoms: C_8  and  N_9
REMARK    6  A    between atoms: C_14  and  C_15
REMARK                            x       y       z     vdW  Elec       q    Type
REMARK                         _______ _______ _______ _____ _____    ______ ____
ROOT
ATOM      1  N   UNL     1       9.278  -1.854   1.558  0.00  0.00    +0.000 N 
ATOM      2  N   UNL     1       9.469  -3.072   2.119  0.00  0.00    +0.000 NA
ATOM      3  C   UNL     1      10.141  -2.806   3.241  0.00  0.00    +0.000 A 
ATOM      4  C   UNL     1      10.409  -1.430   3.404  0.00  0.00    +0.000 A 
ATOM      5  C   UNL     1      11.085  -0.642   4.342  0.00  0.00    +0.000 A 
ATOM      6  C   UNL     1      11.121   0.724   4.079  0.00  0.00    +0.000 A 
ATOM      7  N   UNL     1      10.541   1.323   2.999  0.00  0.00    +0.000 NA
ATOM      8  C   UNL     1       9.882   0.552   2.099  0.00  0.00    +0.000 A 
ATOM      9  C   UNL     1       9.824  -0.824   2.295  0.00  0.00    +0.000 A 
ENDROOT
BRANCH   6  10
ATOM     10  C   UNL     1      11.863   1.621   5.028  0.00  0.00    +0.000 C 
ATOM     11  N   UNL     1      11.868   2.955   4.720  0.00  0.00    +0.000 N 
ATOM     12  O   UNL     1      12.439   1.196   6.022  0.00  0.00    +0.000 OA
ATOM     13  H   UNL     1      11.399   3.286   3.887  0.00  0.00    +0.000 HD
ATOM     14  H   UNL     1      12.364   3.600   5.321  0.00  0.00    +0.000 HD
ENDBRANCH   6  10
BRANCH   1  15
ATOM     15  C   UNL     1       8.715  -1.775   0.213  0.00  0.00    +0.000 C 
BRANCH  15  19
ATOM     16  C   UNL     1       4.389  -1.529   0.264  0.00  0.00    +0.000 A 
ATOM     17  C   UNL     1       5.165  -0.364   0.266  0.00  0.00    +0.000 A 
ATOM     18  C   UNL     1       6.561  -0.437   0.237  0.00  0.00    +0.000 A 
ATOM     19  C   UNL     1       7.210  -1.679   0.213  0.00  0.00    +0.000 A 
ATOM     20  C   UNL     1       6.428  -2.844   0.188  0.00  0.00    +0.000 A 
ATOM     21  C   UNL     1       5.033  -2.769   0.204  0.00  0.00    +0.000 A 
BRANCH  16  22
ATOM     22  C   UNL     1       2.882  -1.444   0.313  0.00  0.00    +0.000 C 
BRANCH  22  23
ATOM     23  C   UNL     1       2.266  -1.375  -1.088  0.00  0.00    +0.000 C 
BRANCH  23  24
ATOM     24  N   UNL     1       0.808  -1.280  -1.017  0.00  0.00    +0.000 NA
ATOM     25  H   UNL     1       0.430  -1.201  -1.960  0.00  0.00    +0.000 HD
ATOM     26  H   UNL     1       0.542  -0.424  -0.532  0.00  0.00    +0.000 HD
ENDBRANCH  23  24
ENDBRANCH  22  23
ENDBRANCH  16  22
ENDBRANCH  15  19
ENDBRANCH   1  15
TORSDOF 6
