REMARK  Name = 
REMARK  4 active torsions:
REMARK  status: ('A' for Active; 'I' for Inactive)
REMARK    1  A    between atoms: C_2  and  C_4
REMARK    2  A    between atoms: C_8  and  C_9
REMARK    3  A    between atoms: C_9  and  N_10
REMARK    4  A    between atoms: C_14  and  C_15
REMARK                            x       y       z     vdW  Elec       q    Type
REMARK                         _______ _______ _______ _____ _____    ______ ____
ROOT
ATOM      1  C   UNL     1       5.871  -3.407   0.199  0.00  0.00    +0.000 C 
ATOM      2  C   UNL     1       7.337  -3.326  -0.210  0.00  0.00    +0.000 C 
ATOM      3  C   UNL     1       6.620  -4.633  -0.293  0.00  0.00    +0.000 C 
ENDROOT
BRANCH   1   4
ATOM      4  N   UNL     1       5.553  -3.313   1.625  0.00  0.00    +0.000 N 
ATOM      5  C   UNL     1       4.684  -4.189   2.262  0.00  0.00    +0.000 A 
ATOM      6  N   UNL     1       4.766  -4.210   3.600  0.00  0.00    +0.000 NA
ATOM      7  C   UNL     1       3.935  -5.043   4.260  0.00  0.00    +0.000 A 
ATOM      8  C   UNL     1       3.017  -5.853   3.641  0.00  0.00    +0.000 A 
ATOM      9  C   UNL     1       3.016  -5.769   2.267  0.00  0.00    +0.000 A 
ATOM     10  N   UNL     1       3.834  -4.960   1.564  0.00  0.00    +0.000 NA
ATOM     11  H   UNL     1       6.198  -2.911   2.288  0.00  0.00    +0.000 HD
BRANCH   8  12
ATOM     12  C   UNL     1       2.100  -6.747   4.385  0.00  0.00    +0.000 C 
ATOM     13  F   UNL     1       2.266  -6.685   5.735  0.00  0.00    +0.000 F 
ATOM     14  F   UNL     1       0.790  -6.458   4.157  0.00  0.00    +0.000 F 
ATOM     15  F   UNL     1       2.258  -8.056   4.051  0.00  0.00    +0.000 F 
ENDBRANCH   8  12
ENDBRANCH   1   4
BRANCH   1  20
ATOM     16  C   UNL     1       4.081  -0.608  -1.497  0.00  0.00    +0.000 A 
ATOM     17  C   UNL     1       3.014  -1.201  -2.151  0.00  0.00    +0.000 A 
ATOM     18  C   UNL     1       2.904  -2.582  -2.089  0.00  0.00    +0.000 A 
ATOM     19  C   UNL     1       3.845  -3.307  -1.358  0.00  0.00    +0.000 A 
ATOM     20  C   UNL     1       4.890  -2.648  -0.703  0.00  0.00    +0.000 A 
ATOM     21  N   UNL     1       5.026  -1.295  -0.795  0.00  0.00    +0.000 NA
BRANCH  16  23
ATOM     22  N   UNL     1       5.361   1.371  -0.928  0.00  0.00    +0.000 N 
ATOM     23  C   UNL     1       4.229   0.883  -1.524  0.00  0.00    +0.000 C 
ATOM     24  O   UNL     1       3.402   1.624  -2.040  0.00  0.00    +0.000 OA
ATOM     25  H   UNL     1       5.516   2.367  -0.888  0.00  0.00    +0.000 HD
ATOM     26  H   UNL     1       6.012   0.724  -0.495  0.00  0.00    +0.000 HD
ENDBRANCH  16  23
ENDBRANCH   1  20
TORSDOF 4
