REMARK  Name = 
REMARK  7 active torsions:
REMARK  status: ('A' for Active; 'I' for Inactive)
REMARK    1  A    between atoms: C_2  and  C_22
REMARK    2  A    between atoms: N_3  and  C_4
REMARK    3  A    between atoms: C_4  and  C_5
REMARK    4  A    between atoms: C_8  and  C_9
REMARK    5  A    between atoms: C_9  and  N_10
REMARK    6  A    between atoms: C_11  and  C_13
REMARK    7  A    between atoms: C_16  and  O_17
REMARK                            x       y       z     vdW  Elec       q    Type
REMARK                         _______ _______ _______ _____ _____    ______ ____
ROOT
ATOM      1  C   UNL     1      12.988  -1.455  12.150  0.00  0.00    +0.000 A 
ATOM      2  C   UNL     1      12.437  -1.179  10.892  0.00  0.00    +0.000 A 
ATOM      3  C   UNL     1      11.337  -0.323  10.762  0.00  0.00    +0.000 A 
ATOM      4  C   UNL     1      10.777   0.298  11.887  0.00  0.00    +0.000 A 
ATOM      5  C   UNL     1      11.326   0.020  13.146  0.00  0.00    +0.000 A 
ATOM      6  C   UNL     1      12.428  -0.838  13.276  0.00  0.00    +0.000 A 
ENDROOT
BRANCH   1   7
ATOM      7  C   UNL     1      14.178  -2.373  12.280  0.00  0.00    +0.000 C 
BRANCH   7  10
ATOM      8  O   UNL     1      16.680  -3.504  12.634  0.00  0.00    +0.000 OA
ATOM      9  C   UNL     1      16.623  -2.317  12.322  0.00  0.00    +0.000 C 
ATOM     10  N   UNL     1      15.426  -1.653  12.202  0.00  0.00    +0.000 N 
ATOM     11  H   UNL     1      15.405  -0.748  11.743  0.00  0.00    +0.000 HD
BRANCH   9  12
ATOM     12  C   UNL     1      17.841  -1.529  12.099  0.00  0.00    +0.000 A 
ATOM     13  C   UNL     1      19.038  -1.921  12.683  0.00  0.00    +0.000 A 
ATOM     14  S   UNL     1      20.347  -0.890  12.317  0.00  0.00    +0.000 S 
ATOM     15  C   UNL     1      19.371   0.089  11.329  0.00  0.00    +0.000 A 
ATOM     16  N   UNL     1      19.893   1.157  10.665  0.00  0.00    +0.000 NA
ATOM     17  C   UNL     1      19.048   1.791   9.924  0.00  0.00    +0.000 A 
ATOM     18  N   UNL     1      17.722   1.460   9.791  0.00  0.00    +0.000 N 
ATOM     19  C   UNL     1      17.143   0.414  10.472  0.00  0.00    +0.000 A 
ATOM     20  O   UNL     1      15.942   0.184  10.378  0.00  0.00    +0.000 OA
ATOM     21  C   UNL     1      18.057  -0.346  11.299  0.00  0.00    +0.000 A 
ATOM     22  H   UNL     1      17.110   2.007   9.209  0.00  0.00    +0.000 HD
ENDBRANCH   9  12
ENDBRANCH   7  10
ENDBRANCH   1   7
BRANCH   4  23
ATOM     23  C   UNL     1       9.670   1.309  11.731  0.00  0.00    +0.000 C 
BRANCH  23  24
ATOM     24  N   UNL     1       8.336   0.764  11.846  0.00  0.00    +0.000 N 
ATOM     25  C   UNL     1       7.254   1.620  11.776  0.00  0.00    +0.000 C 
ATOM     26  O   UNL     1       7.386   2.815  11.527  0.00  0.00    +0.000 OA
ATOM     27  H   UNL     1       8.209  -0.236  11.918  0.00  0.00    +0.000 HD
BRANCH  25  28
ATOM     28  C   UNL     1       5.890   0.988  12.081  0.00  0.00    +0.000 C 
ATOM     29  C   UNL     1       5.899   0.459  13.523  0.00  0.00    +0.000 C 
ATOM     30  C   UNL     1       4.526  -0.002  14.008  0.00  0.00    +0.000 C 
ATOM     31  C   UNL     1       3.448   1.060  13.820  0.00  0.00    +0.000 C 
ATOM     32  C   UNL     1       3.398   1.538  12.371  0.00  0.00    +0.000 C 
ATOM     33  C   UNL     1       4.759   2.015  11.865  0.00  0.00    +0.000 C 
BRANCH  31  34
ATOM     34  O   UNL     1       3.673   2.154  14.705  0.00  0.00    +0.000 OA
ATOM     35  H   UNL     1       4.508   2.592  14.468  0.00  0.00    +0.000 HD
ENDBRANCH  31  34
ENDBRANCH  25  28
ENDBRANCH  23  24
ENDBRANCH   4  23
TORSDOF 7
