REMARK  Name = 
REMARK  7 active torsions:
REMARK  status: ('A' for Active; 'I' for Inactive)
REMARK    1  A    between atoms: C_1  and  C_2
REMARK    2  A    between atoms: C_2  and  N_3
REMARK    3  A    between atoms: C_2  and  C_17
REMARK    4  A    between atoms: C_4  and  C_6
REMARK    5  A    between atoms: C_12  and  N_13
REMARK    6  A    between atoms: C_20  and  C_21
REMARK    7  A    between atoms: C_21  and  C_22
REMARK                            x       y       z     vdW  Elec       q    Type
REMARK                         _______ _______ _______ _____ _____    ______ ____
ROOT
ATOM      1  N   UNL     1       2.904   0.706   1.250  0.00  0.00    +0.000 N 
ATOM      2  C   UNL     1       3.710   1.793   1.364  0.00  0.00    +0.000 C 
ATOM      3  O   UNL     1       4.176   2.384   0.391  0.00  0.00    +0.000 OA
ATOM      4  H   UNL     1       2.485   0.313   2.083  0.00  0.00    +0.000 HD
ENDROOT
BRANCH   2   5
ATOM      5  C   UNL     1       4.054   2.232   2.755  0.00  0.00    +0.000 A 
ATOM      6  C   UNL     1       5.183   2.946   2.905  0.00  0.00    +0.000 A 
ATOM      7  S   UNL     1       5.456   3.404   4.555  0.00  0.00    +0.000 S 
ATOM      8  C   UNL     1       3.970   2.611   5.039  0.00  0.00    +0.000 A 
ATOM      9  N   UNL     1       3.545   2.618   6.257  0.00  0.00    +0.000 NA
ATOM     10  C   UNL     1       2.378   1.942   6.480  0.00  0.00    +0.000 A 
ATOM     11  C   UNL     1       1.656   1.296   5.556  0.00  0.00    +0.000 A 
ATOM     12  C   UNL     1       2.167   1.370   4.138  0.00  0.00    +0.000 A 
ATOM     13  O   UNL     1       1.473   0.841   3.268  0.00  0.00    +0.000 OA
ATOM     14  N   UNL     1       3.363   2.021   3.948  0.00  0.00    +0.000 N 
BRANCH  11  15
ATOM     15  N   UNL     1       0.489   0.586   5.771  0.00  0.00    +0.000 N 
ATOM     16  H   UNL     1      -0.076   0.926   6.543  0.00  0.00    +0.000 HD
ATOM     17  H   UNL     1      -0.041   0.466   4.903  0.00  0.00    +0.000 HD
ENDBRANCH  11  15
ENDBRANCH   2   5
BRANCH   1  19
ATOM     18  C   UNL     1       0.893   0.224  -0.044  0.00  0.00    +0.000 C 
ATOM     19  C   UNL     1       2.422   0.146   0.004  0.00  0.00    +0.000 C 
BRANCH  19  20
ATOM     20  C   UNL     1       2.930  -1.278  -0.118  0.00  0.00    +0.000 A 
ATOM     21  C   UNL     1       3.844  -1.598  -1.129  0.00  0.00    +0.000 A 
ATOM     22  C   UNL     1       4.375  -2.886  -1.228  0.00  0.00    +0.000 A 
ATOM     23  C   UNL     1       4.009  -3.884  -0.315  0.00  0.00    +0.000 A 
ATOM     24  C   UNL     1       3.096  -3.567   0.698  0.00  0.00    +0.000 A 
ATOM     25  C   UNL     1       2.559  -2.280   0.793  0.00  0.00    +0.000 A 
BRANCH  23  26
ATOM     26  C   UNL     1       4.634  -5.259  -0.391  0.00  0.00    +0.000 C 
BRANCH  26  27
ATOM     27  C   UNL     1       5.906  -5.378   0.418  0.00  0.00    +0.000 A 
ATOM     28  C   UNL     1       5.862  -5.791   1.757  0.00  0.00    +0.000 A 
ATOM     29  C   UNL     1       7.028  -5.837   2.523  0.00  0.00    +0.000 A 
ATOM     30  C   UNL     1       8.250  -5.473   1.959  0.00  0.00    +0.000 A 
ATOM     31  C   UNL     1       8.308  -5.074   0.626  0.00  0.00    +0.000 A 
ATOM     32  C   UNL     1       7.143  -5.027  -0.142  0.00  0.00    +0.000 A 
ENDBRANCH  26  27
ENDBRANCH  23  26
ENDBRANCH  19  20
ENDBRANCH   1  19
TORSDOF 6
