REMARK  Name = 
REMARK  11 active torsions:
REMARK  status: ('A' for Active; 'I' for Inactive)
REMARK    1  A    between atoms: C_1  and  O_2
REMARK    2  A    between atoms: O_2  and  C_3
REMARK    3  A    between atoms: C_3  and  C_4
REMARK    4  A    between atoms: C_4  and  N_5
REMARK    5  A    between atoms: C_4  and  C_21
REMARK    6  A    between atoms: N_5  and  C_6
REMARK    7  A    between atoms: C_6  and  C_7
REMARK    8  A    between atoms: C_10  and  C_11
REMARK    9  A    between atoms: C_11  and  N_12
REMARK   10  A    between atoms: N_12  and  C_13
REMARK   11  A    between atoms: C_13  and  C_14
REMARK                            x       y       z     vdW  Elec       q    Type
REMARK                         _______ _______ _______ _____ _____    ______ ____
ROOT
ATOM      1  N   UNL     1      12.699  -4.598   1.925  0.00  0.00    +0.000 NA
ATOM      2  H   UNL     1      11.712  -4.445   1.708  0.00  0.00    +0.000 HD
ENDROOT
BRANCH   1   3
ATOM      3  C   UNL     1      13.306  -5.135   0.683  0.00  0.00    +0.000 C 
BRANCH   3   4
ATOM      4  C   UNL     1      14.801  -5.324   0.886  0.00  0.00    +0.000 A 
ATOM      5  C   UNL     1      15.399  -6.503   1.307  0.00  0.00    +0.000 A 
ATOM      6  S   UNL     1      17.088  -6.391   1.490  0.00  0.00    +0.000 S 
ATOM      7  C   UNL     1      17.087  -4.765   0.993  0.00  0.00    +0.000 A 
ATOM      8  N   UNL     1      18.247  -4.061   0.917  0.00  0.00    +0.000 NA
ATOM      9  C   UNL     1      18.094  -2.831   0.547  0.00  0.00    +0.000 A 
ATOM     10  N   UNL     1      16.893  -2.245   0.251  0.00  0.00    +0.000 N 
ATOM     11  C   UNL     1      15.694  -2.924   0.278  0.00  0.00    +0.000 A 
ATOM     12  O   UNL     1      14.649  -2.381  -0.066  0.00  0.00    +0.000 OA
ATOM     13  C   UNL     1      15.813  -4.308   0.705  0.00  0.00    +0.000 A 
ATOM     14  H   UNL     1      16.848  -1.283  -0.045  0.00  0.00    +0.000 HD
ENDBRANCH   3   4
BRANCH   3  15
ATOM     15  C   UNL     1      12.616  -6.416   0.136  0.00  0.00    +0.000 C 
BRANCH  15  17
ATOM     16  C   UNL     1      10.601  -7.424  -0.519  0.00  0.00    +0.000 C 
ATOM     17  O   UNL     1      11.204  -6.233  -0.018  0.00  0.00    +0.000 OA
ENDBRANCH  15  17
ENDBRANCH   3  15
ENDBRANCH   1   3
BRANCH   1  18
ATOM     18  C   UNL     1      12.787  -5.507   3.064  0.00  0.00    +0.000 C 
BRANCH  18  19
ATOM     19  C   UNL     1      12.142  -4.986   4.317  0.00  0.00    +0.000 A 
ATOM     20  C   UNL     1      10.784  -4.672   4.385  0.00  0.00    +0.000 A 
ATOM     21  C   UNL     1      10.215  -4.351   5.614  0.00  0.00    +0.000 A 
ATOM     22  C   UNL     1      11.021  -4.353   6.751  0.00  0.00    +0.000 A 
ATOM     23  N   UNL     1      12.350  -4.621   6.706  0.00  0.00    +0.000 NA
ATOM     24  C   UNL     1      12.875  -4.925   5.499  0.00  0.00    +0.000 A 
BRANCH  22  25
ATOM     25  C   UNL     1      10.431  -4.030   8.109  0.00  0.00    +0.000 C 
BRANCH  25  26
ATOM     26  N   UNL     1      11.087  -2.907   8.794  0.00  0.00    +0.000 NA
ATOM     27  H   UNL     1      12.083  -3.143   8.842  0.00  0.00    +0.000 HD
BRANCH  26  28
ATOM     28  C   UNL     1      10.959  -1.655   8.029  0.00  0.00    +0.000 C 
BRANCH  28  29
ATOM     29  C   UNL     1      11.629  -0.488   8.796  0.00  0.00    +0.000 C 
ATOM     30  C   UNL     1      11.477   0.847   8.090  0.00  0.00    +0.000 C 
ATOM     31  C   UNL     1      10.093   1.309   8.503  0.00  0.00    +0.000 C 
ATOM     32  C   UNL     1       9.859   0.660   9.862  0.00  0.00    +0.000 C 
ATOM     33  N   UNL     1      10.987  -0.244  10.100  0.00  0.00    +0.000 NA
ATOM     34  H   UNL     1      10.658  -1.145  10.459  0.00  0.00    +0.000 HD
ENDBRANCH  28  29
ENDBRANCH  26  28
ENDBRANCH  25  26
ENDBRANCH  22  25
ENDBRANCH  18  19
ENDBRANCH   1  18
TORSDOF 10
