REMARK  Name = 
REMARK  6 active torsions:
REMARK  status: ('A' for Active; 'I' for Inactive)
REMARK    1  A    between atoms: N_1  and  C_2
REMARK    2  A    between atoms: C_2  and  C_3
REMARK    3  A    between atoms: C_7  and  C_8
REMARK    4  A    between atoms: C_8  and  C_9
REMARK    5  A    between atoms: C_9  and  N_10
REMARK    6  A    between atoms: C_15  and  C_16
REMARK                            x       y       z     vdW  Elec       q    Type
REMARK                         _______ _______ _______ _____ _____    ______ ____
ROOT
ATOM      1  N   UNL     1       4.481  -4.086  -5.944  0.00  0.00    +0.000 N 
ATOM      2  C   UNL     1       4.945  -4.143  -7.262  0.00  0.00    +0.000 A 
ATOM      3  C   UNL     1       5.842  -3.217  -7.771  0.00  0.00    +0.000 A 
ATOM      4  C   UNL     1       6.245  -3.369  -9.077  0.00  0.00    +0.000 A 
ATOM      5  N   UNL     1       5.841  -4.377  -9.856  0.00  0.00    +0.000 NA
ATOM      6  C   UNL     1       4.994  -5.251  -9.263  0.00  0.00    +0.000 A 
ATOM      7  N   UNL     1       4.516  -5.176  -8.001  0.00  0.00    +0.000 NA
ATOM      8  H   UNL     1       3.705  -4.740  -5.867  0.00  0.00    +0.000 HD
ENDROOT
BRANCH   6   9
ATOM      9  C   UNL     1       4.576  -6.423 -10.124  0.00  0.00    +0.000 C 
ATOM     10  N   UNL     1       5.098  -6.432 -11.399  0.00  0.00    +0.000 N 
ATOM     11  O   UNL     1       3.831  -7.324  -9.750  0.00  0.00    +0.000 OA
ATOM     12  H   UNL     1       5.728  -5.694 -11.692  0.00  0.00    +0.000 HD
ATOM     13  H   UNL     1       4.876  -7.198 -12.020  0.00  0.00    +0.000 HD
ENDBRANCH   6   9
BRANCH   1  14
ATOM     14  C   UNL     1       4.263  -2.752  -5.382  0.00  0.00    +0.000 C 
BRANCH  14  15
ATOM     15  C   UNL     1       3.736  -2.787  -3.945  0.00  0.00    +0.000 C 
BRANCH  15  20
ATOM     16  C   UNL     1       3.811   0.919  -3.666  0.00  0.00    +0.000 A 
ATOM     17  C   UNL     1       3.345   1.164  -2.380  0.00  0.00    +0.000 A 
ATOM     18  C   UNL     1       3.006   0.081  -1.575  0.00  0.00    +0.000 A 
ATOM     19  C   UNL     1       3.131  -1.213  -2.073  0.00  0.00    +0.000 A 
ATOM     20  C   UNL     1       3.593  -1.390  -3.372  0.00  0.00    +0.000 A 
ATOM     21  N   UNL     1       3.934  -0.338  -4.160  0.00  0.00    +0.000 NA
BRANCH  16  22
ATOM     22  C   UNL     1       4.222   2.066  -4.565  0.00  0.00    +0.000 C 
BRANCH  22  23
ATOM     23  N   UNL     1       5.342   2.839  -4.018  0.00  0.00    +0.000 NA
ATOM     24  H   UNL     1       5.647   3.512  -4.721  0.00  0.00    +0.000 HD
ATOM     25  H   UNL     1       6.126   2.201  -3.880  0.00  0.00    +0.000 HD
ENDBRANCH  22  23
ENDBRANCH  16  22
ENDBRANCH  15  20
ENDBRANCH  14  15
ENDBRANCH   1  14
TORSDOF 6
