REMARK  Name = 
REMARK  5 active torsions:
REMARK  status: ('A' for Active; 'I' for Inactive)
REMARK    1  A    between atoms: C_5  and  C_6
REMARK    2  A    between atoms: C_6  and  C_7
REMARK    3  A    between atoms: C_7  and  N_8
REMARK    4  A    between atoms: C_16  and  O_17
REMARK    5  A    between atoms: O_17  and  C_18
REMARK                            x       y       z     vdW  Elec       q    Type
REMARK                         _______ _______ _______ _____ _____    ______ ____
ROOT
ATOM      1 CL   UNL     1      -2.062   0.626  -0.474  0.00  0.00    +0.000 Cl
ATOM      2  C   UNL     1      -0.384   0.338  -0.200  0.00  0.00    +0.000 A 
ATOM      3  C   UNL     1       0.405   1.486  -0.096  0.00  0.00    +0.000 A 
ATOM      4  C   UNL     1       1.788   1.397   0.037  0.00  0.00    +0.000 A 
ATOM      5  C   UNL     1       2.435   0.156   0.060  0.00  0.00    +0.000 A 
ATOM      6  C   UNL     1       1.631  -0.995  -0.017  0.00  0.00    +0.000 A 
ATOM      7  C   UNL     1       0.224  -0.921  -0.140  0.00  0.00    +0.000 A 
ENDROOT
BRANCH   5   8
ATOM      8  C   UNL     1       3.956   0.027   0.142  0.00  0.00    +0.000 C 
BRANCH   8   9
ATOM      9  C   UNL     1       4.667   1.386   0.176  0.00  0.00    +0.000 C 
BRANCH   9  10
ATOM     10  N   UNL     1       6.130   1.319   0.251  0.00  0.00    +0.000 N 
ATOM     11  C   UNL     1       6.673   2.636   0.267  0.00  0.00    +0.000 A 
ATOM     12  C   UNL     1       8.043   2.793   0.328  0.00  0.00    +0.000 A 
ATOM     13  C   UNL     1       8.514   4.089   0.357  0.00  0.00    +0.000 A 
ATOM     14  N   UNL     1       7.723   5.175   0.326  0.00  0.00    +0.000 NA
ATOM     15  C   UNL     1       6.412   4.919   0.279  0.00  0.00    +0.000 A 
ATOM     16  N   UNL     1       5.851   3.703   0.252  0.00  0.00    +0.000 NA
ATOM     17  H   UNL     1       6.540   0.815  -0.532  0.00  0.00    +0.000 HD
ENDBRANCH   9  10
ENDBRANCH   8   9
ENDBRANCH   5   8
BRANCH   7  18
ATOM     18  O   UNL     1      -0.368  -2.157  -0.260  0.00  0.00    +0.000 OA
BRANCH  18  19
ATOM     19  C   UNL     1      -1.723  -2.389   0.185  0.00  0.00    +0.000 C 
ATOM     20  C   UNL     1      -2.030  -2.236   1.694  0.00  0.00    +0.000 C 
ATOM     21  C   UNL     1      -2.771  -3.581   1.658  0.00  0.00    +0.000 C 
ATOM     22  C   UNL     1      -2.088  -3.887   0.321  0.00  0.00    +0.000 C 
ENDBRANCH  18  19
ENDBRANCH   7  18
TORSDOF 5
