REMARK  Name = 
REMARK  7 active torsions:
REMARK  status: ('A' for Active; 'I' for Inactive)
REMARK    1  A    between atoms: C_1  and  C_2
REMARK    2  A    between atoms: C_2  and  C_3
REMARK    3  A    between atoms: C_2  and  C_4
REMARK    4  A    between atoms: C_2  and  C_18
REMARK    5  A    between atoms: C_5  and  C_6
REMARK    6  A    between atoms: C_10  and  N_11
REMARK    7  A    between atoms: C_21  and  C_22
REMARK                            x       y       z     vdW  Elec       q    Type
REMARK                         _______ _______ _______ _____ _____    ______ ____
ROOT
ATOM      1  C   UNL     1       2.961  -1.054  -0.889  0.00  0.00    +0.000 C 
ATOM      2  C   UNL     1       2.754  -2.363  -0.667  0.00  0.00    +0.000 C 
ENDROOT
BRANCH   2   3
ATOM      3  C   UNL     1       3.241  -3.442  -1.538  0.00  0.00    +0.000 A 
ATOM      4  C   UNL     1       4.395  -3.313  -2.311  0.00  0.00    +0.000 A 
ATOM      5  C   UNL     1       4.843  -4.380  -3.080  0.00  0.00    +0.000 A 
ATOM      6  C   UNL     1       4.161  -5.597  -3.047  0.00  0.00    +0.000 A 
ATOM      7  C   UNL     1       3.023  -5.791  -2.250  0.00  0.00    +0.000 A 
ATOM      8  C   UNL     1       2.573  -4.678  -1.519  0.00  0.00    +0.000 A 
BRANCH   7   9
ATOM      9  N   UNL     1       2.400  -7.019  -2.170  0.00  0.00    +0.000 N 
ATOM     10  C   UNL     1       0.967  -7.175  -1.888  0.00  0.00    +0.000 C 
ATOM     11  C   UNL     1       0.762  -8.142  -0.703  0.00  0.00    +0.000 C 
ATOM     12  N   UNL     1       1.395  -9.463  -0.916  0.00  0.00    +0.000 NA
ATOM     13  C   UNL     1       2.835  -9.257  -1.187  0.00  0.00    +0.000 C 
ATOM     14  C   UNL     1       3.134  -8.282  -2.353  0.00  0.00    +0.000 C 
ATOM     15  H   UNL     1       0.978  -9.877  -1.750  0.00  0.00    +0.000 HD
ENDBRANCH   7   9
ENDBRANCH   2   3
BRANCH   1  17
ATOM     16  C   UNL     1       3.703   0.319   1.007  0.00  0.00    +0.000 C 
ATOM     17  C   UNL     1       2.532   0.088   0.025  0.00  0.00    +0.000 C 
ATOM     18  C   UNL     1       2.383   1.373  -0.825  0.00  0.00    +0.000 C 
BRANCH  17  19
ATOM     19  C   UNL     1       1.188  -0.194   0.724  0.00  0.00    +0.000 A 
ATOM     20  C   UNL     1       0.022  -0.400  -0.044  0.00  0.00    +0.000 A 
ATOM     21  C   UNL     1      -1.213  -0.659   0.560  0.00  0.00    +0.000 A 
ATOM     22  C   UNL     1      -1.307  -0.726   1.951  0.00  0.00    +0.000 A 
ATOM     23  C   UNL     1      -0.164  -0.541   2.718  0.00  0.00    +0.000 A 
ATOM     24  F   UNL     1      -0.223  -0.613   4.056  0.00  0.00    +0.000 F 
ATOM     25  C   UNL     1       1.068  -0.280   2.121  0.00  0.00    +0.000 A 
BRANCH  22  26
ATOM     26  C   UNL     1      -2.561  -0.983   2.579  0.00  0.00    +0.000 C 
ATOM     27  N   UNL     1      -3.598  -1.191   3.060  0.00  0.00    +0.000 NA
ENDBRANCH  22  26
ENDBRANCH  17  19
ENDBRANCH   1  17
TORSDOF 5
