REMARK  Name = 
REMARK  3 active torsions:
REMARK  status: ('A' for Active; 'I' for Inactive)
REMARK    1  A    between atoms: C_2  and  C_4
REMARK    2  A    between atoms: N_8  and  C_9
REMARK    3  A    between atoms: C_9  and  C_10
REMARK                            x       y       z     vdW  Elec       q    Type
REMARK                         _______ _______ _______ _____ _____    ______ ____
ROOT
ATOM      1  C   UNL     1       3.300   1.041   0.692  0.00  0.00    +0.000 A 
ATOM      2  C   UNL     1       3.633   0.818   2.002  0.00  0.00    +0.000 A 
ATOM      3  N   UNL     1       4.270   1.725   2.774  0.00  0.00    +0.000 NA
ATOM      4  C   UNL     1       4.675   2.857   2.183  0.00  0.00    +0.000 A 
ATOM      5  N   UNL     1       5.439   3.689   2.958  0.00  0.00    +0.000 N 
ATOM      6  N   UNL     1       4.413   3.161   0.902  0.00  0.00    +0.000 NA
ATOM      7  C   UNL     1       3.714   2.248   0.183  0.00  0.00    +0.000 A 
ATOM      8  H   UNL     1       4.977   3.909   3.828  0.00  0.00    +0.000 HD
ENDROOT
BRANCH   1  10
ATOM      9  N   UNL     1       1.839  -0.887   0.463  0.00  0.00    +0.000 N 
ATOM     10  C   UNL     1       2.584   0.075  -0.153  0.00  0.00    +0.000 C 
ATOM     11  O   UNL     1       2.632   0.150  -1.376  0.00  0.00    +0.000 OA
ATOM     12  H   UNL     1       1.290  -1.485  -0.144  0.00  0.00    +0.000 HD
ATOM     13  H   UNL     1       1.580  -0.864   1.441  0.00  0.00    +0.000 HD
ENDBRANCH   1  10
BRANCH   5  14
ATOM     14  C   UNL     1       6.187   4.742   2.320  0.00  0.00    +0.000 C 
BRANCH  14  15
ATOM     15  C   UNL     1       7.346   5.115   3.221  0.00  0.00    +0.000 A 
ATOM     16  C   UNL     1       8.249   4.126   3.651  0.00  0.00    +0.000 A 
ATOM     17  C   UNL     1       9.331   4.451   4.470  0.00  0.00    +0.000 A 
ATOM     18  C   UNL     1       9.527   5.773   4.861  0.00  0.00    +0.000 A 
ATOM     19  C   UNL     1       8.642   6.766   4.437  0.00  0.00    +0.000 A 
ATOM     20  C   UNL     1       7.557   6.440   3.619  0.00  0.00    +0.000 A 
ENDBRANCH  14  15
ENDBRANCH   5  14
TORSDOF 3
