REMARK  Name = 
REMARK  5 active torsions:
REMARK  status: ('A' for Active; 'I' for Inactive)
REMARK    1  A    between atoms: C_2  and  C_4
REMARK    2  A    between atoms: C_7  and  O_8
REMARK    3  A    between atoms: O_8  and  C_9
REMARK    4  A    between atoms: C_9  and  C_10
REMARK    5  A    between atoms: C_14  and  C_15
REMARK                            x       y       z     vdW  Elec       q    Type
REMARK                         _______ _______ _______ _____ _____    ______ ____
ROOT
ATOM      1  C   UNL     1       5.241   1.480   5.645  0.00  0.00    +0.000 C 
ATOM      2  C   UNL     1       5.135   0.233   6.511  0.00  0.00    +0.000 C 
ATOM      3  C   UNL     1       3.939   1.107   6.321  0.00  0.00    +0.000 C 
ENDROOT
BRANCH   1   4
ATOM      4  C   UNL     1       6.063   2.655   6.154  0.00  0.00    +0.000 A 
ATOM      5  C   UNL     1       7.460   2.580   6.255  0.00  0.00    +0.000 A 
ATOM      6  C   UNL     1       8.221   3.695   6.610  0.00  0.00    +0.000 A 
ATOM      7  C   UNL     1       7.594   4.915   6.865  0.00  0.00    +0.000 A 
ATOM      8  C   UNL     1       6.199   5.045   6.793  0.00  0.00    +0.000 A 
ATOM      9  C   UNL     1       5.460   3.895   6.451  0.00  0.00    +0.000 A 
BRANCH   8  10
ATOM     10  C   UNL     1       5.547   6.352   6.982  0.00  0.00    +0.000 A 
ATOM     11  C   UNL     1       4.295   6.516   7.576  0.00  0.00    +0.000 A 
ATOM     12  N   UNL     1       3.663   7.714   7.681  0.00  0.00    +0.000 NA
ATOM     13  C   UNL     1       4.334   8.761   7.157  0.00  0.00    +0.000 A 
ATOM     14  C   UNL     1       5.584   8.623   6.582  0.00  0.00    +0.000 A 
ATOM     15  N   UNL     1       6.218   7.431   6.493  0.00  0.00    +0.000 NA
ENDBRANCH   8  10
ENDBRANCH   1   4
BRANCH   1  16
ATOM     16  O   UNL     1       5.410   1.110   4.255  0.00  0.00    +0.000 OA
BRANCH  16  20
ATOM     17  C   UNL     1       3.997   3.564   1.266  0.00  0.00    +0.000 A 
ATOM     18  C   UNL     1       4.824   2.485   0.958  0.00  0.00    +0.000 A 
ATOM     19  C   UNL     1       5.290   1.676   1.990  0.00  0.00    +0.000 A 
ATOM     20  C   UNL     1       4.912   1.971   3.294  0.00  0.00    +0.000 A 
ATOM     21  N   UNL     1       4.103   2.997   3.628  0.00  0.00    +0.000 NA
ATOM     22  C   UNL     1       3.682   3.786   2.605  0.00  0.00    +0.000 A 
BRANCH  17  24
ATOM     23  N   UNL     1       3.365   4.015  -1.041  0.00  0.00    +0.000 N 
ATOM     24  C   UNL     1       3.473   4.488   0.238  0.00  0.00    +0.000 C 
ATOM     25  O   UNL     1       3.118   5.622   0.522  0.00  0.00    +0.000 OA
ATOM     26  H   UNL     1       2.931   4.633  -1.713  0.00  0.00    +0.000 HD
ATOM     27  H   UNL     1       3.411   3.033  -1.271  0.00  0.00    +0.000 HD
ENDBRANCH  17  24
ENDBRANCH  16  20
ENDBRANCH   1  16
TORSDOF 5
