REMARK  Name = 
REMARK  5 active torsions:
REMARK  status: ('A' for Active; 'I' for Inactive)
REMARK    1  A    between atoms: N_1  and  C_2
REMARK    2  A    between atoms: C_5  and  N_6
REMARK    3  A    between atoms: C_10  and  C_11
REMARK    4  A    between atoms: C_11  and  N_12
REMARK    5  A    between atoms: C_13  and  C_15
REMARK                            x       y       z     vdW  Elec       q    Type
REMARK                         _______ _______ _______ _____ _____    ______ ____
ROOT
ATOM      1  N   UNL     1       1.790   0.128   1.809  0.00  0.00    +0.000 N 
ATOM      2  C   UNL     1       2.314   1.193   2.554  0.00  0.00    +0.000 A 
ATOM      3  C   UNL     1       1.731   2.445   2.372  0.00  0.00    +0.000 A 
ATOM      4  C   UNL     1       2.205   3.541   3.090  0.00  0.00    +0.000 A 
ATOM      5  C   UNL     1       3.234   3.362   4.011  0.00  0.00    +0.000 A 
ATOM      6  C   UNL     1       3.723   2.069   4.162  0.00  0.00    +0.000 A 
ATOM      7  N   UNL     1       3.297   0.995   3.450  0.00  0.00    +0.000 NA
ATOM      8  H   UNL     1       0.920  -0.145   2.261  0.00  0.00    +0.000 HD
ENDROOT
BRANCH   1  12
ATOM      9  C   UNL     1       2.552  -1.071  -1.439  0.00  0.00    +0.000 C 
ATOM     10  C   UNL     1       3.426  -0.068  -0.679  0.00  0.00    +0.000 C 
ATOM     11  C   UNL     1       3.865  -0.627   0.677  0.00  0.00    +0.000 C 
ATOM     12  C   UNL     1       2.663  -1.023   1.551  0.00  0.00    +0.000 C 
ATOM     13  C   UNL     1       1.843  -2.085   0.789  0.00  0.00    +0.000 C 
ATOM     14  C   UNL     1       1.386  -1.594  -0.590  0.00  0.00    +0.000 C 
BRANCH   9  15
ATOM     15  N   UNL     1       2.032  -0.462  -2.666  0.00  0.00    +0.000 NA
ATOM     16  H   UNL     1       2.800  -0.041  -3.189  0.00  0.00    +0.000 HD
ATOM     17  H   UNL     1       1.414   0.312  -2.421  0.00  0.00    +0.000 HD
ENDBRANCH   9  15
ENDBRANCH   1  12
BRANCH   5  18
ATOM     18  C   UNL     1       3.751   4.495   4.845  0.00  0.00    +0.000 C 
BRANCH  18  19
ATOM     19  N   UNL     1       2.966   4.657   6.044  0.00  0.00    +0.000 N 
ATOM     20  C   UNL     1       3.177   5.707   6.900  0.00  0.00    +0.000 C 
ATOM     21  O   UNL     1       4.012   6.577   6.665  0.00  0.00    +0.000 OA
ATOM     22  H   UNL     1       2.431   3.856   6.364  0.00  0.00    +0.000 HD
BRANCH  20  23
ATOM     23  C   UNL     1       2.309   5.776   8.084  0.00  0.00    +0.000 A 
ATOM     24  C   UNL     1       2.111   6.994   8.719  0.00  0.00    +0.000 A 
ATOM     25  S   UNL     1       1.043   6.909  10.046  0.00  0.00    +0.000 S 
ATOM     26  C   UNL     1       0.845   5.227   9.850  0.00  0.00    +0.000 A 
ATOM     27  N   UNL     1       0.062   4.516  10.699  0.00  0.00    +0.000 NA
ATOM     28  C   UNL     1       0.029   3.245  10.455  0.00  0.00    +0.000 A 
ATOM     29  N   UNL     1       0.705   2.630   9.439  0.00  0.00    +0.000 N 
ATOM     30  C   UNL     1       1.484   3.318   8.535  0.00  0.00    +0.000 A 
ATOM     31  O   UNL     1       2.036   2.744   7.600  0.00  0.00    +0.000 OA
ATOM     32  C   UNL     1       1.569   4.745   8.775  0.00  0.00    +0.000 A 
ATOM     33  H   UNL     1       0.632   1.633   9.296  0.00  0.00    +0.000 HD
ENDBRANCH  20  23
ENDBRANCH  18  19
ENDBRANCH   5  18
TORSDOF 5
