REMARK  Name = 
REMARK  7 active torsions:
REMARK  status: ('A' for Active; 'I' for Inactive)
REMARK    1  A    between atoms: C_2  and  C_20
REMARK    2  A    between atoms: N_3  and  C_4
REMARK    3  A    between atoms: C_4  and  C_5
REMARK    4  A    between atoms: C_8  and  C_9
REMARK    5  A    between atoms: C_9  and  N_10
REMARK    6  A    between atoms: N_10  and  C_11
REMARK    7  A    between atoms: C_11  and  C_12
REMARK                            x       y       z     vdW  Elec       q    Type
REMARK                         _______ _______ _______ _____ _____    ______ ____
ROOT
ATOM      1  C   UNL     1       2.222   1.895  -1.825  0.00  0.00    +0.000 C 
ENDROOT
BRANCH   1   2
ATOM      2  C   UNL     1       3.236   2.827  -2.522  0.00  0.00    +0.000 C 
ATOM      3  C   UNL     1       4.705   2.434  -2.263  0.00  0.00    +0.000 C 
ATOM      4  C   UNL     1       5.688   3.404  -2.924  0.00  0.00    +0.000 C 
ATOM      5  C   UNL     1       5.461   4.851  -2.464  0.00  0.00    +0.000 C 
ATOM      6  C   UNL     1       3.994   5.251  -2.702  0.00  0.00    +0.000 C 
ATOM      7  C   UNL     1       3.009   4.274  -2.062  0.00  0.00    +0.000 C 
BRANCH   5   8
ATOM      8  C   UNL     1       6.442   5.809  -3.177  0.00  0.00    +0.000 C 
BRANCH   8   9
ATOM      9  N   UNL     1       6.238   7.178  -2.719  0.00  0.00    +0.000 NA
ATOM     10  H   UNL     1       6.391   7.255  -1.712  0.00  0.00    +0.000 HD
BRANCH   9  11
ATOM     11  C   UNL     1       7.139   8.136  -3.380  0.00  0.00    +0.000 C 
BRANCH  11  12
ATOM     12  C   UNL     1       6.921   9.567  -2.904  0.00  0.00    +0.000 A 
ATOM     13  N   UNL     1       7.086   9.816  -1.584  0.00  0.00    +0.000 NA
ATOM     14  C   UNL     1       6.917  11.093  -1.192  0.00  0.00    +0.000 A 
ATOM     15  C   UNL     1       6.604  12.117  -2.053  0.00  0.00    +0.000 A 
ATOM     16  C   UNL     1       6.453  11.760  -3.371  0.00  0.00    +0.000 A 
ATOM     17  N   UNL     1       6.608  10.503  -3.825  0.00  0.00    +0.000 NA
ENDBRANCH  11  12
ENDBRANCH   9  11
ENDBRANCH   8   9
ENDBRANCH   5   8
ENDBRANCH   1   2
BRANCH   1  20
ATOM     18  O   UNL     1       0.527  -0.283  -1.106  0.00  0.00    +0.000 OA
ATOM     19  C   UNL     1       1.509  -0.474  -1.801  0.00  0.00    +0.000 C 
ATOM     20  N   UNL     1       2.365   0.518  -2.244  0.00  0.00    +0.000 N 
ATOM     21  H   UNL     1       3.314   0.199  -2.355  0.00  0.00    +0.000 HD
BRANCH  19  22
ATOM     22  C   UNL     1       2.109  -1.784  -2.026  0.00  0.00    +0.000 A 
ATOM     23  C   UNL     1       2.100  -2.763  -1.050  0.00  0.00    +0.000 A 
ATOM     24  S   UNL     1       3.467  -3.788  -1.204  0.00  0.00    +0.000 S 
ATOM     25  C   UNL     1       3.912  -3.068  -2.690  0.00  0.00    +0.000 A 
ATOM     26  N   UNL     1       5.079  -3.358  -3.312  0.00  0.00    +0.000 NA
ATOM     27  C   UNL     1       5.228  -2.787  -4.468  0.00  0.00    +0.000 A 
ATOM     28  N   UNL     1       4.285  -1.989  -5.068  0.00  0.00    +0.000 N 
ATOM     29  C   UNL     1       3.097  -1.641  -4.464  0.00  0.00    +0.000 A 
ATOM     30  O   UNL     1       2.257  -0.960  -5.042  0.00  0.00    +0.000 OA
ATOM     31  C   UNL     1       2.953  -2.177  -3.122  0.00  0.00    +0.000 A 
ATOM     32  H   UNL     1       4.430  -1.646  -6.011  0.00  0.00    +0.000 HD
ENDBRANCH  19  22
ENDBRANCH   1  20
TORSDOF 7
