REMARK  Name = 
REMARK  7 active torsions:
REMARK  status: ('A' for Active; 'I' for Inactive)
REMARK    1  A    between atoms: C_2  and  C_20
REMARK    2  A    between atoms: N_3  and  C_4
REMARK    3  A    between atoms: C_4  and  C_5
REMARK    4  A    between atoms: C_8  and  C_9
REMARK    5  A    between atoms: C_9  and  N_10
REMARK    6  A    between atoms: N_10  and  C_11
REMARK    7  A    between atoms: C_11  and  C_12
REMARK                            x       y       z     vdW  Elec       q    Type
REMARK                         _______ _______ _______ _____ _____    ______ ____
ROOT
ATOM      1  C   UNL     1       2.299  -0.686  -2.273  0.00  0.00    +0.000 C 
ENDROOT
BRANCH   1   2
ATOM      2  C   UNL     1       3.287  -1.037  -3.353  0.00  0.00    +0.000 A 
ATOM      3  C   UNL     1       4.005  -0.026  -4.003  0.00  0.00    +0.000 A 
ATOM      4  C   UNL     1       4.928  -0.341  -5.002  0.00  0.00    +0.000 A 
ATOM      5  C   UNL     1       5.172  -1.674  -5.366  0.00  0.00    +0.000 A 
ATOM      6  C   UNL     1       4.423  -2.681  -4.740  0.00  0.00    +0.000 A 
ATOM      7  C   UNL     1       3.490  -2.366  -3.745  0.00  0.00    +0.000 A 
BRANCH   5   8
ATOM      8  C   UNL     1       6.171  -2.032  -6.449  0.00  0.00    +0.000 C 
BRANCH   8   9
ATOM      9  N   UNL     1       7.293  -1.096  -6.481  0.00  0.00    +0.000 NA
ATOM     10  H   UNL     1       7.743  -1.087  -5.567  0.00  0.00    +0.000 HD
BRANCH   9  11
ATOM     11  C   UNL     1       8.272  -1.405  -7.518  0.00  0.00    +0.000 C 
BRANCH  11  12
ATOM     12  C   UNL     1       9.389  -0.340  -7.509  0.00  0.00    +0.000 C 
ATOM     13  C   UNL     1       8.836   1.066  -7.812  0.00  0.00    +0.000 C 
ATOM     14  C   UNL     1       9.942   2.116  -7.851  0.00  0.00    +0.000 C 
ATOM     15  C   UNL     1      11.031   1.740  -8.848  0.00  0.00    +0.000 C 
ATOM     16  C   UNL     1      11.598   0.356  -8.552  0.00  0.00    +0.000 C 
ATOM     17  C   UNL     1      10.501  -0.707  -8.507  0.00  0.00    +0.000 C 
ENDBRANCH  11  12
ENDBRANCH   9  11
ENDBRANCH   8   9
ENDBRANCH   5   8
ENDBRANCH   1   2
BRANCH   1  20
ATOM     18  O   UNL     1       1.366   1.873  -2.930  0.00  0.00    +0.000 OA
ATOM     19  C   UNL     1       0.644   0.909  -3.141  0.00  0.00    +0.000 C 
ATOM     20  N   UNL     1       0.998  -0.382  -2.817  0.00  0.00    +0.000 N 
ATOM     21  H   UNL     1       0.433  -1.144  -3.163  0.00  0.00    +0.000 HD
BRANCH  19  22
ATOM     22  C   UNL     1      -0.689   1.049  -3.721  0.00  0.00    +0.000 A 
ATOM     23  C   UNL     1      -1.793   0.274  -3.381  0.00  0.00    +0.000 A 
ATOM     24  N   UNL     1      -2.892   0.780  -4.020  0.00  0.00    +0.000 N 
ATOM     25  C   UNL     1      -2.524   1.846  -4.788  0.00  0.00    +0.000 A 
ATOM     26  N   UNL     1      -3.379   2.562  -5.534  0.00  0.00    +0.000 NA
ATOM     27  C   UNL     1      -2.758   3.544  -6.208  0.00  0.00    +0.000 A 
ATOM     28  N   UNL     1      -1.448   3.829  -6.220  0.00  0.00    +0.000 NA
ATOM     29  C   UNL     1      -0.652   3.073  -5.443  0.00  0.00    +0.000 A 
ATOM     30 CL   UNL     1       1.014   3.354  -5.561  0.00  0.00    +0.000 Cl
ATOM     31  C   UNL     1      -1.154   2.034  -4.661  0.00  0.00    +0.000 A 
ATOM     32  H   UNL     1      -3.844   0.451  -3.938  0.00  0.00    +0.000 HD
ENDBRANCH  19  22
ENDBRANCH   1  20
TORSDOF 7
