REMARK  Name = 
REMARK  9 active torsions:
REMARK  status: ('A' for Active; 'I' for Inactive)
REMARK    1  A    between atoms: C_1  and  O_2
REMARK    2  A    between atoms: O_2  and  C_3
REMARK    3  A    between atoms: C_7  and  C_8
REMARK    4  A    between atoms: C_8  and  O_9
REMARK    5  A    between atoms: O_9  and  C_10
REMARK    6  A    between atoms: C_10  and  C_11
REMARK    7  A    between atoms: C_14  and  C_15
REMARK    8  A    between atoms: C_15  and  N_16
REMARK    9  A    between atoms: C_17  and  C_19
REMARK                            x       y       z     vdW  Elec       q    Type
REMARK                         _______ _______ _______ _____ _____    ______ ____
ROOT
ATOM      1  C   UNL     1       9.433  -2.618   3.733  0.00  0.00    +0.000 A 
ATOM      2  C   UNL     1       8.980  -3.889   3.404  0.00  0.00    +0.000 A 
ATOM      3  C   UNL     1       9.572  -4.990   4.007  0.00  0.00    +0.000 A 
ATOM      4  C   UNL     1      10.611  -4.776   4.899  0.00  0.00    +0.000 A 
ATOM      5  N   UNL     1      11.049  -3.527   5.184  0.00  0.00    +0.000 NA
ATOM      6  N   UNL     1      10.458  -2.441   4.596  0.00  0.00    +0.000 NA
ENDROOT
BRANCH   1   7
ATOM      7  C   UNL     1       8.765  -1.395   3.168  0.00  0.00    +0.000 C 
BRANCH   7   8
ATOM      8  O   UNL     1       7.384  -1.444   3.523  0.00  0.00    +0.000 OA
BRANCH   8   9
ATOM      9  C   UNL     1       6.653  -0.336   3.014  0.00  0.00    +0.000 C 
BRANCH   9  14
ATOM     10  C   UNL     1       3.046   0.621   3.802  0.00  0.00    +0.000 A 
ATOM     11  C   UNL     1       2.463  -0.626   4.024  0.00  0.00    +0.000 A 
ATOM     12  C   UNL     1       3.237  -1.784   3.936  0.00  0.00    +0.000 A 
ATOM     13  C   UNL     1       4.595  -1.700   3.624  0.00  0.00    +0.000 A 
ATOM     14  C   UNL     1       5.202  -0.455   3.413  0.00  0.00    +0.000 A 
ATOM     15  C   UNL     1       4.411   0.699   3.506  0.00  0.00    +0.000 A 
BRANCH  10  17
ATOM     16  C   UNL     1       0.991   1.796   4.008  0.00  0.00    +0.000 C 
ATOM     17  O   UNL     1       2.401   1.828   3.834  0.00  0.00    +0.000 OA
ENDBRANCH  10  17
ENDBRANCH   9  14
ENDBRANCH   8   9
ENDBRANCH   7   8
ENDBRANCH   1   7
BRANCH   4  18
ATOM     18  C   UNL     1      11.261  -5.923   5.622  0.00  0.00    +0.000 C 
BRANCH  18  19
ATOM     19  N   UNL     1      10.621  -6.207   6.887  0.00  0.00    +0.000 N 
ATOM     20  C   UNL     1       9.686  -7.194   7.046  0.00  0.00    +0.000 C 
ATOM     21  O   UNL     1       9.341  -7.921   6.118  0.00  0.00    +0.000 OA
ATOM     22  H   UNL     1      10.709  -5.482   7.593  0.00  0.00    +0.000 HD
BRANCH  20  23
ATOM     23  C   UNL     1       9.172  -7.388   8.410  0.00  0.00    +0.000 A 
ATOM     24  C   UNL     1       8.628  -8.613   8.774  0.00  0.00    +0.000 A 
ATOM     25  S   UNL     1       8.134  -8.686  10.405  0.00  0.00    +0.000 S 
ATOM     26  C   UNL     1       8.581  -7.066  10.671  0.00  0.00    +0.000 A 
ATOM     27  N   UNL     1       8.399  -6.479  11.885  0.00  0.00    +0.000 NA
ATOM     28  C   UNL     1       8.749  -5.237  11.935  0.00  0.00    +0.000 A 
ATOM     29  N   UNL     1       9.272  -4.530  10.884  0.00  0.00    +0.000 N 
ATOM     30  C   UNL     1       9.529  -5.099   9.660  0.00  0.00    +0.000 A 
ATOM     31  O   UNL     1      10.094  -4.469   8.773  0.00  0.00    +0.000 OA
ATOM     32  C   UNL     1       9.121  -6.485   9.537  0.00  0.00    +0.000 A 
ATOM     33  H   UNL     1       9.548  -3.566  10.993  0.00  0.00    +0.000 HD
ENDBRANCH  20  23
ENDBRANCH  18  19
ENDBRANCH   4  18
TORSDOF 8
