REMARK  Name = 
REMARK  5 active torsions:
REMARK  status: ('A' for Active; 'I' for Inactive)
REMARK    1  A    between atoms: C_2  and  C_4
REMARK    2  A    between atoms: C_7  and  O_8
REMARK    3  A    between atoms: O_8  and  C_9
REMARK    4  A    between atoms: C_9  and  C_10
REMARK    5  A    between atoms: C_14  and  C_15
REMARK                            x       y       z     vdW  Elec       q    Type
REMARK                         _______ _______ _______ _____ _____    ______ ____
ROOT
ATOM      1  C   UNL     1       4.638   4.560  -3.885  0.00  0.00    +0.000 C 
ENDROOT
BRANCH   1   2
ATOM      2  C   UNL     1       5.466   5.201  -4.974  0.00  0.00    +0.000 A 
ATOM      3  C   UNL     1       4.926   6.218  -5.762  0.00  0.00    +0.000 A 
ATOM      4  C   UNL     1       5.737   6.825  -6.704  0.00  0.00    +0.000 A 
ATOM      5  N   UNL     1       7.031   6.493  -6.909  0.00  0.00    +0.000 NA
ATOM      6  C   UNL     1       7.557   5.500  -6.150  0.00  0.00    +0.000 A 
ATOM      7  C   UNL     1       6.808   4.857  -5.165  0.00  0.00    +0.000 A 
BRANCH   6   8
ATOM      8  C   UNL     1       8.950   5.148  -6.434  0.00  0.00    +0.000 A 
ATOM      9  C   UNL     1       9.879   6.059  -6.906  0.00  0.00    +0.000 A 
ATOM     10  N   UNL     1      11.174   5.769  -7.174  0.00  0.00    +0.000 NA
ATOM     11  C   UNL     1      11.540   4.497  -6.964  0.00  0.00    +0.000 A 
ATOM     12  N   UNL     1      10.746   3.514  -6.517  0.00  0.00    +0.000 NA
ATOM     13  C   UNL     1       9.465   3.872  -6.270  0.00  0.00    +0.000 A 
ENDBRANCH   6   8
ENDBRANCH   1   2
BRANCH   1  14
ATOM     14  O   UNL     1       5.036   3.199  -3.682  0.00  0.00    +0.000 OA
BRANCH  14  18
ATOM     15  C   UNL     1       2.974   1.390  -0.610  0.00  0.00    +0.000 A 
ATOM     16  C   UNL     1       3.960   0.675  -1.294  0.00  0.00    +0.000 A 
ATOM     17  C   UNL     1       4.650   1.295  -2.339  0.00  0.00    +0.000 A 
ATOM     18  C   UNL     1       4.328   2.606  -2.656  0.00  0.00    +0.000 A 
ATOM     19  N   UNL     1       3.372   3.316  -2.019  0.00  0.00    +0.000 NA
ATOM     20  C   UNL     1       2.708   2.690  -1.018  0.00  0.00    +0.000 A 
BRANCH  15  22
ATOM     21  N   UNL     1       2.779  -0.135   1.269  0.00  0.00    +0.000 N 
ATOM     22  C   UNL     1       2.190   0.839   0.513  0.00  0.00    +0.000 C 
ATOM     23  O   UNL     1       1.077   1.268   0.786  0.00  0.00    +0.000 OA
ATOM     24  H   UNL     1       2.278  -0.408   2.106  0.00  0.00    +0.000 HD
ATOM     25  H   UNL     1       3.772  -0.319   1.240  0.00  0.00    +0.000 HD
ENDBRANCH  15  22
ENDBRANCH  14  18
ENDBRANCH   1  14
TORSDOF 5
