REMARK  Name = 
REMARK  6 active torsions:
REMARK  status: ('A' for Active; 'I' for Inactive)
REMARK    1  A    between atoms: C_4  and  N_5
REMARK    2  A    between atoms: N_5  and  C_6
REMARK    3  A    between atoms: C_6  and  C_7
REMARK    4  A    between atoms: C_7  and  C_8
REMARK    5  A    between atoms: C_12  and  O_13
REMARK    6  A    between atoms: O_13  and  C_14
REMARK                            x       y       z     vdW  Elec       q    Type
REMARK                         _______ _______ _______ _____ _____    ______ ____
ROOT
ATOM      1  C   UNL     1      -6.039  -1.385  -0.603  0.00  0.00    +0.000 A 
ATOM      2  C   UNL     1      -5.539  -2.689  -0.747  0.00  0.00    +0.000 A 
ATOM      3  C   UNL     1      -6.392  -3.791  -0.794  0.00  0.00    +0.000 A 
ATOM      4  C   UNL     1      -7.769  -3.613  -0.716  0.00  0.00    +0.000 A 
ATOM      5  C   UNL     1      -8.295  -2.327  -0.610  0.00  0.00    +0.000 A 
ATOM      6  C   UNL     1      -7.432  -1.221  -0.539  0.00  0.00    +0.000 A 
ENDROOT
BRANCH   1   7
ATOM      7  C   UNL     1      -5.129  -0.165  -0.491  0.00  0.00    +0.000 C 
BRANCH   7   8
ATOM      8  C   UNL     1      -3.642  -0.531  -0.562  0.00  0.00    +0.000 C 
BRANCH   8   9
ATOM      9  N   UNL     1      -2.726   0.590  -0.406  0.00  0.00    +0.000 N 
ATOM     10  H   UNL     1      -2.931   1.392  -0.994  0.00  0.00    +0.000 HD
BRANCH   9  14
ATOM     11  C   UNL     1       1.430  -0.260  -0.449  0.00  0.00    +0.000 A 
ATOM     12  C   UNL     1       0.525  -1.293  -0.631  0.00  0.00    +0.000 A 
ATOM     13  C   UNL     1      -0.847  -1.032  -0.624  0.00  0.00    +0.000 A 
ATOM     14  C   UNL     1      -1.347   0.272  -0.463  0.00  0.00    +0.000 A 
ATOM     15  C   UNL     1      -0.417   1.298  -0.267  0.00  0.00    +0.000 A 
ATOM     16  C   UNL     1       0.959   1.039  -0.257  0.00  0.00    +0.000 A 
ENDBRANCH   9  14
ENDBRANCH   8   9
ENDBRANCH   7   8
ENDBRANCH   1   7
BRANCH   5  17
ATOM     17  O   UNL     1      -9.638  -2.043  -0.525  0.00  0.00    +0.000 OA
BRANCH  17  18
ATOM     18  C   UNL     1     -10.590  -3.007  -1.035  0.00  0.00    +0.000 C 
ATOM     19  C   UNL     1     -10.654  -3.185  -2.573  0.00  0.00    +0.000 C 
ATOM     20  C   UNL     1     -12.186  -3.148  -2.486  0.00  0.00    +0.000 C 
ATOM     21  C   UNL     1     -12.053  -2.497  -1.102  0.00  0.00    +0.000 C 
ENDBRANCH  17  18
ENDBRANCH   5  17
TORSDOF 6
