REMARK  Name = 
REMARK  5 active torsions:
REMARK  status: ('A' for Active; 'I' for Inactive)
REMARK    1  A    between atoms: C_2  and  C_4
REMARK    2  A    between atoms: N_8  and  C_9
REMARK    3  A    between atoms: C_9  and  C_10
REMARK    4  A    between atoms: C_10  and  C_11
REMARK    5  A    between atoms: C_15  and  C_16
REMARK                            x       y       z     vdW  Elec       q    Type
REMARK                         _______ _______ _______ _____ _____    ______ ____
ROOT
ATOM      1  C   UNL     1       5.032  -3.838  -4.600  0.00  0.00    +0.000 C 
ENDROOT
BRANCH   1   6
ATOM      2  C   UNL     1       3.110  -1.014  -0.848  0.00  0.00    +0.000 A 
ATOM      3  C   UNL     1       2.475  -1.557  -1.958  0.00  0.00    +0.000 A 
ATOM      4  C   UNL     1       3.173  -2.452  -2.767  0.00  0.00    +0.000 A 
ATOM      5  C   UNL     1       4.495  -2.771  -2.465  0.00  0.00    +0.000 A 
ATOM      6  N   UNL     1       5.221  -3.724  -3.162  0.00  0.00    +0.000 N 
ATOM      7  N   UNL     1       5.132  -2.217  -1.416  0.00  0.00    +0.000 NA
ATOM      8  C   UNL     1       4.436  -1.350  -0.633  0.00  0.00    +0.000 A 
ATOM      9  H   UNL     1       6.184  -3.654  -2.837  0.00  0.00    +0.000 HD
BRANCH   2  11
ATOM     10  N   UNL     1       1.066  -0.270   0.229  0.00  0.00    +0.000 N 
ATOM     11  C   UNL     1       2.418  -0.122   0.104  0.00  0.00    +0.000 C 
ATOM     12  O   UNL     1       3.034   0.692   0.781  0.00  0.00    +0.000 OA
ATOM     13  H   UNL     1       0.618   0.262   0.966  0.00  0.00    +0.000 HD
ATOM     14  H   UNL     1       0.577  -1.086  -0.115  0.00  0.00    +0.000 HD
ENDBRANCH   2  11
ENDBRANCH   1   6
BRANCH   1  15
ATOM     15  C   UNL     1       5.969  -4.901  -5.180  0.00  0.00    +0.000 C 
BRANCH  15  16
ATOM     16  C   UNL     1       5.712  -5.120  -6.646  0.00  0.00    +0.000 A 
ATOM     17  C   UNL     1       4.814  -6.086  -7.080  0.00  0.00    +0.000 A 
ATOM     18  N   UNL     1       4.533  -6.317  -8.377  0.00  0.00    +0.000 NA
ATOM     19  C   UNL     1       5.180  -5.549  -9.289  0.00  0.00    +0.000 A 
ATOM     20  C   UNL     1       6.086  -4.528  -8.990  0.00  0.00    +0.000 A 
ATOM     21  C   UNL     1       6.335  -4.329  -7.621  0.00  0.00    +0.000 A 
BRANCH  20  22
ATOM     22  C   UNL     1       6.737  -3.710 -10.039  0.00  0.00    +0.000 A 
ATOM     23  C   UNL     1       6.082  -3.410 -11.252  0.00  0.00    +0.000 A 
ATOM     24  C   UNL     1       6.697  -2.637 -12.243  0.00  0.00    +0.000 A 
ATOM     25  C   UNL     1       7.974  -2.140 -12.030  0.00  0.00    +0.000 A 
ATOM     26  F   UNL     1       8.560  -1.392 -12.974  0.00  0.00    +0.000 F 
ATOM     27  C   UNL     1       8.649  -2.408 -10.850  0.00  0.00    +0.000 A 
ATOM     28  C   UNL     1       8.037  -3.193  -9.867  0.00  0.00    +0.000 A 
ENDBRANCH  20  22
ENDBRANCH  15  16
ENDBRANCH   1  15
TORSDOF 5
