REMARK  Name = 
REMARK  5 active torsions:
REMARK  status: ('A' for Active; 'I' for Inactive)
REMARK    1  A    between atoms: C_2  and  C_5
REMARK    2  A    between atoms: C_7  and  C_8
REMARK    3  A    between atoms: C_8  and  N_9
REMARK    4  A    between atoms: N_9  and  C_10
REMARK    5  A    between atoms: C_14  and  C_15
REMARK                            x       y       z     vdW  Elec       q    Type
REMARK                         _______ _______ _______ _____ _____    ______ ____
ROOT
ATOM      1  N   UNL     1       3.807  -2.393   5.504  0.00  0.00    +0.000 N 
ATOM      2  H   UNL     1       3.640  -2.668   4.539  0.00  0.00    +0.000 HD
ENDROOT
BRANCH   1   3
ATOM      3  C   UNL     1       4.316  -3.459   6.262  0.00  0.00    +0.000 A 
ATOM      4  C   UNL     1       4.943  -4.526   5.613  0.00  0.00    +0.000 A 
ATOM      5  C   UNL     1       5.498  -5.579   6.341  0.00  0.00    +0.000 A 
ATOM      6  C   UNL     1       5.495  -5.551   7.736  0.00  0.00    +0.000 A 
ATOM      7  C   UNL     1       4.976  -4.451   8.424  0.00  0.00    +0.000 A 
ATOM      8  C   UNL     1       4.364  -3.436   7.662  0.00  0.00    +0.000 A 
BRANCH   7   9
ATOM      9  C   UNL     1       5.038  -4.277   9.941  0.00  0.00    +0.000 C 
ATOM     10  C   UNL     1       5.750  -2.967  10.347  0.00  0.00    +0.000 C 
ATOM     11  C   UNL     1       7.267  -3.076  10.196  0.00  0.00    +0.000 C 
ATOM     12  N   UNL     1       7.808  -4.166  11.009  0.00  0.00    +0.000 NA
ATOM     13  C   UNL     1       7.204  -5.447  10.645  0.00  0.00    +0.000 C 
ATOM     14  C   UNL     1       5.675  -5.427  10.744  0.00  0.00    +0.000 C 
ATOM     15  H   UNL     1       7.621  -3.973  11.993  0.00  0.00    +0.000 HD
ENDBRANCH   7   9
ENDBRANCH   1   3
BRANCH   1  16
ATOM     16  C   UNL     1       2.679  -1.652   6.055  0.00  0.00    +0.000 C 
BRANCH  16  19
ATOM     17  C   UNL     1       3.057   1.702   4.241  0.00  0.00    +0.000 A 
ATOM     18  C   UNL     1       3.335   0.545   4.993  0.00  0.00    +0.000 A 
ATOM     19  C   UNL     1       2.370  -0.459   5.181  0.00  0.00    +0.000 A 
ATOM     20  C   UNL     1       1.107  -0.301   4.603  0.00  0.00    +0.000 A 
ATOM     21  C   UNL     1       0.820   0.837   3.851  0.00  0.00    +0.000 A 
ATOM     22  C   UNL     1       1.788   1.833   3.672  0.00  0.00    +0.000 A 
ATOM     23 CL   UNL     1       1.340   3.214   2.737  0.00  0.00    +0.000 Cl
BRANCH  17  25
ATOM     24  F   UNL     1       5.287   2.452   4.698  0.00  0.00    +0.000 F 
ATOM     25  C   UNL     1       4.108   2.768   4.086  0.00  0.00    +0.000 C 
ATOM     26  F   UNL     1       3.735   3.962   4.627  0.00  0.00    +0.000 F 
ATOM     27  F   UNL     1       4.433   3.017   2.788  0.00  0.00    +0.000 F 
ENDBRANCH  17  25
ENDBRANCH  16  19
ENDBRANCH   1  16
TORSDOF 5
