REMARK  Name = 
REMARK  6 active torsions:
REMARK  status: ('A' for Active; 'I' for Inactive)
REMARK    1  A    between atoms: N_1  and  C_2
REMARK    2  A    between atoms: C_2  and  C_3
REMARK    3  A    between atoms: C_3  and  C_4
REMARK    4  A    between atoms: C_7  and  C_8
REMARK    5  A    between atoms: C_8  and  N_9
REMARK    6  A    between atoms: C_14  and  C_15
REMARK                            x       y       z     vdW  Elec       q    Type
REMARK                         _______ _______ _______ _____ _____    ______ ____
ROOT
ATOM      1  N   UNL     1      10.039  -1.323  -1.565  0.00  0.00    +0.000 N 
ATOM      2  C   UNL     1       9.960  -2.590  -1.043  0.00  0.00    +0.000 A 
ATOM      3  N   UNL     1      11.142  -3.133  -0.892  0.00  0.00    +0.000 NA
ATOM      4  C   UNL     1      12.026  -2.207  -1.373  0.00  0.00    +0.000 A 
ATOM      5  C   UNL     1      13.428  -2.224  -1.325  0.00  0.00    +0.000 A 
ATOM      6  C   UNL     1      14.149  -1.139  -1.847  0.00  0.00    +0.000 A 
ATOM      7  C   UNL     1      13.472  -0.126  -2.532  0.00  0.00    +0.000 A 
ATOM      8  C   UNL     1      12.070  -0.105  -2.597  0.00  0.00    +0.000 A 
ATOM      9 CL   UNL     1      11.307   1.145  -3.495  0.00  0.00    +0.000 Cl
ATOM     10  C   UNL     1      11.361  -1.117  -1.931  0.00  0.00    +0.000 A 
ENDROOT
BRANCH   6  11
ATOM     11  C   UNL     1      15.614  -1.104  -1.570  0.00  0.00    +0.000 C 
ATOM     12  N   UNL     1      16.358  -0.063  -2.046  0.00  0.00    +0.000 N 
ATOM     13  O   UNL     1      16.153  -1.966  -0.885  0.00  0.00    +0.000 OA
ATOM     14  H   UNL     1      16.022   0.702  -2.608  0.00  0.00    +0.000 HD
ATOM     15  H   UNL     1      17.333  -0.050  -1.770  0.00  0.00    +0.000 HD
ENDBRANCH   6  11
BRANCH   1  16
ATOM     16  C   UNL     1       9.069  -0.266  -1.272  0.00  0.00    +0.000 C 
BRANCH  16  20
ATOM     17  C   UNL     1       4.881  -1.256  -1.812  0.00  0.00    +0.000 A 
ATOM     18  C   UNL     1       5.499  -1.433  -0.570  0.00  0.00    +0.000 A 
ATOM     19  C   UNL     1       6.853  -1.127  -0.399  0.00  0.00    +0.000 A 
ATOM     20  C   UNL     1       7.620  -0.638  -1.468  0.00  0.00    +0.000 A 
ATOM     21  C   UNL     1       6.996  -0.448  -2.708  0.00  0.00    +0.000 A 
ATOM     22  C   UNL     1       5.639  -0.744  -2.874  0.00  0.00    +0.000 A 
BRANCH  17  23
ATOM     23  C   UNL     1       3.431  -1.631  -2.013  0.00  0.00    +0.000 C 
BRANCH  23  24
ATOM     24  C   UNL     1       2.457  -0.486  -1.715  0.00  0.00    +0.000 C 
BRANCH  24  25
ATOM     25  N   UNL     1       1.073  -0.910  -1.940  0.00  0.00    +0.000 NA
ATOM     26  H   UNL     1       0.443  -0.134  -1.739  0.00  0.00    +0.000 HD
ATOM     27  H   UNL     1       0.828  -1.651  -1.285  0.00  0.00    +0.000 HD
ENDBRANCH  24  25
ENDBRANCH  23  24
ENDBRANCH  17  23
ENDBRANCH  16  20
ENDBRANCH   1  16
TORSDOF 6
