REMARK  Name = 
REMARK  5 active torsions:
REMARK  status: ('A' for Active; 'I' for Inactive)
REMARK    1  A    between atoms: C_2  and  C_3
REMARK    2  A    between atoms: C_5  and  C_6
REMARK    3  A    between atoms: N_11  and  C_12
REMARK    4  A    between atoms: C_12  and  C_13
REMARK    5  A    between atoms: C_18  and  C_19
REMARK                            x       y       z     vdW  Elec       q    Type
REMARK                         _______ _______ _______ _____ _____    ______ ____
ROOT
ATOM      1  C   UNL     1       7.912   2.545  -0.012  0.00  0.00    +0.000 C 
ATOM      2  C   UNL     1       8.873   2.040  -1.082  0.00  0.00    +0.000 C 
ATOM      3  C   UNL     1       8.912   1.443   0.286  0.00  0.00    +0.000 C 
ENDROOT
BRANCH   1   9
ATOM      4  C   UNL     1       3.494   1.011   1.141  0.00  0.00    +0.000 A 
ATOM      5  C   UNL     1       3.838   0.568   2.384  0.00  0.00    +0.000 A 
ATOM      6  C   UNL     1       5.155   0.767   2.706  0.00  0.00    +0.000 A 
ATOM      7  N   UNL     1       6.075   1.317   1.872  0.00  0.00    +0.000 NA
ATOM      8  C   UNL     1       5.633   1.717   0.679  0.00  0.00    +0.000 A 
ATOM      9  N   UNL     1       6.501   2.259  -0.261  0.00  0.00    +0.000 N 
ATOM     10  N   UNL     1       4.359   1.600   0.288  0.00  0.00    +0.000 NA
ATOM     11  H   UNL     1       5.978   2.790  -0.946  0.00  0.00    +0.000 HD
BRANCH   6  12
ATOM     12  C   UNL     1       5.647   0.371   4.058  0.00  0.00    +0.000 C 
ATOM     13  N   UNL     1       6.969   0.620   4.305  0.00  0.00    +0.000 N 
ATOM     14  O   UNL     1       4.911  -0.136   4.891  0.00  0.00    +0.000 OA
ATOM     15  H   UNL     1       7.562   0.995   3.575  0.00  0.00    +0.000 HD
ATOM     16  H   UNL     1       7.363   0.350   5.196  0.00  0.00    +0.000 HD
ENDBRANCH   6  12
BRANCH   4  18
ATOM     17  N   UNL     1       1.063   0.689   0.278  0.00  0.00    +0.000 NA
ATOM     18  C   UNL     1       2.154   0.843   0.649  0.00  0.00    +0.000 C 
ENDBRANCH   4  18
ENDBRANCH   1   9
BRANCH   1  19
ATOM     19  C   UNL     1       8.178   3.907   0.615  0.00  0.00    +0.000 A 
ATOM     20  C   UNL     1       8.187   4.073   2.008  0.00  0.00    +0.000 A 
ATOM     21  C   UNL     1       8.475   5.306   2.583  0.00  0.00    +0.000 A 
ATOM     22  C   UNL     1       8.736   6.403   1.769  0.00  0.00    +0.000 A 
ATOM     23  F   UNL     1       9.031   7.561   2.380  0.00  0.00    +0.000 F 
ATOM     24  C   UNL     1       8.694   6.319   0.367  0.00  0.00    +0.000 A 
ATOM     25  C   UNL     1       8.421   5.047  -0.178  0.00  0.00    +0.000 A 
BRANCH  24  26
ATOM     26  C   UNL     1       8.874   7.502  -0.510  0.00  0.00    +0.000 A 
ATOM     27  C   UNL     1       8.447   8.784  -0.100  0.00  0.00    +0.000 A 
ATOM     28  C   UNL     1       8.556   9.900  -0.935  0.00  0.00    +0.000 A 
ATOM     29  C   UNL     1       9.074   9.749  -2.211  0.00  0.00    +0.000 A 
ATOM     30  F   UNL     1       9.144  10.811  -3.024  0.00  0.00    +0.000 F 
ATOM     31  C   UNL     1       9.507   8.505  -2.641  0.00  0.00    +0.000 A 
ATOM     32  F   UNL     1       9.998   8.352  -3.879  0.00  0.00    +0.000 F 
ATOM     33  C   UNL     1       9.425   7.394  -1.801  0.00  0.00    +0.000 A 
ENDBRANCH  24  26
ENDBRANCH   1  19
TORSDOF 5
