REMARK  Name = 
REMARK  7 active torsions:
REMARK  status: ('A' for Active; 'I' for Inactive)
REMARK    1  A    between atoms: C_2  and  C_3
REMARK    2  A    between atoms: C_3  and  N_4
REMARK    3  A    between atoms: C_3  and  C_22
REMARK    4  A    between atoms: C_5  and  C_7
REMARK    5  A    between atoms: C_10  and  C_11
REMARK    6  A    between atoms: C_11  and  N_12
REMARK    7  A    between atoms: C_13  and  C_15
REMARK                            x       y       z     vdW  Elec       q    Type
REMARK                         _______ _______ _______ _____ _____    ______ ____
ROOT
ATOM      1  N   UNL     1       2.421   0.208  -0.170  0.00  0.00    +0.000 N 
ATOM      2  C   UNL     1       1.686  -0.403  -1.157  0.00  0.00    +0.000 C 
ATOM      3  O   UNL     1       2.189  -1.019  -2.088  0.00  0.00    +0.000 OA
ATOM      4  H   UNL     1       1.976   0.498   0.699  0.00  0.00    +0.000 HD
ENDROOT
BRANCH   2   5
ATOM      5  C   UNL     1       0.213  -0.305  -1.029  0.00  0.00    +0.000 A 
ATOM      6  C   UNL     1      -0.413   0.769  -0.400  0.00  0.00    +0.000 A 
ATOM      7  C   UNL     1      -1.802   0.781  -0.289  0.00  0.00    +0.000 A 
ATOM      8  C   UNL     1      -2.537  -0.277  -0.825  0.00  0.00    +0.000 A 
ATOM      9  N   UNL     1      -1.943  -1.319  -1.465  0.00  0.00    +0.000 NA
ATOM     10  C   UNL     1      -0.588  -1.305  -1.564  0.00  0.00    +0.000 A 
BRANCH   8  11
ATOM     11  C   UNL     1      -4.045  -0.293  -0.702  0.00  0.00    +0.000 C 
BRANCH  11  12
ATOM     12  N   UNL     1      -4.510  -0.981   0.482  0.00  0.00    +0.000 N 
ATOM     13  C   UNL     1      -4.772  -0.354   1.676  0.00  0.00    +0.000 C 
ATOM     14  O   UNL     1      -4.554   0.840   1.870  0.00  0.00    +0.000 OA
ATOM     15  H   UNL     1      -4.727  -1.973   0.437  0.00  0.00    +0.000 HD
BRANCH  13  16
ATOM     16  C   UNL     1      -5.335  -1.275   2.772  0.00  0.00    +0.000 C 
ATOM     17  C   UNL     1      -4.273  -1.894   3.661  0.00  0.00    +0.000 C 
ATOM     18  C   UNL     1      -5.013  -3.057   4.298  0.00  0.00    +0.000 C 
ATOM     19  C   UNL     1      -6.038  -3.481   3.254  0.00  0.00    +0.000 C 
ATOM     20  N   UNL     1      -5.983  -2.478   2.186  0.00  0.00    +0.000 NA
ATOM     21  H   UNL     1      -6.924  -2.238   1.873  0.00  0.00    +0.000 HD
ENDBRANCH  13  16
ENDBRANCH  11  12
ENDBRANCH   8  11
ENDBRANCH   2   5
BRANCH   1  22
ATOM     22  C   UNL     1       3.870   0.113  -0.141  0.00  0.00    +0.000 C 
BRANCH  22  23
ATOM     23  C   UNL     1       4.260  -1.133   0.624  0.00  0.00    +0.000 A 
ATOM     24  C   UNL     1       5.023  -2.153   0.076  0.00  0.00    +0.000 A 
ATOM     25  S   UNL     1       5.340  -3.425   1.172  0.00  0.00    +0.000 S 
ATOM     26  C   UNL     1       4.464  -2.657   2.414  0.00  0.00    +0.000 A 
ATOM     27  N   UNL     1       4.353  -3.209   3.651  0.00  0.00    +0.000 NA
ATOM     28  C   UNL     1       3.686  -2.492   4.495  0.00  0.00    +0.000 A 
ATOM     29  N   UNL     1       3.101  -1.280   4.208  0.00  0.00    +0.000 N 
ATOM     30  C   UNL     1       3.112  -0.729   2.947  0.00  0.00    +0.000 A 
ATOM     31  O   UNL     1       2.459   0.268   2.655  0.00  0.00    +0.000 OA
ATOM     32  C   UNL     1       3.919  -1.462   1.990  0.00  0.00    +0.000 A 
ATOM     33  H   UNL     1       2.566  -0.793   4.911  0.00  0.00    +0.000 HD
ENDBRANCH  22  23
BRANCH  22  35
ATOM     34  N   UNL     1       4.984   2.271   0.904  0.00  0.00    +0.000 NA
ATOM     35  C   UNL     1       4.496   1.321   0.450  0.00  0.00    +0.000 C 
ENDBRANCH  22  35
ENDBRANCH   1  22
TORSDOF 7
