REMARK  Name = 
REMARK  7 active torsions:
REMARK  status: ('A' for Active; 'I' for Inactive)
REMARK    1  A    between atoms: C_1  and  C_2
REMARK    2  A    between atoms: C_2  and  N_3
REMARK    3  A    between atoms: C_2  and  C_12
REMARK    4  A    between atoms: C_4  and  C_6
REMARK    5  A    between atoms: C_15  and  C_16
REMARK    6  A    between atoms: C_16  and  N_17
REMARK    7  A    between atoms: C_18  and  C_20
REMARK                            x       y       z     vdW  Elec       q    Type
REMARK                         _______ _______ _______ _____ _____    ______ ____
ROOT
ATOM      1  C   UNL     1      -1.215   0.884  -6.125  0.00  0.00    +0.000 A 
ATOM      2  C   UNL     1      -1.501   2.169  -5.638  0.00  0.00    +0.000 A 
ATOM      3  C   UNL     1      -2.818   2.637  -5.593  0.00  0.00    +0.000 A 
ATOM      4  C   UNL     1      -3.874   1.827  -6.028  0.00  0.00    +0.000 A 
ATOM      5  C   UNL     1      -3.589   0.544  -6.511  0.00  0.00    +0.000 A 
ATOM      6  C   UNL     1      -2.279   0.073  -6.549  0.00  0.00    +0.000 A 
ENDROOT
BRANCH   1   8
ATOM      7  C   UNL     1       0.460  -0.812  -5.306  0.00  0.00    +0.000 C 
ATOM      8  C   UNL     1       0.218   0.401  -6.208  0.00  0.00    +0.000 C 
BRANCH   8   9
ATOM      9  N   UNL     1       0.572   0.110  -7.591  0.00  0.00    +0.000 N 
ATOM     10  C   UNL     1       1.868   0.258  -8.034  0.00  0.00    +0.000 C 
ATOM     11  O   UNL     1       2.762   0.664  -7.290  0.00  0.00    +0.000 OA
ATOM     12  H   UNL     1      -0.163  -0.079  -8.259  0.00  0.00    +0.000 HD
BRANCH  10  13
ATOM     13  C   UNL     1       2.095  -0.086  -9.528  0.00  0.00    +0.000 C 
ATOM     14  C   UNL     1       3.556   0.137  -9.941  0.00  0.00    +0.000 C 
ATOM     15  C   UNL     1       4.491  -0.892  -9.308  0.00  0.00    +0.000 C 
ATOM     16  C   UNL     1       4.000  -2.306  -9.586  0.00  0.00    +0.000 C 
ATOM     17  C   UNL     1       2.523  -2.480  -9.234  0.00  0.00    +0.000 C 
ATOM     18  N   UNL     1       1.668  -1.467  -9.858  0.00  0.00    +0.000 NA
ATOM     19  H   UNL     1       0.705  -1.618  -9.571  0.00  0.00    +0.000 HD
ENDBRANCH  10  13
ENDBRANCH   8   9
ENDBRANCH   1   8
BRANCH   4  20
ATOM     20  C   UNL     1      -5.292   2.334  -6.049  0.00  0.00    +0.000 C 
BRANCH  20  21
ATOM     21  N   UNL     1      -5.589   2.955  -7.316  0.00  0.00    +0.000 N 
ATOM     22  C   UNL     1      -6.800   3.548  -7.557  0.00  0.00    +0.000 C 
ATOM     23  O   UNL     1      -7.683   3.599  -6.705  0.00  0.00    +0.000 OA
ATOM     24  H   UNL     1      -4.990   2.713  -8.099  0.00  0.00    +0.000 HD
BRANCH  22  25
ATOM     25  C   UNL     1      -6.961   4.184  -8.871  0.00  0.00    +0.000 A 
ATOM     26  C   UNL     1      -7.875   5.217  -9.026  0.00  0.00    +0.000 A 
ATOM     27  S   UNL     1      -7.896   5.880 -10.598  0.00  0.00    +0.000 S 
ATOM     28  C   UNL     1      -6.724   4.772 -11.140  0.00  0.00    +0.000 A 
ATOM     29  N   UNL     1      -6.302   4.776 -12.433  0.00  0.00    +0.000 NA
ATOM     30  C   UNL     1      -5.431   3.866 -12.714  0.00  0.00    +0.000 A 
ATOM     31  N   UNL     1      -4.938   2.954 -11.818  0.00  0.00    +0.000 N 
ATOM     32  C   UNL     1      -5.313   2.932 -10.496  0.00  0.00    +0.000 A 
ATOM     33  O   UNL     1      -4.813   2.132  -9.710  0.00  0.00    +0.000 OA
ATOM     34  C   UNL     1      -6.303   3.926 -10.130  0.00  0.00    +0.000 A 
ATOM     35  H   UNL     1      -4.250   2.272 -12.102  0.00  0.00    +0.000 HD
ENDBRANCH  22  25
ENDBRANCH  20  21
ENDBRANCH   4  20
TORSDOF 6
