REMARK  Name = 
REMARK  7 active torsions:
REMARK  status: ('A' for Active; 'I' for Inactive)
REMARK    1  A    between atoms: C_1  and  C_2
REMARK    2  A    between atoms: C_2  and  N_3
REMARK    3  A    between atoms: C_2  and  C_16
REMARK    4  A    between atoms: C_4  and  C_6
REMARK    5  A    between atoms: C_19  and  O_20
REMARK    6  A    between atoms: O_20  and  C_21
REMARK    7  A    between atoms: C_21  and  C_22
REMARK                            x       y       z     vdW  Elec       q    Type
REMARK                         _______ _______ _______ _____ _____    ______ ____
ROOT
ATOM      1  C   UNL     1       3.734  -0.826  -0.447  0.00  0.00    +0.000 C 
ATOM      2  C   UNL     1       2.529   0.015  -0.015  0.00  0.00    +0.000 C 
ENDROOT
BRANCH   2   3
ATOM      3  C   UNL     1       2.923   0.913   1.147  0.00  0.00    +0.000 A 
ATOM      4  C   UNL     1       2.862   2.310   1.050  0.00  0.00    +0.000 A 
ATOM      5  C   UNL     1       3.126   3.106   2.171  0.00  0.00    +0.000 A 
ATOM      6  C   UNL     1       3.439   2.515   3.396  0.00  0.00    +0.000 A 
ATOM      7  C   UNL     1       3.583   1.132   3.477  0.00  0.00    +0.000 A 
ATOM      8  C   UNL     1       3.310   0.339   2.369  0.00  0.00    +0.000 A 
BRANCH   6   9
ATOM      9  O   UNL     1       3.562   3.361   4.468  0.00  0.00    +0.000 OA
BRANCH   9  10
ATOM     10  C   UNL     1       3.305   2.736   5.735  0.00  0.00    +0.000 C 
BRANCH  10  11
ATOM     11  C   UNL     1       2.899   3.737   6.788  0.00  0.00    +0.000 A 
ATOM     12  C   UNL     1       3.441   5.018   6.813  0.00  0.00    +0.000 A 
ATOM     13  C   UNL     1       3.040   5.896   7.814  0.00  0.00    +0.000 A 
ATOM     14  C   UNL     1       2.125   5.468   8.770  0.00  0.00    +0.000 A 
ATOM     15  C   UNL     1       1.651   4.172   8.690  0.00  0.00    +0.000 A 
ATOM     16  N   UNL     1       2.019   3.300   7.728  0.00  0.00    +0.000 NA
ENDBRANCH  10  11
ENDBRANCH   9  10
ENDBRANCH   6   9
ENDBRANCH   2   3
BRANCH   2  17
ATOM     17  N   UNL     1       1.394  -0.796   0.408  0.00  0.00    +0.000 N 
ATOM     18  C   UNL     1       0.766  -1.713  -0.391  0.00  0.00    +0.000 C 
ATOM     19  O   UNL     1       1.134  -1.963  -1.536  0.00  0.00    +0.000 OA
ATOM     20  H   UNL     1       0.867  -0.426   1.193  0.00  0.00    +0.000 HD
BRANCH  18  21
ATOM     21  C   UNL     1      -0.335  -2.458   0.231  0.00  0.00    +0.000 A 
ATOM     22  C   UNL     1      -0.628  -3.743  -0.203  0.00  0.00    +0.000 A 
ATOM     23  S   UNL     1      -1.906  -4.479   0.655  0.00  0.00    +0.000 S 
ATOM     24  C   UNL     1      -2.144  -3.088   1.604  0.00  0.00    +0.000 A 
ATOM     25  N   UNL     1      -3.127  -3.038   2.543  0.00  0.00    +0.000 NA
ATOM     26  C   UNL     1      -3.212  -1.910   3.165  0.00  0.00    +0.000 A 
ATOM     27  N   UNL     1      -2.399  -0.829   2.941  0.00  0.00    +0.000 N 
ATOM     28  C   UNL     1      -1.373  -0.845   2.028  0.00  0.00    +0.000 A 
ATOM     29  O   UNL     1      -0.624   0.117   1.886  0.00  0.00    +0.000 OA
ATOM     30  C   UNL     1      -1.244  -2.085   1.286  0.00  0.00    +0.000 A 
ATOM     31  H   UNL     1      -2.510   0.023   3.472  0.00  0.00    +0.000 HD
ENDBRANCH  18  21
ENDBRANCH   2  17
TORSDOF 6
