REMARK  Name = 
REMARK  8 active torsions:
REMARK  status: ('A' for Active; 'I' for Inactive)
REMARK    1  A    between atoms: C_2  and  C_21
REMARK    2  A    between atoms: N_3  and  CA_4
REMARK    3  A    between atoms: CA_4  and  C_5
REMARK    4  A    between atoms: CA_4  and  C_7
REMARK    5  A    between atoms: C_5  and  O_6
REMARK    6  A    between atoms: C_10  and  C_11
REMARK    7  A    between atoms: C_12  and  C_13
REMARK    8  A    between atoms: C_13  and  N_14
REMARK                            x       y       z     vdW  Elec       q    Type
REMARK                         _______ _______ _______ _____ _____    ______ ____
ROOT
ATOM      1  CA  UNL     1       2.290   1.794  -1.773  0.00  0.00    +0.000 C 
ENDROOT
BRANCH   1   2
ATOM      2  C   UNL     1       3.206   2.643  -2.653  0.00  0.00    +0.000 A 
ATOM      3  C   UNL     1       2.697   3.151  -3.858  0.00  0.00    +0.000 A 
ATOM      4  C   UNL     1       3.463   3.992  -4.674  0.00  0.00    +0.000 A 
ATOM      5  C   UNL     1       4.769   4.352  -4.320  0.00  0.00    +0.000 A 
ATOM      6  C   UNL     1       5.302   3.808  -3.146  0.00  0.00    +0.000 A 
ATOM      7  C   UNL     1       4.528   2.976  -2.317  0.00  0.00    +0.000 A 
BRANCH   5   8
ATOM      8  C   UNL     1       5.596   5.212  -5.190  0.00  0.00    +0.000 C 
ATOM      9  C   UNL     1       5.087   6.173  -5.984  0.00  0.00    +0.000 C 
BRANCH   9  10
ATOM     10  C   UNL     1       5.864   6.993  -6.974  0.00  0.00    +0.000 C 
BRANCH  10  11
ATOM     11  N   UNL     1       5.778   8.417  -6.705  0.00  0.00    +0.000 N 
ATOM     12  C   UNL     1       6.635   9.176  -5.969  0.00  0.00    +0.000 A 
ATOM     13  N   UNL     1       6.252  10.431  -6.002  0.00  0.00    +0.000 NA
ATOM     14  C   UNL     1       5.136  10.389  -6.791  0.00  0.00    +0.000 A 
ATOM     15  N   UNL     1       4.806   9.177  -7.249  0.00  0.00    +0.000 NA
ENDBRANCH  10  11
ENDBRANCH   9  10
ENDBRANCH   5   8
ENDBRANCH   1   2
BRANCH   1  18
ATOM     16  O   UNL     1      -0.255   1.167  -0.747  0.00  0.00    +0.000 OA
ATOM     17  C   UNL     1       0.230   2.253  -0.464  0.00  0.00    +0.000 C 
ATOM     18  N   UNL     1       1.457   2.662  -0.943  0.00  0.00    +0.000 N 
ATOM     19  H   UNL     1       1.781   3.604  -0.766  0.00  0.00    +0.000 HD
BRANCH  17  20
ATOM     20  C   UNL     1      -0.407   3.151   0.503  0.00  0.00    +0.000 A 
ATOM     21  C   UNL     1      -1.196   2.643   1.526  0.00  0.00    +0.000 A 
ATOM     22  S   UNL     1      -1.737   3.840   2.619  0.00  0.00    +0.000 S 
ATOM     23  C   UNL     1      -0.926   5.067   1.760  0.00  0.00    +0.000 A 
ATOM     24  N   UNL     1      -0.885   6.348   2.217  0.00  0.00    +0.000 NA
ATOM     25  C   UNL     1      -0.317   7.178   1.406  0.00  0.00    +0.000 A 
ATOM     26  N   UNL     1       0.177   6.855   0.171  0.00  0.00    +0.000 N 
ATOM     27  C   UNL     1       0.272   5.556  -0.277  0.00  0.00    +0.000 A 
ATOM     28  O   UNL     1       0.877   5.276  -1.298  0.00  0.00    +0.000 OA
ATOM     29  C   UNL     1      -0.343   4.583   0.605  0.00  0.00    +0.000 A 
ATOM     30  H   UNL     1       0.597   7.554  -0.424  0.00  0.00    +0.000 HD
ENDBRANCH  17  20
ENDBRANCH   1  18
BRANCH   1  31
ATOM     31  C   UNL     1       3.023   0.747  -0.898  0.00  0.00    +0.000 C 
BRANCH  31  32
ATOM     32  O   UNL     1       3.744  -0.210  -1.672  0.00  0.00    +0.000 OA
ATOM     33  H   UNL     1       4.546   0.226  -2.009  0.00  0.00    +0.000 HD
ENDBRANCH  31  32
ENDBRANCH   1  31
TORSDOF 8
