REMARK  Name = 
REMARK  9 active torsions:
REMARK  status: ('A' for Active; 'I' for Inactive)
REMARK    1  A    between atoms: C_1  and  C_2
REMARK    2  A    between atoms: C_2  and  C_3
REMARK    3  A    between atoms: C_2  and  C_26
REMARK    4  A    between atoms: C_3  and  N_4
REMARK    5  A    between atoms: N_4  and  C_5
REMARK    6  A    between atoms: C_5  and  C_6
REMARK    7  A    between atoms: C_9  and  C_10
REMARK    8  A    between atoms: C_10  and  N_11
REMARK    9  A    between atoms: C_12  and  C_14
REMARK                            x       y       z     vdW  Elec       q    Type
REMARK                         _______ _______ _______ _____ _____    ______ ____
ROOT
ATOM      1  C   UNL     1       2.676   0.841   4.934  0.00  0.00    +0.000 A 
ATOM      2  C   UNL     1       2.249   0.321   6.166  0.00  0.00    +0.000 A 
ATOM      3  C   UNL     1       1.944   1.160   7.239  0.00  0.00    +0.000 A 
ATOM      4  C   UNL     1       2.030   2.548   7.098  0.00  0.00    +0.000 A 
ATOM      5  C   UNL     1       2.443   3.078   5.869  0.00  0.00    +0.000 A 
ATOM      6  C   UNL     1       2.758   2.235   4.798  0.00  0.00    +0.000 A 
ENDROOT
BRANCH   1   7
ATOM      7  C   UNL     1       3.056  -0.041   3.758  0.00  0.00    +0.000 C 
BRANCH   7   8
ATOM      8  N   UNL     1       3.042  -1.463   4.099  0.00  0.00    +0.000 NA
ATOM      9  H   UNL     1       3.710  -1.604   4.859  0.00  0.00    +0.000 HD
BRANCH   8  10
ATOM     10  C   UNL     1       3.421  -2.326   2.982  0.00  0.00    +0.000 C 
BRANCH  10  12
ATOM     11  C   UNL     1       1.894  -4.255   3.663  0.00  0.00    +0.000 C 
ATOM     12  C   UNL     1       3.341  -3.826   3.372  0.00  0.00    +0.000 C 
BRANCH  12  13
ATOM     13  C   UNL     1       4.307  -4.179   4.493  0.00  0.00    +0.000 A 
ATOM     14  C   UNL     1       5.651  -4.448   4.211  0.00  0.00    +0.000 A 
ATOM     15  C   UNL     1       6.528  -4.775   5.243  0.00  0.00    +0.000 A 
ATOM     16  C   UNL     1       6.036  -4.812   6.537  0.00  0.00    +0.000 A 
ATOM     17  N   UNL     1       4.757  -4.535   6.857  0.00  0.00    +0.000 NA
ATOM     18  C   UNL     1       3.927  -4.226   5.834  0.00  0.00    +0.000 A 
ENDBRANCH  12  13
ENDBRANCH  10  12
ENDBRANCH   8  10
ENDBRANCH   7   8
ENDBRANCH   1   7
BRANCH   4  19
ATOM     19  C   UNL     1       1.741   3.450   8.266  0.00  0.00    +0.000 C 
BRANCH  19  20
ATOM     20  N   UNL     1       2.944   3.723   9.011  0.00  0.00    +0.000 N 
ATOM     21  C   UNL     1       2.906   4.440  10.177  0.00  0.00    +0.000 C 
ATOM     22  O   UNL     1       1.849   4.838  10.661  0.00  0.00    +0.000 OA
ATOM     23  H   UNL     1       3.827   3.581   8.532  0.00  0.00    +0.000 HD
BRANCH  21  24
ATOM     24  C   UNL     1       4.189   4.666  10.854  0.00  0.00    +0.000 A 
ATOM     25  C   UNL     1       4.205   4.941  12.215  0.00  0.00    +0.000 A 
ATOM     26  S   UNL     1       5.771   5.150  12.854  0.00  0.00    +0.000 S 
ATOM     27  C   UNL     1       6.484   4.923  11.326  0.00  0.00    +0.000 A 
ATOM     28  N   UNL     1       7.832   5.005  11.167  0.00  0.00    +0.000 NA
ATOM     29  C   UNL     1       8.236   4.837   9.952  0.00  0.00    +0.000 A 
ATOM     30  N   UNL     1       7.414   4.590   8.883  0.00  0.00    +0.000 N 
ATOM     31  C   UNL     1       6.047   4.478   8.996  0.00  0.00    +0.000 A 
ATOM     32  O   UNL     1       5.349   4.216   8.023  0.00  0.00    +0.000 OA
ATOM     33  C   UNL     1       5.541   4.669  10.344  0.00  0.00    +0.000 A 
ATOM     34  H   UNL     1       7.794   4.457   7.958  0.00  0.00    +0.000 HD
ENDBRANCH  21  24
ENDBRANCH  19  20
ENDBRANCH   4  19
TORSDOF 8
