REMARK  Name = 
REMARK  4 active torsions:
REMARK  status: ('A' for Active; 'I' for Inactive)
REMARK    1  A    between atoms: C_2  and  O_3
REMARK    2  A    between atoms: C_2  and  C_4
REMARK    3  A    between atoms: C_8  and  C_9
REMARK    4  A    between atoms: C_9  and  C_10
REMARK                            x       y       z     vdW  Elec       q    Type
REMARK                         _______ _______ _______ _____ _____    ______ ____
ROOT
ATOM      1  C   UNL     1       3.216  -0.683  -1.834  0.00  0.00    +0.000 A 
ATOM      2  C   UNL     1       4.400  -0.413  -1.177  0.00  0.00    +0.000 A 
ATOM      3  N   UNL     1       5.143   0.664  -1.479  0.00  0.00    +0.000 NA
ATOM      4  N   UNL     1       4.725   1.511  -2.474  0.00  0.00    +0.000 NA
ATOM      5  C   UNL     1       3.573   1.292  -3.154  0.00  0.00    +0.000 A 
ATOM      6  C   UNL     1       2.781   0.195  -2.826  0.00  0.00    +0.000 A 
ENDROOT
BRANCH   5   7
ATOM      7  C   UNL     1       3.268   2.174  -4.365  0.00  0.00    +0.000 C 
ATOM      8  C   UNL     1       3.205   3.680  -4.137  0.00  0.00    +0.000 C 
ATOM      9  C   UNL     1       1.951   2.930  -4.455  0.00  0.00    +0.000 C 
BRANCH   7  10
ATOM     10  C   UNL     1       3.923   1.655  -5.638  0.00  0.00    +0.000 A 
ATOM     11  C   UNL     1       5.229   2.021  -5.995  0.00  0.00    +0.000 A 
ATOM     12  C   UNL     1       5.891   1.373  -7.033  0.00  0.00    +0.000 A 
ATOM     13  C   UNL     1       5.222   0.368  -7.708  0.00  0.00    +0.000 A 
ATOM     14  N   UNL     1       3.950   0.007  -7.441  0.00  0.00    +0.000 NA
ATOM     15  C   UNL     1       3.338   0.661  -6.426  0.00  0.00    +0.000 A 
ENDBRANCH   7  10
ENDBRANCH   5   7
BRANCH   1  17
ATOM     16  O   UNL     1       2.502  -2.316  -0.286  0.00  0.00    +0.000 OA
ATOM     17  C   UNL     1       2.463  -1.877  -1.426  0.00  0.00    +0.000 C 
BRANCH  17  18
ATOM     18  O   UNL     1       1.752  -2.458  -2.413  0.00  0.00    +0.000 OA
ATOM     19  H   UNL     1       1.956  -2.169  -3.321  0.00  0.00    +0.000 HD
ENDBRANCH  17  18
ENDBRANCH   1  17
TORSDOF 4
