REMARK  Name = 
REMARK  8 active torsions:
REMARK  status: ('A' for Active; 'I' for Inactive)
REMARK    1  A    between atoms: C_1  and  C_2
REMARK    2  A    between atoms: C_4  and  C_5
REMARK    3  A    between atoms: C_10  and  O_11
REMARK    4  A    between atoms: O_11  and  C_12
REMARK    5  A    between atoms: C_12  and  C_13
REMARK    6  A    between atoms: C_18  and  C_19
REMARK    7  A    between atoms: C_23  and  C_24
REMARK    8  A    between atoms: C_24  and  O_25
REMARK                            x       y       z     vdW  Elec       q    Type
REMARK                         _______ _______ _______ _____ _____    ______ ____
ROOT
ATOM      1  C   UNL     1       2.693  -4.062   0.138  0.00  0.00    +0.000 A 
ATOM      2  C   UNL     1       4.057  -4.353   0.238  0.00  0.00    +0.000 A 
ATOM      3  C   UNL     1       4.485  -5.676   0.239  0.00  0.00    +0.000 A 
ATOM      4  C   UNL     1       3.553  -6.709   0.146  0.00  0.00    +0.000 A 
ATOM      5  F   UNL     1       4.026  -7.965   0.122  0.00  0.00    +0.000 F 
ATOM      6  C   UNL     1       2.172  -6.464   0.060  0.00  0.00    +0.000 A 
ATOM      7  C   UNL     1       1.766  -5.116   0.071  0.00  0.00    +0.000 A 
ENDROOT
BRANCH   6   8
ATOM      8  C   UNL     1       1.177  -7.552  -0.040  0.00  0.00    +0.000 A 
ATOM      9  C   UNL     1       1.339  -8.776   0.610  0.00  0.00    +0.000 A 
ATOM     10  N   UNL     1       0.454  -9.803   0.571  0.00  0.00    +0.000 NA
ATOM     11  C   UNL     1      -0.669  -9.609  -0.149  0.00  0.00    +0.000 A 
ATOM     12  C   UNL     1      -0.967  -8.433  -0.825  0.00  0.00    +0.000 A 
ATOM     13  C   UNL     1      -0.006  -7.413  -0.786  0.00  0.00    +0.000 A 
BRANCH  12  14
ATOM     14  C   UNL     1      -2.236  -8.311  -1.615  0.00  0.00    +0.000 C 
BRANCH  14  15
ATOM     15  O   UNL     1      -2.706  -6.968  -1.639  0.00  0.00    +0.000 OA
ATOM     16  H   UNL     1      -2.816  -6.691  -0.713  0.00  0.00    +0.000 HD
ENDBRANCH  14  15
ENDBRANCH  12  14
ENDBRANCH   6   8
BRANCH   1  17
ATOM     17  C   UNL     1       2.220  -2.633   0.032  0.00  0.00    +0.000 C 
BRANCH  17  18
ATOM     18  O   UNL     1       1.936  -2.084   1.307  0.00  0.00    +0.000 OA
BRANCH  18  25
ATOM     19  C   UNL     1       1.479  -0.050  -1.099  0.00  0.00    +0.000 C 
ATOM     20  C   UNL     1       1.313   0.174   0.373  0.00  0.00    +0.000 A 
ATOM     21  N   UNL     1       0.909   1.448   0.646  0.00  0.00    +0.000 NA
ATOM     22  C   UNL     1       0.703   1.794   1.944  0.00  0.00    +0.000 A 
ATOM     23  C   UNL     1       0.881   0.925   3.002  0.00  0.00    +0.000 A 
ATOM     24  C   UNL     1       1.299  -0.371   2.709  0.00  0.00    +0.000 A 
ATOM     25  C   UNL     1       1.527  -0.776   1.382  0.00  0.00    +0.000 A 
BRANCH  22  26
ATOM     26  C   UNL     1       0.258   3.201   2.180  0.00  0.00    +0.000 C 
ATOM     27  N   UNL     1       0.127   3.972   1.053  0.00  0.00    +0.000 N 
ATOM     28  O   UNL     1       0.029   3.647   3.298  0.00  0.00    +0.000 OA
ATOM     29  H   UNL     1       0.327   3.561   0.148  0.00  0.00    +0.000 HD
ATOM     30  H   UNL     1      -0.171   4.930   1.135  0.00  0.00    +0.000 HD
ENDBRANCH  22  26
ENDBRANCH  18  25
ENDBRANCH  17  18
ENDBRANCH   1  17
TORSDOF 7
