REMARK  Name = 
REMARK  6 active torsions:
REMARK  status: ('A' for Active; 'I' for Inactive)
REMARK    1  A    between atoms: C_1  and  O_2
REMARK    2  A    between atoms: O_2  and  C_3
REMARK    3  A    between atoms: N_8  and  C_9
REMARK    4  A    between atoms: C_9  and  C_10
REMARK    5  A    between atoms: C_13  and  C_14
REMARK    6  A    between atoms: C_14  and  C_15
REMARK                            x       y       z     vdW  Elec       q    Type
REMARK                         _______ _______ _______ _____ _____    ______ ____
ROOT
ATOM      1  C   UNL     1       5.572  -4.134   4.041  0.00  0.00    +0.000 C 
ENDROOT
BRANCH   1   7
ATOM      2  C   UNL     1       7.080  -0.559   0.445  0.00  0.00    +0.000 A 
ATOM      3  C   UNL     1       6.193  -0.056   1.411  0.00  0.00    +0.000 A 
ATOM      4  C   UNL     1       5.685  -0.916   2.400  0.00  0.00    +0.000 A 
ATOM      5  N   UNL     1       4.820  -0.650   3.431  0.00  0.00    +0.000 NA
ATOM      6  C   UNL     1       4.684  -1.787   4.074  0.00  0.00    +0.000 A 
ATOM      7  N   UNL     1       5.436  -2.783   3.510  0.00  0.00    +0.000 N 
ATOM      8  C   UNL     1       6.074  -2.255   2.412  0.00  0.00    +0.000 A 
ATOM      9  C   UNL     1       6.938  -2.788   1.452  0.00  0.00    +0.000 A 
ATOM     10  C   UNL     1       7.431  -1.913   0.478  0.00  0.00    +0.000 A 
ATOM     11  F   UNL     1       8.270  -2.438  -0.428  0.00  0.00    +0.000 F 
BRANCH   2  13
ATOM     12  C   UNL     1       8.423  -0.057  -1.458  0.00  0.00    +0.000 C 
ATOM     13  O   UNL     1       7.516   0.380  -0.454  0.00  0.00    +0.000 OA
ENDBRANCH   2  13
ENDBRANCH   1   7
BRANCH   1  14
ATOM     14  C   UNL     1       4.430  -5.003   3.597  0.00  0.00    +0.000 A 
ATOM     15  C   UNL     1       4.262  -5.382   2.263  0.00  0.00    +0.000 A 
ATOM     16  C   UNL     1       3.085  -6.011   1.864  0.00  0.00    +0.000 A 
ATOM     17  C   UNL     1       2.099  -6.255   2.817  0.00  0.00    +0.000 A 
ATOM     18  N   UNL     1       2.285  -5.985   4.132  0.00  0.00    +0.000 NA
ATOM     19  C   UNL     1       3.443  -5.390   4.493  0.00  0.00    +0.000 A 
BRANCH  17  20
ATOM     20  C   UNL     1       0.734  -6.749   2.407  0.00  0.00    +0.000 C 
BRANCH  20  21
ATOM     21  C   UNL     1      -0.260  -5.647   2.104  0.00  0.00    +0.000 C 
ATOM     22  N   UNL     1      -0.206  -4.509   2.854  0.00  0.00    +0.000 N 
ATOM     23  O   UNL     1      -1.141  -5.773   1.257  0.00  0.00    +0.000 OA
ATOM     24  H   UNL     1       0.406  -4.436   3.662  0.00  0.00    +0.000 HD
ATOM     25  H   UNL     1      -0.910  -3.802   2.704  0.00  0.00    +0.000 HD
ENDBRANCH  20  21
ENDBRANCH  17  20
ENDBRANCH   1  14
TORSDOF 5
