REMARK  Name = 
REMARK  7 active torsions:
REMARK  status: ('A' for Active; 'I' for Inactive)
REMARK    1  A    between atoms: C_1  and  O_2
REMARK    2  A    between atoms: O_2  and  C_3
REMARK    3  A    between atoms: C_3  and  C_4
REMARK    4  A    between atoms: C_4  and  N_5
REMARK    5  A    between atoms: C_4  and  C_15
REMARK    6  A    between atoms: N_5  and  C_6
REMARK    7  A    between atoms: C_9  and  C_10
REMARK                            x       y       z     vdW  Elec       q    Type
REMARK                         _______ _______ _______ _____ _____    ______ ____
ROOT
ATOM      1  N   UNL     1       2.860  -1.116   0.704  0.00  0.00    +0.000 N 
ATOM      2  H   UNL     1       2.326  -0.987   1.558  0.00  0.00    +0.000 HD
ENDROOT
BRANCH   1   3
ATOM      3  C   UNL     1       2.171  -0.715  -0.428  0.00  0.00    +0.000 A 
ATOM      4  C   UNL     1       2.770  -0.175  -1.561  0.00  0.00    +0.000 A 
ATOM      5  C   UNL     1       1.998   0.153  -2.677  0.00  0.00    +0.000 A 
ATOM      6  C   UNL     1       0.635  -0.102  -2.643  0.00  0.00    +0.000 A 
ATOM      7  N   UNL     1      -0.001  -0.660  -1.580  0.00  0.00    +0.000 NA
ATOM      8  C   UNL     1       0.790  -0.955  -0.519  0.00  0.00    +0.000 A 
BRANCH   6   9
ATOM      9  C   UNL     1      -0.209   0.227  -3.830  0.00  0.00    +0.000 C 
ATOM     10  N   UNL     1      -1.539  -0.053  -3.719  0.00  0.00    +0.000 N 
ATOM     11  O   UNL     1       0.260   0.722  -4.853  0.00  0.00    +0.000 OA
ATOM     12  H   UNL     1      -1.893  -0.481  -2.869  0.00  0.00    +0.000 HD
ATOM     13  H   UNL     1      -2.152   0.127  -4.500  0.00  0.00    +0.000 HD
ENDBRANCH   6   9
ENDBRANCH   1   3
BRANCH   1  14
ATOM     14  C   UNL     1       4.320  -1.063   0.882  0.00  0.00    +0.000 C 
BRANCH  14  15
ATOM     15  C   UNL     1       4.758  -2.232   1.824  0.00  0.00    +0.000 C 
ATOM     16  C   UNL     1       4.379  -3.593   1.204  0.00  0.00    +0.000 C 
ATOM     17  C   UNL     1       4.710  -4.763   2.124  0.00  0.00    +0.000 C 
ATOM     18  C   UNL     1       4.069  -4.586   3.494  0.00  0.00    +0.000 C 
ATOM     19  C   UNL     1       4.530  -3.289   4.145  0.00  0.00    +0.000 C 
ATOM     20  C   UNL     1       4.208  -2.090   3.260  0.00  0.00    +0.000 C 
ENDBRANCH  14  15
BRANCH  14  21
ATOM     21  C   UNL     1       4.761   0.318   1.415  0.00  0.00    +0.000 C 
BRANCH  21  23
ATOM     22  C   UNL     1       6.623   1.629   2.035  0.00  0.00    +0.000 C 
ATOM     23  O   UNL     1       6.185   0.369   1.541  0.00  0.00    +0.000 OA
ENDBRANCH  21  23
ENDBRANCH  14  21
ENDBRANCH   1  14
TORSDOF 6
