REMARK  Name = 
REMARK  4 active torsions:
REMARK  status: ('A' for Active; 'I' for Inactive)
REMARK    1  A    between atoms: C_2  and  C_4
REMARK    2  A    between atoms: C_7  and  C_8
REMARK    3  A    between atoms: C_8  and  C_9
REMARK    4  A    between atoms: C_9  and  C_10
REMARK                            x       y       z     vdW  Elec       q    Type
REMARK                         _______ _______ _______ _____ _____    ______ ____
ROOT
ATOM      1  C   UNL     1       3.245   0.559  -0.693  0.00  0.00    +0.000 A 
ATOM      2  C   UNL     1       2.465   0.930  -1.790  0.00  0.00    +0.000 A 
ATOM      3  C   UNL     1       3.068   1.441  -2.941  0.00  0.00    +0.000 A 
ATOM      4  C   UNL     1       4.448   1.644  -3.001  0.00  0.00    +0.000 A 
ATOM      5  C   UNL     1       5.216   1.296  -1.870  0.00  0.00    +0.000 A 
ATOM      6  C   UNL     1       4.624   0.763  -0.725  0.00  0.00    +0.000 A 
ENDROOT
BRANCH   1   8
ATOM      7  N   UNL     1       1.493  -0.799   0.298  0.00  0.00    +0.000 N 
ATOM      8  C   UNL     1       2.643  -0.084   0.496  0.00  0.00    +0.000 C 
ATOM      9  O   UNL     1       3.168  -0.026   1.603  0.00  0.00    +0.000 OA
ATOM     10  H   UNL     1       1.162  -1.336   1.090  0.00  0.00    +0.000 HD
ATOM     11  H   UNL     1       1.195  -1.091  -0.624  0.00  0.00    +0.000 HD
ENDBRANCH   1   8
BRANCH   4  12
ATOM     12  C   UNL     1       5.190   1.992  -4.267  0.00  0.00    +0.000 C 
BRANCH  12  13
ATOM     13  C   UNL     1       4.776   3.129  -5.207  0.00  0.00    +0.000 C 
ATOM     14  C   UNL     1       3.958   4.308  -4.705  0.00  0.00    +0.000 C 
ATOM     15  C   UNL     1       3.355   3.367  -5.707  0.00  0.00    +0.000 C 
BRANCH  13  16
ATOM     16  C   UNL     1       5.895   3.360  -6.223  0.00  0.00    +0.000 A 
ATOM     17  C   UNL     1       6.884   4.330  -6.028  0.00  0.00    +0.000 A 
ATOM     18  C   UNL     1       8.037   4.324  -6.807  0.00  0.00    +0.000 A 
ATOM     19  C   UNL     1       8.163   3.355  -7.787  0.00  0.00    +0.000 A 
ATOM     20  N   UNL     1       7.213   2.441  -8.063  0.00  0.00    +0.000 NA
ATOM     21  C   UNL     1       6.109   2.472  -7.283  0.00  0.00    +0.000 A 
ENDBRANCH  13  16
ENDBRANCH  12  13
ENDBRANCH   4  12
TORSDOF 4
