REMARK  Name = 
REMARK  7 active torsions:
REMARK  status: ('A' for Active; 'I' for Inactive)
REMARK    1  A    between atoms: C_1  and  C_2
REMARK    2  A    between atoms: C_2  and  N_3
REMARK    3  A    between atoms: C_2  and  C_16
REMARK    4  A    between atoms: C_4  and  C_6
REMARK    5  A    between atoms: C_19  and  C_20
REMARK    6  A    between atoms: C_20  and  C_21
REMARK    7  A    between atoms: C_21  and  C_22
REMARK                            x       y       z     vdW  Elec       q    Type
REMARK                         _______ _______ _______ _____ _____    ______ ____
ROOT
ATOM      1  C   UNL     1       3.645  -0.775  -0.754  0.00  0.00    +0.000 C 
ATOM      2  C   UNL     1       2.442  -0.019  -0.180  0.00  0.00    +0.000 C 
ENDROOT
BRANCH   2   3
ATOM      3  C   UNL     1       2.836   0.695   1.105  0.00  0.00    +0.000 A 
ATOM      4  C   UNL     1       2.797   2.090   1.182  0.00  0.00    +0.000 A 
ATOM      5  C   UNL     1       3.093   2.745   2.383  0.00  0.00    +0.000 A 
ATOM      6  C   UNL     1       3.410   2.024   3.543  0.00  0.00    +0.000 A 
ATOM      7  C   UNL     1       3.485   0.628   3.454  0.00  0.00    +0.000 A 
ATOM      8  C   UNL     1       3.199  -0.028   2.254  0.00  0.00    +0.000 A 
BRANCH   6   9
ATOM      9  C   UNL     1       3.713   2.696   4.868  0.00  0.00    +0.000 C 
BRANCH   9  10
ATOM     10  C   UNL     1       2.944   4.000   5.109  0.00  0.00    +0.000 C 
BRANCH  10  11
ATOM     11  C   UNL     1       3.210   4.588   6.467  0.00  0.00    +0.000 A 
ATOM     12  C   UNL     1       4.243   5.501   6.663  0.00  0.00    +0.000 A 
ATOM     13  N   UNL     1       4.489   6.089   7.857  0.00  0.00    +0.000 NA
ATOM     14  C   UNL     1       3.657   5.728   8.858  0.00  0.00    +0.000 A 
ATOM     15  C   UNL     1       2.635   4.813   8.677  0.00  0.00    +0.000 A 
ATOM     16  N   UNL     1       2.392   4.221   7.486  0.00  0.00    +0.000 NA
ENDBRANCH  10  11
ENDBRANCH   9  10
ENDBRANCH   6   9
ENDBRANCH   2   3
BRANCH   2  17
ATOM     17  N   UNL     1       1.312  -0.886   0.110  0.00  0.00    +0.000 N 
ATOM     18  C   UNL     1       0.661  -1.644  -0.827  0.00  0.00    +0.000 C 
ATOM     19  O   UNL     1       1.008  -1.704  -2.001  0.00  0.00    +0.000 OA
ATOM     20  H   UNL     1       0.791  -0.636   0.944  0.00  0.00    +0.000 HD
BRANCH  18  21
ATOM     21  C   UNL     1      -0.445  -2.462  -0.313  0.00  0.00    +0.000 A 
ATOM     22  C   UNL     1      -0.762  -3.662  -0.932  0.00  0.00    +0.000 A 
ATOM     23  S   UNL     1      -2.030  -4.509  -0.165  0.00  0.00    +0.000 S 
ATOM     24  C   UNL     1      -2.230  -3.276   0.991  0.00  0.00    +0.000 A 
ATOM     25  N   UNL     1      -3.186  -3.363   1.955  0.00  0.00    +0.000 NA
ATOM     26  C   UNL     1      -3.242  -2.345   2.746  0.00  0.00    +0.000 A 
ATOM     27  N   UNL     1      -2.426  -1.246   2.665  0.00  0.00    +0.000 N 
ATOM     28  C   UNL     1      -1.431  -1.125   1.725  0.00  0.00    +0.000 A 
ATOM     29  O   UNL     1      -0.688  -0.150   1.701  0.00  0.00    +0.000 OA
ATOM     30  C   UNL     1      -1.332  -2.241   0.804  0.00  0.00    +0.000 A 
ATOM     31  H   UNL     1      -2.514  -0.484   3.321  0.00  0.00    +0.000 HD
ENDBRANCH  18  21
ENDBRANCH   2  17
TORSDOF 6
