REMARK  Name = 
REMARK  7 active torsions:
REMARK  status: ('A' for Active; 'I' for Inactive)
REMARK    1  A    between atoms: C_2  and  C_20
REMARK    2  A    between atoms: N_3  and  C_4
REMARK    3  A    between atoms: C_4  and  C_5
REMARK    4  A    between atoms: C_9  and  C_10
REMARK    5  A    between atoms: C_10  and  C_11
REMARK    6  A    between atoms: C_11  and  C_12
REMARK    7  A    between atoms: C_12  and  N_13
REMARK                            x       y       z     vdW  Elec       q    Type
REMARK                         _______ _______ _______ _____ _____    ______ ____
ROOT
ATOM      1  C   UNL     1       2.182  -1.612  -1.955  0.00  0.00    +0.000 C 
ENDROOT
BRANCH   1   2
ATOM      2  C   UNL     1       3.132  -2.360  -2.856  0.00  0.00    +0.000 A 
ATOM      3  C   UNL     1       4.096  -1.665  -3.581  0.00  0.00    +0.000 A 
ATOM      4  C   UNL     1       4.898  -2.371  -4.463  0.00  0.00    +0.000 A 
ATOM      5  C   UNL     1       4.709  -3.738  -4.598  0.00  0.00    +0.000 A 
ATOM      6  C   UNL     1       3.798  -4.392  -3.773  0.00  0.00    +0.000 A 
ATOM      7  N   UNL     1       3.006  -3.711  -2.914  0.00  0.00    +0.000 NA
BRANCH   6   8
ATOM      8  C   UNL     1       3.618  -5.888  -3.822  0.00  0.00    +0.000 C 
BRANCH   8   9
ATOM      9  C   UNL     1       4.825  -6.720  -3.359  0.00  0.00    +0.000 C 
BRANCH   9  10
ATOM     10  C   UNL     1       6.092  -6.526  -4.200  0.00  0.00    +0.000 C 
BRANCH  10  11
ATOM     11  N   UNL     1       7.261  -7.302  -3.761  0.00  0.00    +0.000 NA
ATOM     12  C   UNL     1       8.418  -7.014  -4.645  0.00  0.00    +0.000 C 
ATOM     13  C   UNL     1       8.305  -7.631  -6.062  0.00  0.00    +0.000 C 
ATOM     14  N   UNL     1       7.985  -9.071  -6.061  0.00  0.00    +0.000 NA
ATOM     15  C   UNL     1       6.827  -9.331  -5.184  0.00  0.00    +0.000 C 
ATOM     16  C   UNL     1       7.029  -8.756  -3.769  0.00  0.00    +0.000 C 
ATOM     17  H   UNL     1       8.784  -9.562  -5.660  0.00  0.00    +0.000 HD
ENDBRANCH  10  11
ENDBRANCH   9  10
ENDBRANCH   8   9
ENDBRANCH   6   8
ENDBRANCH   1   2
BRANCH   1  20
ATOM     18  O   UNL     1       0.939  -0.198   0.073  0.00  0.00    +0.000 OA
ATOM     19  C   UNL     1       2.006  -0.751   0.319  0.00  0.00    +0.000 C 
ATOM     20  N   UNL     1       2.736  -1.406  -0.641  0.00  0.00    +0.000 N 
ATOM     21  H   UNL     1       3.411  -2.105  -0.348  0.00  0.00    +0.000 HD
BRANCH  19  22
ATOM     22  C   UNL     1       2.607  -0.710   1.653  0.00  0.00    +0.000 A 
ATOM     23  C   UNL     1       2.332   0.335   2.520  0.00  0.00    +0.000 A 
ATOM     24  S   UNL     1       3.144   0.201   4.016  0.00  0.00    +0.000 S 
ATOM     25  C   UNL     1       3.857  -1.271   3.564  0.00  0.00    +0.000 A 
ATOM     26  N   UNL     1       4.672  -1.959   4.411  0.00  0.00    +0.000 NA
ATOM     27  C   UNL     1       5.113  -3.079   3.940  0.00  0.00    +0.000 A 
ATOM     28  N   UNL     1       4.822  -3.570   2.694  0.00  0.00    +0.000 N 
ATOM     29  C   UNL     1       4.043  -2.891   1.792  0.00  0.00    +0.000 A 
ATOM     30  O   UNL     1       3.889  -3.333   0.659  0.00  0.00    +0.000 OA
ATOM     31  C   UNL     1       3.500  -1.649   2.273  0.00  0.00    +0.000 A 
ATOM     32  H   UNL     1       5.218  -4.443   2.374  0.00  0.00    +0.000 HD
ENDBRANCH  19  22
ENDBRANCH   1  20
TORSDOF 7
