REMARK  Name = 
REMARK  7 active torsions:
REMARK  status: ('A' for Active; 'I' for Inactive)
REMARK    1  A    between atoms: C_1  and  O_2
REMARK    2  A    between atoms: O_2  and  C_3
REMARK    3  A    between atoms: C_10  and  C_11
REMARK    4  A    between atoms: N_13  and  C_14
REMARK    5  A    between atoms: C_14  and  C_15
REMARK    6  A    between atoms: C_18  and  C_19
REMARK    7  A    between atoms: C_20  and  C_21
REMARK                            x       y       z     vdW  Elec       q    Type
REMARK                         _______ _______ _______ _____ _____    ______ ____
ROOT
ATOM      1  C   UNL     1       4.482   2.339  -4.666  0.00  0.00    +0.000 C 
ATOM      2  O   UNL     1       5.099   2.850  -3.736  0.00  0.00    +0.000 OA
ATOM      3  N   UNL     1       3.415   1.510  -4.449  0.00  0.00    +0.000 N 
ATOM      4  H   UNL     1       2.866   1.186  -5.232  0.00  0.00    +0.000 HD
ENDROOT
BRANCH   1  12
ATOM      5  C   UNL     1       3.273   1.175  -7.676  0.00  0.00    +0.000 A 
ATOM      6  N   UNL     1       3.030   0.856  -8.961  0.00  0.00    +0.000 NA
ATOM      7  C   UNL     1       3.813   1.387  -9.901  0.00  0.00    +0.000 A 
ATOM      8  N   UNL     1       4.832   2.221  -9.713  0.00  0.00    +0.000 NA
ATOM      9  C   UNL     1       5.039   2.517  -8.419  0.00  0.00    +0.000 A 
ATOM     10  S   UNL     1       6.293   3.580  -7.993  0.00  0.00    +0.000 S 
ATOM     11  C   UNL     1       5.928   3.431  -6.339  0.00  0.00    +0.000 A 
ATOM     12  C   UNL     1       4.861   2.580  -6.071  0.00  0.00    +0.000 A 
ATOM     13  C   UNL     1       4.320   2.047  -7.324  0.00  0.00    +0.000 A 
BRANCH   5  15
ATOM     14  C   UNL     1       1.815  -0.558  -7.119  0.00  0.00    +0.000 C 
ATOM     15  O   UNL     1       2.419   0.669  -6.719  0.00  0.00    +0.000 OA
ENDBRANCH   5  15
ENDBRANCH   1  12
BRANCH   3  16
ATOM     16  C   UNL     1       2.938   1.172  -3.133  0.00  0.00    +0.000 C 
BRANCH  16  17
ATOM     17  C   UNL     1       1.786   0.198  -3.201  0.00  0.00    +0.000 A 
ATOM     18  C   UNL     1       2.022  -1.182  -3.250  0.00  0.00    +0.000 A 
ATOM     19  C   UNL     1       0.956  -2.091  -3.301  0.00  0.00    +0.000 A 
ATOM     20  C   UNL     1      -0.370  -1.642  -3.310  0.00  0.00    +0.000 A 
ATOM     21  C   UNL     1      -0.603  -0.260  -3.301  0.00  0.00    +0.000 A 
ATOM     22  C   UNL     1       0.462   0.650  -3.249  0.00  0.00    +0.000 A 
BRANCH  20  23
ATOM     23  C   UNL     1      -1.518  -2.561  -3.411  0.00  0.00    +0.000 C 
ATOM     24  C   UNL     1      -1.550  -3.811  -2.916  0.00  0.00    +0.000 C 
BRANCH  24  25
ATOM     25  C   UNL     1      -2.687  -4.733  -3.069  0.00  0.00    +0.000 A 
ATOM     26  C   UNL     1      -3.546  -4.708  -4.172  0.00  0.00    +0.000 A 
ATOM     27  C   UNL     1      -4.561  -5.658  -4.293  0.00  0.00    +0.000 A 
ATOM     28  C   UNL     1      -4.683  -6.618  -3.305  0.00  0.00    +0.000 A 
ATOM     29  N   UNL     1      -3.875  -6.688  -2.227  0.00  0.00    +0.000 NA
ATOM     30  C   UNL     1      -2.899  -5.751  -2.138  0.00  0.00    +0.000 A 
ENDBRANCH  24  25
ENDBRANCH  20  23
ENDBRANCH  16  17
ENDBRANCH   3  16
TORSDOF 6
