REMARK  Name = 
REMARK  7 active torsions:
REMARK  status: ('A' for Active; 'I' for Inactive)
REMARK    1  A    between atoms: N_1  and  C_2
REMARK    2  A    between atoms: C_2  and  C_3
REMARK    3  A    between atoms: C_2  and  C_24
REMARK    4  A    between atoms: C_3  and  C_4
REMARK    5  A    between atoms: C_7  and  C_8
REMARK    6  A    between atoms: C_8  and  N_9
REMARK    7  A    between atoms: C_10  and  C_12
REMARK                            x       y       z     vdW  Elec       q    Type
REMARK                         _______ _______ _______ _____ _____    ______ ____
ROOT
ATOM      1  C   UNL     1       0.422  -0.606   1.413  0.00  0.00    +0.000 A 
ATOM      2  C   UNL     1       1.329  -1.007   2.396  0.00  0.00    +0.000 A 
ATOM      3  C   UNL     1       0.864  -1.530   3.599  0.00  0.00    +0.000 A 
ATOM      4  C   UNL     1      -0.509  -1.635   3.800  0.00  0.00    +0.000 A 
ATOM      5  N   UNL     1      -1.413  -1.284   2.849  0.00  0.00    +0.000 NA
ATOM      6  C   UNL     1      -0.930  -0.780   1.690  0.00  0.00    +0.000 A 
ENDROOT
BRANCH   1   7
ATOM      7  C   UNL     1       0.903  -0.031   0.102  0.00  0.00    +0.000 C 
BRANCH   7   8
ATOM      8  C   UNL     1       0.393   1.394  -0.221  0.00  0.00    +0.000 C 
BRANCH   8   9
ATOM      9  C   UNL     1       0.965   1.848  -1.563  0.00  0.00    +0.000 A 
ATOM     10  C   UNL     1       0.280   1.589  -2.749  0.00  0.00    +0.000 A 
ATOM     11  C   UNL     1       0.833   2.022  -3.952  0.00  0.00    +0.000 A 
ATOM     12  C   UNL     1       2.049   2.696  -3.943  0.00  0.00    +0.000 A 
ATOM     13  C   UNL     1       2.670   2.908  -2.724  0.00  0.00    +0.000 A 
ATOM     14  N   UNL     1       2.162   2.498  -1.543  0.00  0.00    +0.000 NA
ENDBRANCH   8   9
BRANCH   8  15
ATOM     15  N   UNL     1       0.749   2.352   0.848  0.00  0.00    +0.000 NA
ATOM     16  H   UNL     1       0.447   3.278   0.543  0.00  0.00    +0.000 HD
ATOM     17  H   UNL     1       1.771   2.424   0.833  0.00  0.00    +0.000 HD
ENDBRANCH   8  15
ENDBRANCH   7   8
ENDBRANCH   1   7
BRANCH   4  18
ATOM     18  C   UNL     1      -1.044  -2.167   5.107  0.00  0.00    +0.000 C 
BRANCH  18  19
ATOM     19  N   UNL     1      -1.245  -3.598   5.076  0.00  0.00    +0.000 N 
ATOM     20  C   UNL     1      -0.328  -4.482   5.576  0.00  0.00    +0.000 C 
ATOM     21  O   UNL     1       0.724  -4.109   6.090  0.00  0.00    +0.000 OA
ATOM     22  H   UNL     1      -1.982  -3.924   4.457  0.00  0.00    +0.000 HD
BRANCH  20  23
ATOM     23  C   UNL     1      -0.694  -5.904   5.534  0.00  0.00    +0.000 A 
ATOM     24  C   UNL     1      -0.080  -6.794   6.407  0.00  0.00    +0.000 A 
ATOM     25  S   UNL     1      -0.642  -8.397   6.261  0.00  0.00    +0.000 S 
ATOM     26  C   UNL     1      -1.697  -7.969   4.996  0.00  0.00    +0.000 A 
ATOM     27  N   UNL     1      -2.472  -8.906   4.387  0.00  0.00    +0.000 NA
ATOM     28  C   UNL     1      -3.201  -8.451   3.424  0.00  0.00    +0.000 A 
ATOM     29  N   UNL     1      -3.232  -7.141   3.021  0.00  0.00    +0.000 N 
ATOM     30  C   UNL     1      -2.507  -6.152   3.641  0.00  0.00    +0.000 A 
ATOM     31  O   UNL     1      -2.628  -4.978   3.312  0.00  0.00    +0.000 OA
ATOM     32  C   UNL     1      -1.641  -6.617   4.708  0.00  0.00    +0.000 A 
ATOM     33  H   UNL     1      -3.841  -6.842   2.273  0.00  0.00    +0.000 HD
ENDBRANCH  20  23
ENDBRANCH  18  19
ENDBRANCH   4  18
TORSDOF 7
