REMARK  Name = 
REMARK  8 active torsions:
REMARK  status: ('A' for Active; 'I' for Inactive)
REMARK    1  A    between atoms: N_1  and  C_2
REMARK    2  A    between atoms: C_2  and  C_3
REMARK    3  A    between atoms: C_3  and  C_4
REMARK    4  A    between atoms: C_4  and  C_5
REMARK    5  A    between atoms: C_5  and  C_6
REMARK    6  A    between atoms: C_9  and  C_10
REMARK    7  A    between atoms: C_10  and  N_11
REMARK    8  A    between atoms: C_16  and  C_17
REMARK                            x       y       z     vdW  Elec       q    Type
REMARK                         _______ _______ _______ _____ _____    ______ ____
ROOT
ATOM      1  C   UNL     1      10.655   2.105   1.815  0.00  0.00    +0.000 C 
ENDROOT
BRANCH   1   2
ATOM      2  N   UNL     1      11.198   1.909   0.482  0.00  0.00    +0.000 N 
ATOM      3  C   UNL     1      11.456   3.040  -0.263  0.00  0.00    +0.000 A 
ATOM      4  N   UNL     1      11.284   2.933  -1.585  0.00  0.00    +0.000 NA
ATOM      5  C   UNL     1      11.578   4.007  -2.344  0.00  0.00    +0.000 A 
ATOM      6  C   UNL     1      12.043   5.188  -1.830  0.00  0.00    +0.000 A 
ATOM      7  C   UNL     1      12.178   5.197  -0.464  0.00  0.00    +0.000 A 
ATOM      8  N   UNL     1      11.880   4.151   0.344  0.00  0.00    +0.000 NA
ATOM      9  H   UNL     1      10.674   1.259  -0.095  0.00  0.00    +0.000 HD
BRANCH   7  10
ATOM     10  C   UNL     1      12.696   6.420   0.221  0.00  0.00    +0.000 C 
ATOM     11  N   UNL     1      12.789   6.334   1.584  0.00  0.00    +0.000 N 
ATOM     12  O   UNL     1      13.023   7.429  -0.390  0.00  0.00    +0.000 OA
ATOM     13  H   UNL     1      12.585   5.455   2.045  0.00  0.00    +0.000 HD
ATOM     14  H   UNL     1      13.199   7.098   2.103  0.00  0.00    +0.000 HD
ENDBRANCH   7  10
ENDBRANCH   1   2
BRANCH   1  18
ATOM     15  C   UNL     1       6.443   2.210   1.735  0.00  0.00    +0.000 A 
ATOM     16  C   UNL     1       7.137   1.024   1.947  0.00  0.00    +0.000 A 
ATOM     17  N   UNL     1       8.488   0.956   1.981  0.00  0.00    +0.000 NA
ATOM     18  C   UNL     1       9.146   2.133   1.809  0.00  0.00    +0.000 A 
ATOM     19  C   UNL     1       8.452   3.319   1.595  0.00  0.00    +0.000 A 
ATOM     20  N   UNL     1       7.099   3.384   1.563  0.00  0.00    +0.000 NA
BRANCH  15  21
ATOM     21  C   UNL     1       4.940   2.235   1.723  0.00  0.00    +0.000 C 
BRANCH  21  22
ATOM     22  C   UNL     1       4.378   2.509   3.119  0.00  0.00    +0.000 C 
BRANCH  22  23
ATOM     23  C   UNL     1       2.847   2.531   3.112  0.00  0.00    +0.000 C 
BRANCH  23  24
ATOM     24  C   UNL     1       2.299   2.803   4.512  0.00  0.00    +0.000 C 
BRANCH  24  25
ATOM     25  N   UNL     1       0.842   2.824   4.492  0.00  0.00    +0.000 NA
ATOM     26  H   UNL     1       0.494   2.977   5.438  0.00  0.00    +0.000 HD
ATOM     27  H   UNL     1       0.486   1.914   4.201  0.00  0.00    +0.000 HD
ENDBRANCH  24  25
ENDBRANCH  23  24
ENDBRANCH  22  23
ENDBRANCH  21  22
ENDBRANCH  15  21
ENDBRANCH   1  18
TORSDOF 8
