REMARK  Name = 
REMARK  5 active torsions:
REMARK  status: ('A' for Active; 'I' for Inactive)
REMARK    1  A    between atoms: C_1  and  C_2
REMARK    2  A    between atoms: C_2  and  C_3
REMARK    3  A    between atoms: C_2  and  C_14
REMARK    4  A    between atoms: C_3  and  N_4
REMARK    5  A    between atoms: C_8  and  C_9
REMARK                            x       y       z     vdW  Elec       q    Type
REMARK                         _______ _______ _______ _____ _____    ______ ____
ROOT
ATOM      1  N   UNL     1       2.773   1.093  -2.308  0.00  0.00    +0.000 N 
ATOM      2  C   UNL     1       3.273   2.115  -3.129  0.00  0.00    +0.000 A 
ATOM      3  C   UNL     1       3.051   2.067  -4.514  0.00  0.00    +0.000 A 
ATOM      4  N   UNL     1       3.471   3.017  -5.392  0.00  0.00    +0.000 NA
ATOM      5  C   UNL     1       4.160   4.039  -4.816  0.00  0.00    +0.000 A 
ATOM      6  C   UNL     1       4.415   4.091  -3.456  0.00  0.00    +0.000 A 
ATOM      7  N   UNL     1       3.983   3.133  -2.597  0.00  0.00    +0.000 NA
ATOM      8  H   UNL     1       1.773   0.996  -2.469  0.00  0.00    +0.000 HD
ENDROOT
BRANCH   5   9
ATOM      9  C   UNL     1       4.635   5.145  -5.691  0.00  0.00    +0.000 C 
ATOM     10  N   UNL     1       4.339   5.025  -7.023  0.00  0.00    +0.000 N 
ATOM     11  O   UNL     1       5.247   6.108  -5.252  0.00  0.00    +0.000 OA
ATOM     12  H   UNL     1       3.822   4.221  -7.359  0.00  0.00    +0.000 HD
ATOM     13  H   UNL     1       4.622   5.755  -7.660  0.00  0.00    +0.000 HD
ENDBRANCH   5   9
BRANCH   1  14
ATOM     14  C   UNL     1       3.053   1.283  -0.888  0.00  0.00    +0.000 C 
BRANCH  14  16
ATOM     15  C   UNL     1       2.946  -1.210  -0.263  0.00  0.00    +0.000 C 
ATOM     16  C   UNL     1       2.367   0.166  -0.157  0.00  0.00    +0.000 C 
BRANCH  16  17
ATOM     17  C   UNL     1       1.000   0.348   0.359  0.00  0.00    +0.000 A 
ATOM     18  C   UNL     1       0.658   1.456   1.144  0.00  0.00    +0.000 A 
ATOM     19  C   UNL     1      -0.648   1.611   1.625  0.00  0.00    +0.000 A 
ATOM     20  C   UNL     1      -1.619   0.661   1.316  0.00  0.00    +0.000 A 
ATOM     21 CL   UNL     1      -3.224   0.851   1.900  0.00  0.00    +0.000 Cl
ATOM     22  C   UNL     1      -1.294  -0.443   0.534  0.00  0.00    +0.000 A 
ATOM     23  C   UNL     1       0.010  -0.600   0.065  0.00  0.00    +0.000 A 
ENDBRANCH  16  17
ENDBRANCH  14  16
ENDBRANCH   1  14
TORSDOF 4
