REMARK  Name = 
REMARK  8 active torsions:
REMARK  status: ('A' for Active; 'I' for Inactive)
REMARK    1  A    between atoms: C_2  and  C_4
REMARK    2  A    between atoms: C_7  and  N_8
REMARK    3  A    between atoms: N_8  and  C_9
REMARK    4  A    between atoms: C_9  and  C_10
REMARK    5  A    between atoms: C_10  and  S_11
REMARK    6  A    between atoms: S_11  and  C_12
REMARK    7  A    between atoms: C_16  and  N_17
REMARK    8  A    between atoms: N_17  and  C_18
REMARK                            x       y       z     vdW  Elec       q    Type
REMARK                         _______ _______ _______ _____ _____    ______ ____
ROOT
ATOM      1  C   UNL     1       4.851  -3.254  -5.210  0.00  0.00    +0.000 C 
ENDROOT
BRANCH   1   2
ATOM      2  N   UNL     1       5.329  -3.068  -3.839  0.00  0.00    +0.000 N 
ATOM      3  H   UNL     1       5.591  -3.924  -3.353  0.00  0.00    +0.000 HD
BRANCH   2   7
ATOM      4  C   UNL     1       3.454  -0.312  -1.230  0.00  0.00    +0.000 A 
ATOM      5  C   UNL     1       2.963  -0.472  -2.526  0.00  0.00    +0.000 A 
ATOM      6  C   UNL     1       3.569  -1.388  -3.397  0.00  0.00    +0.000 A 
ATOM      7  C   UNL     1       4.649  -2.183  -2.990  0.00  0.00    +0.000 A 
ATOM      8  C   UNL     1       5.145  -1.988  -1.692  0.00  0.00    +0.000 A 
ATOM      9  C   UNL     1       4.560  -1.060  -0.822  0.00  0.00    +0.000 A 
BRANCH   4  11
ATOM     10  N   UNL     1       1.529   0.954  -0.437  0.00  0.00    +0.000 N 
ATOM     11  C   UNL     1       2.856   0.664  -0.282  0.00  0.00    +0.000 C 
ATOM     12  O   UNL     1       3.510   1.161   0.626  0.00  0.00    +0.000 OA
ATOM     13  H   UNL     1       1.112   1.536   0.279  0.00  0.00    +0.000 HD
ATOM     14  H   UNL     1       0.912   0.386  -0.999  0.00  0.00    +0.000 HD
ENDBRANCH   4  11
ENDBRANCH   2   7
ENDBRANCH   1   2
BRANCH   1  15
ATOM     15  C   UNL     1       5.714  -4.252  -5.992  0.00  0.00    +0.000 C 
BRANCH  15  16
ATOM     16  S   UNL     1       5.131  -4.270  -7.731  0.00  0.00    +0.000 S 
BRANCH  16  17
ATOM     17  C   UNL     1       6.155  -5.526  -8.465  0.00  0.00    +0.000 A 
ATOM     18  C   UNL     1       6.230  -6.822  -7.967  0.00  0.00    +0.000 A 
ATOM     19  N   UNL     1       6.902  -7.830  -8.568  0.00  0.00    +0.000 NA
ATOM     20  C   UNL     1       7.510  -7.528  -9.739  0.00  0.00    +0.000 A 
ATOM     21  C   UNL     1       7.528  -6.264 -10.334  0.00  0.00    +0.000 A 
ATOM     22  C   UNL     1       6.818  -5.258  -9.672  0.00  0.00    +0.000 A 
BRANCH  21  23
ATOM     23  N   UNL     1       8.143  -6.075 -11.591  0.00  0.00    +0.000 N 
ATOM     24  H   UNL     1       8.721  -6.873 -11.854  0.00  0.00    +0.000 HD
BRANCH  23  25
ATOM     25  C   UNL     1       8.657  -4.829 -12.106  0.00  0.00    +0.000 C 
ATOM     26  C   UNL     1       9.225  -4.958 -13.529  0.00  0.00    +0.000 C 
ATOM     27  O   UNL     1      10.516  -4.454 -13.105  0.00  0.00    +0.000 OA
ATOM     28  C   UNL     1      10.117  -4.552 -11.715  0.00  0.00    +0.000 C 
ENDBRANCH  23  25
ENDBRANCH  21  23
ENDBRANCH  16  17
ENDBRANCH  15  16
ENDBRANCH   1  15
TORSDOF 8
