REMARK  Name = 
REMARK  6 active torsions:
REMARK  status: ('A' for Active; 'I' for Inactive)
REMARK    1  A    between atoms: N_1  and  C_2
REMARK    2  A    between atoms: C_2  and  C_3
REMARK    3  A    between atoms: C_3  and  C_4
REMARK    4  A    between atoms: C_7  and  C_8
REMARK    5  A    between atoms: C_8  and  N_9
REMARK    6  A    between atoms: C_14  and  C_15
REMARK                            x       y       z     vdW  Elec       q    Type
REMARK                         _______ _______ _______ _____ _____    ______ ____
ROOT
ATOM      1  N   UNL     1       9.575   1.194  -2.038  0.00  0.00    +0.000 N 
ATOM      2  N   UNL     1       9.878   2.388  -1.482  0.00  0.00    +0.000 NA
ATOM      3  N   UNL     1       9.792   3.295  -2.441  0.00  0.00    +0.000 NA
ATOM      4  C   UNL     1       9.549   2.646  -3.619  0.00  0.00    +0.000 A 
ATOM      5  C   UNL     1       9.266   3.143  -4.895  0.00  0.00    +0.000 A 
ATOM      6  C   UNL     1       9.068   2.235  -5.948  0.00  0.00    +0.000 A 
ATOM      7  C   UNL     1       9.220   0.855  -5.729  0.00  0.00    +0.000 A 
ATOM      8  C   UNL     1       9.465   0.340  -4.447  0.00  0.00    +0.000 A 
ATOM      9  C   UNL     1       9.575   1.272  -3.410  0.00  0.00    +0.000 A 
ENDROOT
BRANCH   6  10
ATOM     10  C   UNL     1       8.646   2.813  -7.256  0.00  0.00    +0.000 C 
ATOM     11  N   UNL     1       8.501   1.989  -8.332  0.00  0.00    +0.000 N 
ATOM     12  O   UNL     1       8.411   4.013  -7.377  0.00  0.00    +0.000 OA
ATOM     13  H   UNL     1       8.699   1.003  -8.350  0.00  0.00    +0.000 HD
ATOM     14  H   UNL     1       8.197   2.428  -9.192  0.00  0.00    +0.000 HD
ENDBRANCH   6  10
BRANCH   1  15
ATOM     15  C   UNL     1       8.885   0.199  -1.227  0.00  0.00    +0.000 C 
BRANCH  15  19
ATOM     16  C   UNL     1       4.634   0.902  -1.750  0.00  0.00    +0.000 A 
ATOM     17  C   UNL     1       5.272  -0.136  -2.440  0.00  0.00    +0.000 A 
ATOM     18  C   UNL     1       6.633  -0.392  -2.244  0.00  0.00    +0.000 A 
ATOM     19  C   UNL     1       7.384   0.385  -1.352  0.00  0.00    +0.000 A 
ATOM     20  C   UNL     1       6.738   1.418  -0.654  0.00  0.00    +0.000 A 
ATOM     21  C   UNL     1       5.377   1.670  -0.848  0.00  0.00    +0.000 A 
BRANCH  16  22
ATOM     22  C   UNL     1       3.166   1.187  -1.970  0.00  0.00    +0.000 C 
BRANCH  22  23
ATOM     23  C   UNL     1       2.279   0.385  -1.012  0.00  0.00    +0.000 C 
BRANCH  23  24
ATOM     24  N   UNL     1       0.863   0.682  -1.224  0.00  0.00    +0.000 NA
ATOM     25  H   UNL     1       0.302   0.114  -0.590  0.00  0.00    +0.000 HD
ATOM     26  H   UNL     1       0.590   0.410  -2.168  0.00  0.00    +0.000 HD
ENDBRANCH  23  24
ENDBRANCH  22  23
ENDBRANCH  16  22
ENDBRANCH  15  19
ENDBRANCH   1  15
TORSDOF 6
