REMARK  Name = 
REMARK  10 active torsions:
REMARK  status: ('A' for Active; 'I' for Inactive)
REMARK    1  A    between atoms: C_1  and  C_2
REMARK    2  A    between atoms: C_2  and  N_3
REMARK    3  A    between atoms: C_2  and  C_17
REMARK    4  A    between atoms: C_4  and  C_6
REMARK    5  A    between atoms: N_12  and  C_13
REMARK    6  A    between atoms: C_20  and  C_21
REMARK    7  A    between atoms: C_21  and  C_22
REMARK    8  A    between atoms: C_22  and  C_23
REMARK    9  A    between atoms: C_22  and  C_24
REMARK   10  A    between atoms: C_22  and  C_25
REMARK                            x       y       z     vdW  Elec       q    Type
REMARK                         _______ _______ _______ _____ _____    ______ ____
ROOT
ATOM      1  C   UNL     1       0.904  -0.378   0.242  0.00  0.00    +0.000 C 
ATOM      2  C   UNL     1       2.351  -0.014  -0.088  0.00  0.00    +0.000 C 
ENDROOT
BRANCH   2   3
ATOM      3  C   UNL     1       2.886   0.874   1.023  0.00  0.00    +0.000 A 
ATOM      4  C   UNL     1       3.550   0.273   2.089  0.00  0.00    +0.000 A 
ATOM      5  C   UNL     1       3.930   1.024   3.197  0.00  0.00    +0.000 A 
ATOM      6  C   UNL     1       3.655   2.395   3.295  0.00  0.00    +0.000 A 
ATOM      7  C   UNL     1       3.048   3.009   2.190  0.00  0.00    +0.000 A 
ATOM      8  C   UNL     1       2.662   2.259   1.072  0.00  0.00    +0.000 A 
BRANCH   6   9
ATOM      9  C   UNL     1       3.927   3.245   4.534  0.00  0.00    +0.000 C 
BRANCH   9  10
ATOM     10  C   UNL     1       4.502   2.583   5.831  0.00  0.00    +0.000 C 
ATOM     11  C   UNL     1       3.528   1.493   6.350  0.00  0.00    +0.000 C 
ATOM     12  C   UNL     1       5.940   2.084   5.550  0.00  0.00    +0.000 C 
BRANCH  10  13
ATOM     13  C   UNL     1       4.623   3.593   6.996  0.00  0.00    +0.000 A 
ATOM     14  C   UNL     1       5.125   3.168   8.235  0.00  0.00    +0.000 A 
ATOM     15  C   UNL     1       5.168   4.058   9.304  0.00  0.00    +0.000 A 
ATOM     16  C   UNL     1       4.718   5.351   9.118  0.00  0.00    +0.000 A 
ATOM     17  C   UNL     1       4.248   5.705   7.864  0.00  0.00    +0.000 A 
ATOM     18  N   UNL     1       4.191   4.862   6.808  0.00  0.00    +0.000 NA
ENDBRANCH  10  13
ENDBRANCH   9  10
ENDBRANCH   6   9
ENDBRANCH   2   3
BRANCH   2  19
ATOM     19  N   UNL     1       2.496   0.642  -1.366  0.00  0.00    +0.000 N 
ATOM     20  C   UNL     1       2.239   0.025  -2.563  0.00  0.00    +0.000 C 
ATOM     21  O   UNL     1       1.722  -1.082  -2.661  0.00  0.00    +0.000 OA
ATOM     22  H   UNL     1       3.229   1.340  -1.379  0.00  0.00    +0.000 HD
BRANCH  20  23
ATOM     23  C   UNL     1       2.558   0.838  -3.738  0.00  0.00    +0.000 A 
ATOM     24  C   UNL     1       1.802   0.740  -4.896  0.00  0.00    +0.000 A 
ATOM     25  S   UNL     1       2.260   1.873  -6.090  0.00  0.00    +0.000 S 
ATOM     26  C   UNL     1       3.514   2.488  -5.115  0.00  0.00    +0.000 A 
ATOM     27  N   UNL     1       4.298   3.516  -5.526  0.00  0.00    +0.000 NA
ATOM     28  C   UNL     1       5.215   3.862  -4.681  0.00  0.00    +0.000 A 
ATOM     29  N   UNL     1       5.448   3.266  -3.459  0.00  0.00    +0.000 N 
ATOM     30  C   UNL     1       6.513   3.726  -2.590  0.00  0.00    +0.000 C 
ATOM     31  C   UNL     1       4.674   2.205  -3.015  0.00  0.00    +0.000 A 
ATOM     32  O   UNL     1       4.860   1.644  -1.937  0.00  0.00    +0.000 OA
ATOM     33  C   UNL     1       3.598   1.820  -3.910  0.00  0.00    +0.000 A 
ENDBRANCH  20  23
ENDBRANCH   2  19
TORSDOF 6
