REMARK  Name = 
REMARK  8 active torsions:
REMARK  status: ('A' for Active; 'I' for Inactive)
REMARK    1  A    between atoms: C_1  and  N_2
REMARK    2  A    between atoms: N_2  and  C_3
REMARK    3  A    between atoms: C_3  and  C_4
REMARK    4  A    between atoms: C_7  and  C_8
REMARK    5  A    between atoms: C_8  and  C_9
REMARK    6  A    between atoms: C_9  and  N_10
REMARK    7  A    between atoms: N_10  and  C_11
REMARK    8  A    between atoms: C_18  and  C_20
REMARK                            x       y       z     vdW  Elec       q    Type
REMARK                         _______ _______ _______ _____ _____    ______ ____
ROOT
ATOM      1  C   UNL     1       3.127  -0.719  -1.152  0.00  0.00    +0.000 C 
ENDROOT
BRANCH   1   2
ATOM      2  C   UNL     1       2.256  -1.107  -2.308  0.00  0.00    +0.000 A 
ATOM      3  C   UNL     1       2.049  -2.439  -2.667  0.00  0.00    +0.000 A 
ATOM      4  C   UNL     1       1.164  -2.748  -3.701  0.00  0.00    +0.000 A 
ATOM      5  C   UNL     1       0.508  -1.709  -4.351  0.00  0.00    +0.000 A 
ATOM      6  N   UNL     1       0.702  -0.411  -4.010  0.00  0.00    +0.000 NA
ATOM      7  C   UNL     1       1.573  -0.135  -3.024  0.00  0.00    +0.000 A 
BRANCH   5   8
ATOM      8  C   UNL     1      -0.495  -1.975  -5.455  0.00  0.00    +0.000 C 
BRANCH   8   9
ATOM      9  C   UNL     1      -0.477  -0.802  -6.446  0.00  0.00    +0.000 C 
BRANCH   9  10
ATOM     10  N   UNL     1      -1.371  -0.950  -7.606  0.00  0.00    +0.000 NA
ATOM     11  H   UNL     1      -2.326  -1.071  -7.270  0.00  0.00    +0.000 HD
BRANCH  10  12
ATOM     12  C   UNL     1      -1.309   0.281  -8.431  0.00  0.00    +0.000 C 
ATOM     13  C   UNL     1      -2.281   0.222  -9.601  0.00  0.00    +0.000 C 
ATOM     14  C   UNL     1      -1.452  -0.386 -10.713  0.00  0.00    +0.000 C 
ATOM     15  N   UNL     1      -0.138   0.251 -10.585  0.00  0.00    +0.000 NA
ATOM     16  C   UNL     1       0.048   0.504  -9.144  0.00  0.00    +0.000 C 
ATOM     17  H   UNL     1      -0.146   1.144 -11.074  0.00  0.00    +0.000 HD
ENDBRANCH  10  12
ENDBRANCH   9  10
ENDBRANCH   8   9
ENDBRANCH   5   8
ENDBRANCH   1   2
BRANCH   1  19
ATOM     18  C   UNL     1       1.048  -0.848   0.308  0.00  0.00    +0.000 C 
ATOM     19  N   UNL     1       2.496  -0.703   0.174  0.00  0.00    +0.000 N 
ATOM     20  C   UNL     1       3.215  -0.722   1.381  0.00  0.00    +0.000 C 
ATOM     21  O   UNL     1       2.637  -0.845   2.460  0.00  0.00    +0.000 OA
BRANCH  20  22
ATOM     22  C   UNL     1       4.673  -0.551   1.363  0.00  0.00    +0.000 A 
ATOM     23  C   UNL     1       5.344   0.410   0.626  0.00  0.00    +0.000 A 
ATOM     24  S   UNL     1       7.034   0.411   0.877  0.00  0.00    +0.000 S 
ATOM     25  C   UNL     1       6.908  -0.778   2.084  0.00  0.00    +0.000 A 
ATOM     26  N   UNL     1       7.994  -1.174   2.802  0.00  0.00    +0.000 NA
ATOM     27  C   UNL     1       7.729  -2.032   3.732  0.00  0.00    +0.000 A 
ATOM     28  N   UNL     1       6.489  -2.563   3.982  0.00  0.00    +0.000 N 
ATOM     29  C   UNL     1       5.386  -2.297   3.193  0.00  0.00    +0.000 A 
ATOM     30  O   UNL     1       4.363  -2.965   3.290  0.00  0.00    +0.000 OA
ATOM     31  C   UNL     1       5.611  -1.239   2.221  0.00  0.00    +0.000 A 
ATOM     32  H   UNL     1       6.366  -3.276   4.683  0.00  0.00    +0.000 HD
ENDBRANCH  20  22
ENDBRANCH   1  19
TORSDOF 7
