REMARK  Name = 
REMARK  9 active torsions:
REMARK  status: ('A' for Active; 'I' for Inactive)
REMARK    1  A    between atoms: C_1  and  O_2
REMARK    2  A    between atoms: O_2  and  C_3
REMARK    3  A    between atoms: C_10  and  C_11
REMARK    4  A    between atoms: N_13  and  C_14
REMARK    5  A    between atoms: C_14  and  C_15
REMARK    6  A    between atoms: C_18  and  C_19
REMARK    7  A    between atoms: C_19  and  O_20
REMARK    8  A    between atoms: O_20  and  C_21
REMARK    9  A    between atoms: C_21  and  C_22
REMARK                            x       y       z     vdW  Elec       q    Type
REMARK                         _______ _______ _______ _____ _____    ______ ____
ROOT
ATOM      1  C   UNL     1       2.839   2.188   2.468  0.00  0.00    +0.000 C 
ENDROOT
BRANCH   1   2
ATOM      2  C   UNL     1       1.680   2.817   1.739  0.00  0.00    +0.000 A 
ATOM      3  C   UNL     1       0.561   2.054   1.383  0.00  0.00    +0.000 A 
ATOM      4  C   UNL     1      -0.474   2.618   0.633  0.00  0.00    +0.000 A 
ATOM      5  C   UNL     1      -0.407   3.957   0.224  0.00  0.00    +0.000 A 
ATOM      6  C   UNL     1       0.696   4.729   0.607  0.00  0.00    +0.000 A 
ATOM      7  C   UNL     1       1.733   4.163   1.352  0.00  0.00    +0.000 A 
BRANCH   5   8
ATOM      8  C   UNL     1      -1.521   4.565  -0.592  0.00  0.00    +0.000 C 
BRANCH   8   9
ATOM      9  O   UNL     1      -2.785   4.474   0.063  0.00  0.00    +0.000 OA
BRANCH   9  10
ATOM     10  C   UNL     1      -2.841   5.258   1.256  0.00  0.00    +0.000 C 
BRANCH  10  11
ATOM     11  C   UNL     1      -4.203   5.168   1.878  0.00  0.00    +0.000 A 
ATOM     12  C   UNL     1      -5.374   5.059   1.126  0.00  0.00    +0.000 A 
ATOM     13  C   UNL     1      -6.607   5.002   1.770  0.00  0.00    +0.000 A 
ATOM     14  C   UNL     1      -6.628   5.073   3.153  0.00  0.00    +0.000 A 
ATOM     15  N   UNL     1      -5.522   5.200   3.916  0.00  0.00    +0.000 NA
ATOM     16  C   UNL     1      -4.340   5.246   3.262  0.00  0.00    +0.000 A 
ENDBRANCH  10  11
ENDBRANCH   9  10
ENDBRANCH   8   9
ENDBRANCH   5   8
ENDBRANCH   1   2
BRANCH   1  19
ATOM     17  C   UNL     1       4.907   0.959   1.977  0.00  0.00    +0.000 C 
ATOM     18  O   UNL     1       5.137   0.840   3.179  0.00  0.00    +0.000 OA
ATOM     19  N   UNL     1       3.791   1.625   1.539  0.00  0.00    +0.000 N 
ATOM     20  H   UNL     1       3.628   1.753   0.548  0.00  0.00    +0.000 HD
BRANCH  17  28
ATOM     21  C   UNL     1       4.863   0.814  -1.478  0.00  0.00    +0.000 A 
ATOM     22  N   UNL     1       5.086   0.571  -2.788  0.00  0.00    +0.000 NA
ATOM     23  C   UNL     1       6.183  -0.108  -3.130  0.00  0.00    +0.000 A 
ATOM     24  N   UNL     1       7.110  -0.589  -2.310  0.00  0.00    +0.000 NA
ATOM     25  C   UNL     1       6.849  -0.339  -1.016  0.00  0.00    +0.000 A 
ATOM     26  S   UNL     1       7.932  -0.887   0.169  0.00  0.00    +0.000 S 
ATOM     27  C   UNL     1       6.969  -0.246   1.413  0.00  0.00    +0.000 A 
ATOM     28  C   UNL     1       5.817   0.393   0.966  0.00  0.00    +0.000 A 
ATOM     29  C   UNL     1       5.752   0.345  -0.493  0.00  0.00    +0.000 A 
BRANCH  21  31
ATOM     30  C   UNL     1       2.978   1.972  -2.257  0.00  0.00    +0.000 C 
ATOM     31  O   UNL     1       3.753   1.558  -1.132  0.00  0.00    +0.000 OA
ENDBRANCH  21  31
ENDBRANCH  17  28
ENDBRANCH   1  19
TORSDOF 8
