REMARK  Name = 
REMARK  9 active torsions:
REMARK  status: ('A' for Active; 'I' for Inactive)
REMARK    1  A    between atoms: C_1  and  C_2
REMARK    2  A    between atoms: C_2  and  C_3
REMARK    3  A    between atoms: C_2  and  C_26
REMARK    4  A    between atoms: C_3  and  N_4
REMARK    5  A    between atoms: N_4  and  C_5
REMARK    6  A    between atoms: C_5  and  C_6
REMARK    7  A    between atoms: C_9  and  C_10
REMARK    8  A    between atoms: C_10  and  N_11
REMARK    9  A    between atoms: C_12  and  C_14
REMARK                            x       y       z     vdW  Elec       q    Type
REMARK                         _______ _______ _______ _____ _____    ______ ____
ROOT
ATOM      1  C   UNL     1      -1.636  -1.391  -2.430  0.00  0.00    +0.000 A 
ATOM      2  C   UNL     1      -0.783  -1.808  -3.454  0.00  0.00    +0.000 A 
ATOM      3  C   UNL     1      -1.312  -2.398  -4.601  0.00  0.00    +0.000 A 
ATOM      4  C   UNL     1      -2.694  -2.541  -4.715  0.00  0.00    +0.000 A 
ATOM      5  N   UNL     1      -3.543  -2.141  -3.737  0.00  0.00    +0.000 NA
ATOM      6  C   UNL     1      -3.001  -1.564  -2.640  0.00  0.00    +0.000 A 
ENDROOT
BRANCH   1   7
ATOM      7  C   UNL     1      -1.090  -0.751  -1.180  0.00  0.00    +0.000 C 
BRANCH   7   8
ATOM      8  N   UNL     1      -1.864  -1.019   0.037  0.00  0.00    +0.000 NA
ATOM      9  H   UNL     1      -1.461  -0.480   0.805  0.00  0.00    +0.000 HD
BRANCH   8  10
ATOM     10  C   UNL     1      -1.880  -2.441   0.406  0.00  0.00    +0.000 C 
BRANCH  10  12
ATOM     11  C   UNL     1      -4.225  -2.156   1.414  0.00  0.00    +0.000 C 
ATOM     12  C   UNL     1      -2.809  -2.713   1.610  0.00  0.00    +0.000 C 
BRANCH  12  13
ATOM     13  C   UNL     1      -2.873  -4.196   1.917  0.00  0.00    +0.000 A 
ATOM     14  C   UNL     1      -3.355  -5.125   0.991  0.00  0.00    +0.000 A 
ATOM     15  N   UNL     1      -3.451  -6.448   1.248  0.00  0.00    +0.000 NA
ATOM     16  C   UNL     1      -3.046  -6.823   2.482  0.00  0.00    +0.000 A 
ATOM     17  C   UNL     1      -2.565  -5.915   3.411  0.00  0.00    +0.000 A 
ATOM     18  N   UNL     1      -2.466  -4.592   3.150  0.00  0.00    +0.000 NA
ENDBRANCH  12  13
ENDBRANCH  10  12
ENDBRANCH   8  10
ENDBRANCH   7   8
ENDBRANCH   1   7
BRANCH   4  19
ATOM     19  C   UNL     1      -3.297  -3.205  -5.930  0.00  0.00    +0.000 C 
BRANCH  19  20
ATOM     20  N   UNL     1      -3.397  -4.636  -5.747  0.00  0.00    +0.000 N 
ATOM     21  C   UNL     1      -3.301  -5.516  -6.790  0.00  0.00    +0.000 C 
ATOM     22  O   UNL     1      -3.050  -5.151  -7.934  0.00  0.00    +0.000 OA
ATOM     23  H   UNL     1      -3.840  -4.929  -4.880  0.00  0.00    +0.000 HD
BRANCH  21  24
ATOM     24  C   UNL     1      -3.437  -6.941  -6.454  0.00  0.00    +0.000 A 
ATOM     25  C   UNL     1      -2.885  -7.901  -7.292  0.00  0.00    +0.000 A 
ATOM     26  S   UNL     1      -3.056  -9.495  -6.712  0.00  0.00    +0.000 S 
ATOM     27  C   UNL     1      -3.923  -8.964  -5.347  0.00  0.00    +0.000 A 
ATOM     28  N   UNL     1      -4.385  -9.849  -4.423  0.00  0.00    +0.000 NA
ATOM     29  C   UNL     1      -5.051  -9.311  -3.456  0.00  0.00    +0.000 A 
ATOM     30  N   UNL     1      -5.300  -7.970  -3.330  0.00  0.00    +0.000 N 
ATOM     31  C   UNL     1      -4.834  -7.037  -4.226  0.00  0.00    +0.000 A 
ATOM     32  O   UNL     1      -5.045  -5.840  -4.068  0.00  0.00    +0.000 OA
ATOM     33  C   UNL     1      -4.075  -7.589  -5.332  0.00  0.00    +0.000 A 
ATOM     34  H   UNL     1      -5.823  -7.611  -2.545  0.00  0.00    +0.000 HD
ENDBRANCH  21  24
ENDBRANCH  19  20
ENDBRANCH   4  19
TORSDOF 8
