REMARK  Name = 
REMARK  7 active torsions:
REMARK  status: ('A' for Active; 'I' for Inactive)
REMARK    1  A    between atoms: C_2  and  C_4
REMARK    2  A    between atoms: C_7  and  O_8
REMARK    3  A    between atoms: O_8  and  C_9
REMARK    4  A    between atoms: C_9  and  C_10
REMARK    5  A    between atoms: C_10  and  C_11
REMARK    6  A    between atoms: CA_15  and  C_16
REMARK    7  A    between atoms: C_16  and  OXT_18
REMARK                            x       y       z     vdW  Elec       q    Type
REMARK                         _______ _______ _______ _____ _____    ______ ____
ROOT
ATOM      1  O   UNL     1       5.390  -1.376   4.615  0.00  0.00    +0.000 OA
ENDROOT
BRANCH   1   5
ATOM      2  C   UNL     1       3.288  -0.561   1.100  0.00  0.00    +0.000 A 
ATOM      3  C   UNL     1       2.801  -1.556   1.955  0.00  0.00    +0.000 A 
ATOM      4  C   UNL     1       3.476  -1.855   3.145  0.00  0.00    +0.000 A 
ATOM      5  C   UNL     1       4.642  -1.168   3.488  0.00  0.00    +0.000 A 
ATOM      6  C   UNL     1       5.128  -0.179   2.628  0.00  0.00    +0.000 A 
ATOM      7  C   UNL     1       4.460   0.122   1.436  0.00  0.00    +0.000 A 
BRANCH   2   9
ATOM      8  N   UNL     1       1.259  -0.452  -0.243  0.00  0.00    +0.000 N 
ATOM      9  C   UNL     1       2.609  -0.238  -0.181  0.00  0.00    +0.000 C 
ATOM     10  O   UNL     1       3.220   0.228  -1.134  0.00  0.00    +0.000 OA
ATOM     11  H   UNL     1       0.795  -0.143  -1.089  0.00  0.00    +0.000 HD
ATOM     12  H   UNL     1       0.693  -0.585   0.582  0.00  0.00    +0.000 HD
ENDBRANCH   2   9
ENDBRANCH   1   5
BRANCH   1  13
ATOM     13  C   UNL     1       4.933  -2.393   5.514  0.00  0.00    +0.000 C 
BRANCH  13  14
ATOM     14  C   UNL     1       5.899  -2.477   6.688  0.00  0.00    +0.000 C 
BRANCH  14  15
ATOM     15  C   UNL     1       5.464  -3.546   7.648  0.00  0.00    +0.000 A 
ATOM     16  N   UNL     1       4.603  -3.185   8.621  0.00  0.00    +0.000 NA
ATOM     17  C   UNL     1       4.190  -4.147   9.471  0.00  0.00    +0.000 A 
ATOM     18  C   UNL     1       4.588  -5.452   9.378  0.00  0.00    +0.000 A 
ATOM     19  CA  UNL     1       5.457  -5.722   8.343  0.00  0.00    +0.000 A 
ATOM     20  N   UNL     1       5.914  -4.799   7.455  0.00  0.00    +0.000 NA
BRANCH  19  21
ATOM     21  C   UNL     1       5.945  -7.117   8.151  0.00  0.00    +0.000 C 
ATOM     22  O   UNL     1       5.618  -8.060   8.849  0.00  0.00    +0.000 OA
BRANCH  21  23
ATOM     23  OXT UNL     1       6.801  -7.208   7.104  0.00  0.00    +0.000 OA
ATOM     24  HXT UNL     1       6.924  -6.324   6.692  0.00  0.00    +0.000 HD
ENDBRANCH  21  23
ENDBRANCH  19  21
ENDBRANCH  14  15
ENDBRANCH  13  14
ENDBRANCH   1  13
TORSDOF 7
