REMARK  Name = 
REMARK  4 active torsions:
REMARK  status: ('A' for Active; 'I' for Inactive)
REMARK    1  A    between atoms: C_2  and  C_4
REMARK    2  A    between atoms: C_7  and  C_8
REMARK    3  A    between atoms: C_8  and  C_9
REMARK    4  A    between atoms: C_9  and  C_10
REMARK                            x       y       z     vdW  Elec       q    Type
REMARK                         _______ _______ _______ _____ _____    ______ ____
ROOT
ATOM      1  C   UNL     1       2.991  -0.961  -0.449  0.00  0.00    +0.000 A 
ATOM      2  N   UNL     1       4.304  -1.030  -0.122  0.00  0.00    +0.000 NA
ATOM      3  C   UNL     1       4.992  -2.052  -0.677  0.00  0.00    +0.000 A 
ATOM      4  C   UNL     1       4.432  -3.014  -1.499  0.00  0.00    +0.000 A 
ATOM      5  C   UNL     1       3.089  -2.807  -1.774  0.00  0.00    +0.000 A 
ATOM      6  N   UNL     1       2.346  -1.808  -1.270  0.00  0.00    +0.000 NA
ENDROOT
BRANCH   1   8
ATOM      7  N   UNL     1       2.904   1.005   0.998  0.00  0.00    +0.000 N 
ATOM      8  C   UNL     1       2.204   0.171   0.156  0.00  0.00    +0.000 C 
ATOM      9  O   UNL     1       1.013   0.377  -0.064  0.00  0.00    +0.000 OA
ATOM     10  H   UNL     1       2.432   1.797   1.408  0.00  0.00    +0.000 HD
ATOM     11  H   UNL     1       3.894   0.855   1.150  0.00  0.00    +0.000 HD
ENDBRANCH   1   8
BRANCH   4  12
ATOM     12  C   UNL     1       5.153  -4.134  -2.205  0.00  0.00    +0.000 C 
BRANCH  12  13
ATOM     13  C   UNL     1       6.329  -4.831  -1.556  0.00  0.00    +0.000 C 
ATOM     14  C   UNL     1       6.506  -4.892  -0.047  0.00  0.00    +0.000 C 
ATOM     15  O   UNL     1       7.260  -3.982  -0.862  0.00  0.00    +0.000 OA
BRANCH  13  16
ATOM     16  C   UNL     1       6.929  -5.963  -2.373  0.00  0.00    +0.000 A 
ATOM     17  C   UNL     1       7.898  -5.711  -3.348  0.00  0.00    +0.000 A 
ATOM     18  C   UNL     1       8.487  -6.770  -4.033  0.00  0.00    +0.000 A 
ATOM     19  C   UNL     1       8.092  -8.067  -3.741  0.00  0.00    +0.000 A 
ATOM     20  C   UNL     1       7.106  -8.245  -2.788  0.00  0.00    +0.000 A 
ATOM     21  N   UNL     1       6.519  -7.233  -2.111  0.00  0.00    +0.000 NA
ENDBRANCH  13  16
ENDBRANCH  12  13
ENDBRANCH   4  12
TORSDOF 4
