REMARK  Name = 
REMARK  7 active torsions:
REMARK  status: ('A' for Active; 'I' for Inactive)
REMARK    1  A    between atoms: C_1  and  C_2
REMARK    2  A    between atoms: C_2  and  N_3
REMARK    3  A    between atoms: C_2  and  C_17
REMARK    4  A    between atoms: C_4  and  C_6
REMARK    5  A    between atoms: N_12  and  C_13
REMARK    6  A    between atoms: C_20  and  C_21
REMARK    7  A    between atoms: C_21  and  C_22
REMARK                            x       y       z     vdW  Elec       q    Type
REMARK                         _______ _______ _______ _____ _____    ______ ____
ROOT
ATOM      1  C   UNL     1       0.955   0.079  -0.038  0.00  0.00    +0.000 C 
ATOM      2  C   UNL     1       2.487   0.035  -0.024  0.00  0.00    +0.000 C 
ENDROOT
BRANCH   2   3
ATOM      3  C   UNL     1       3.034   1.137  -0.925  0.00  0.00    +0.000 A 
ATOM      4  C   UNL     1       2.720   1.206  -2.281  0.00  0.00    +0.000 A 
ATOM      5  N   UNL     1       3.053   2.259  -3.076  0.00  0.00    +0.000 NA
ATOM      6  C   UNL     1       3.727   3.271  -2.468  0.00  0.00    +0.000 A 
ATOM      7  C   UNL     1       4.075   3.188  -1.126  0.00  0.00    +0.000 A 
ATOM      8  N   UNL     1       3.748   2.132  -0.338  0.00  0.00    +0.000 NA
BRANCH   6   9
ATOM      9  C   UNL     1       4.051   4.504  -3.274  0.00  0.00    +0.000 C 
BRANCH   9  10
ATOM     10  C   UNL     1       3.006   5.594  -3.196  0.00  0.00    +0.000 A 
ATOM     11  C   UNL     1       1.708   5.375  -3.660  0.00  0.00    +0.000 A 
ATOM     12  C   UNL     1       0.791   6.422  -3.630  0.00  0.00    +0.000 A 
ATOM     13  C   UNL     1       1.187   7.662  -3.148  0.00  0.00    +0.000 A 
ATOM     14  C   UNL     1       2.490   7.800  -2.703  0.00  0.00    +0.000 A 
ATOM     15  N   UNL     1       3.403   6.801  -2.713  0.00  0.00    +0.000 NA
ENDBRANCH   9  10
ENDBRANCH   6   9
ENDBRANCH   2   3
BRANCH   2  16
ATOM     16  N   UNL     1       2.997  -1.285  -0.367  0.00  0.00    +0.000 N 
ATOM     17  C   UNL     1       2.764  -2.406   0.391  0.00  0.00    +0.000 C 
ATOM     18  O   UNL     1       2.162  -2.368   1.460  0.00  0.00    +0.000 OA
ATOM     19  H   UNL     1       3.459  -1.388  -1.264  0.00  0.00    +0.000 HD
BRANCH  17  20
ATOM     20  C   UNL     1       3.293  -3.672  -0.139  0.00  0.00    +0.000 A 
ATOM     21  C   UNL     1       3.558  -4.732   0.717  0.00  0.00    +0.000 A 
ATOM     22  S   UNL     1       4.141  -6.121  -0.084  0.00  0.00    +0.000 S 
ATOM     23  C   UNL     1       4.021  -5.365  -1.604  0.00  0.00    +0.000 A 
ATOM     24  N   UNL     1       4.336  -6.031  -2.743  0.00  0.00    +0.000 NA
ATOM     25  C   UNL     1       4.169  -5.346  -3.829  0.00  0.00    +0.000 A 
ATOM     26  N   UNL     1       3.728  -4.041  -3.893  0.00  0.00    +0.000 N 
ATOM     27  C   UNL     1       3.615  -3.352  -5.157  0.00  0.00    +0.000 C 
ATOM     28  C   UNL     1       3.440  -3.316  -2.739  0.00  0.00    +0.000 A 
ATOM     29  O   UNL     1       3.124  -2.131  -2.768  0.00  0.00    +0.000 OA
ATOM     30  C   UNL     1       3.577  -4.061  -1.502  0.00  0.00    +0.000 A 
ENDBRANCH  17  20
ENDBRANCH   2  16
TORSDOF 5
