REMARK  Name = 
REMARK  2 active torsions:
REMARK  status: ('A' for Active; 'I' for Inactive)
REMARK    1  A    between atoms: N_6  and  C_7
REMARK    2  A    between atoms: C_7  and  C_8
REMARK                            x       y       z     vdW  Elec       q    Type
REMARK                         _______ _______ _______ _____ _____    ______ ____
ROOT
ATOM      1  F   UNL     1      -2.180   0.651   0.267  0.00  0.00    +0.000 F 
ATOM      2  C   UNL     1      -0.852   0.504   0.264  0.00  0.00    +0.000 A 
ATOM      3  C   UNL     1      -0.245  -0.662  -0.127  0.00  0.00    +0.000 A 
ATOM      4  N   UNL     1       1.098  -0.830  -0.154  0.00  0.00    +0.000 NA
ATOM      5  C   UNL     1       1.847   0.211   0.242  0.00  0.00    +0.000 A 
ATOM      6  N   UNL     1       3.222   0.030   0.215  0.00  0.00    +0.000 N 
ATOM      7  N   UNL     1       1.338   1.389   0.642  0.00  0.00    +0.000 NA
ATOM      8  C   UNL     1      -0.008   1.510   0.646  0.00  0.00    +0.000 A 
ATOM      9  H   UNL     1       3.415  -0.742  -0.412  0.00  0.00    +0.000 HD
ENDROOT
BRANCH   6  10
ATOM     10  C   UNL     1       3.964   1.250  -0.043  0.00  0.00    +0.000 C 
BRANCH  10  11
ATOM     11  C   UNL     1       5.448   0.975  -0.049  0.00  0.00    +0.000 A 
ATOM     12  C   UNL     1       6.241   1.276  -1.161  0.00  0.00    +0.000 A 
ATOM     13  C   UNL     1       7.608   1.051  -1.083  0.00  0.00    +0.000 A 
ATOM     14  N   UNL     1       8.229   0.558   0.009  0.00  0.00    +0.000 NA
ATOM     15  C   UNL     1       7.448   0.277   1.073  0.00  0.00    +0.000 A 
ATOM     16  C   UNL     1       6.076   0.467   1.094  0.00  0.00    +0.000 A 
ENDBRANCH  10  11
ENDBRANCH   6  10
TORSDOF 2
