REMARK  Name = 
REMARK  5 active torsions:
REMARK  status: ('A' for Active; 'I' for Inactive)
REMARK    1  A    between atoms: N_1  and  S_2
REMARK    2  A    between atoms: S_2  and  C_5
REMARK    3  A    between atoms: C_8  and  N_9
REMARK    4  A    between atoms: N_9  and  C_10
REMARK    5  A    between atoms: C_10  and  C_11
REMARK                            x       y       z     vdW  Elec       q    Type
REMARK                         _______ _______ _______ _____ _____    ______ ____
ROOT
ATOM      1  C   UNL     1       3.373   0.450  -1.500  0.00  0.00    +0.000 A 
ATOM      2  C   UNL     1       3.308   1.790  -1.884  0.00  0.00    +0.000 A 
ATOM      3  C   UNL     1       3.863   2.184  -3.108  0.00  0.00    +0.000 A 
ATOM      4  C   UNL     1       4.514   1.257  -3.933  0.00  0.00    +0.000 A 
ATOM      5  C   UNL     1       4.506  -0.091  -3.558  0.00  0.00    +0.000 A 
ATOM      6  C   UNL     1       3.962  -0.498  -2.338  0.00  0.00    +0.000 A 
ENDROOT
BRANCH   1   7
ATOM      7  S   UNL     1       2.804  -0.055   0.097  0.00  0.00    +0.000 S 
ATOM      8  O   UNL     1       2.742   1.096   0.966  0.00  0.00    +0.000 OA
ATOM      9  O   UNL     1       3.476  -1.276   0.477  0.00  0.00    +0.000 OA
BRANCH   7  10
ATOM     10  N   UNL     1       1.213  -0.486  -0.216  0.00  0.00    +0.000 NA
ATOM     11  H   UNL     1       0.594   0.038   0.404  0.00  0.00    +0.000 HD
ATOM     12  H   UNL     1       1.107  -1.497  -0.144  0.00  0.00    +0.000 HD
ENDBRANCH   7  10
ENDBRANCH   1   7
BRANCH   4  13
ATOM     13  N   UNL     1       5.121   1.579  -5.151  0.00  0.00    +0.000 N 
ATOM     14  H   UNL     1       4.508   1.346  -5.932  0.00  0.00    +0.000 HD
BRANCH  13  15
ATOM     15  C   UNL     1       5.681   2.922  -5.312  0.00  0.00    +0.000 C 
BRANCH  15  16
ATOM     16  C   UNL     1       6.803   2.902  -6.333  0.00  0.00    +0.000 A 
ATOM     17  C   UNL     1       7.941   2.124  -6.101  0.00  0.00    +0.000 A 
ATOM     18  C   UNL     1       8.980   2.147  -7.026  0.00  0.00    +0.000 A 
ATOM     19  C   UNL     1       8.856   2.943  -8.157  0.00  0.00    +0.000 A 
ATOM     20  C   UNL     1       7.694   3.678  -8.314  0.00  0.00    +0.000 A 
ATOM     21  F   UNL     1       7.572   4.448  -9.405  0.00  0.00    +0.000 F 
ATOM     22  N   UNL     1       6.668   3.680  -7.437  0.00  0.00    +0.000 NA
ENDBRANCH  15  16
ENDBRANCH  13  15
ENDBRANCH   4  13
TORSDOF 5
