REMARK  Name = 
REMARK  6 active torsions:
REMARK  status: ('A' for Active; 'I' for Inactive)
REMARK    1  A    between atoms: C_1  and  C_2
REMARK    2  A    between atoms: C_2  and  C_3
REMARK    3  A    between atoms: C_2  and  C_14
REMARK    4  A    between atoms: C_3  and  O_4
REMARK    5  A    between atoms: O_4  and  C_5
REMARK    6  A    between atoms: C_8  and  C_9
REMARK                            x       y       z     vdW  Elec       q    Type
REMARK                         _______ _______ _______ _____ _____    ______ ____
ROOT
ATOM      1  O   UNL     1       2.646  -1.508  -1.820  0.00  0.00    +0.000 OA
ENDROOT
BRANCH   1   2
ATOM      2  C   UNL     1       3.149  -1.819  -3.062  0.00  0.00    +0.000 A 
ATOM      3  C   UNL     1       2.788  -3.039  -3.627  0.00  0.00    +0.000 A 
ATOM      4  N   UNL     1       3.219  -3.446  -4.851  0.00  0.00    +0.000 NA
ATOM      5  C   UNL     1       4.032  -2.554  -5.484  0.00  0.00    +0.000 A 
ATOM      6  C   UNL     1       4.393  -1.338  -4.921  0.00  0.00    +0.000 A 
ATOM      7  N   UNL     1       3.964  -0.947  -3.696  0.00  0.00    +0.000 NA
BRANCH   5   8
ATOM      8  C   UNL     1       4.545  -2.909  -6.836  0.00  0.00    +0.000 C 
ATOM      9  N   UNL     1       4.155  -4.125  -7.325  0.00  0.00    +0.000 N 
ATOM     10  O   UNL     1       5.274  -2.159  -7.473  0.00  0.00    +0.000 OA
ATOM     11  H   UNL     1       3.546  -4.724  -6.782  0.00  0.00    +0.000 HD
ATOM     12  H   UNL     1       4.468  -4.408  -8.243  0.00  0.00    +0.000 HD
ENDBRANCH   5   8
ENDBRANCH   1   2
BRANCH   1  13
ATOM     13  C   UNL     1       3.045  -0.209  -1.370  0.00  0.00    +0.000 C 
BRANCH  13  15
ATOM     14  C   UNL     1       2.673  -0.748   1.115  0.00  0.00    +0.000 C 
ATOM     15  C   UNL     1       2.311   0.066  -0.087  0.00  0.00    +0.000 C 
BRANCH  15  16
ATOM     16  C   UNL     1       1.006   0.738  -0.159  0.00  0.00    +0.000 A 
ATOM     17  C   UNL     1      -0.139   0.118   0.362  0.00  0.00    +0.000 A 
ATOM     18  C   UNL     1      -1.393   0.719   0.246  0.00  0.00    +0.000 A 
ATOM     19  C   UNL     1      -1.515   1.958  -0.379  0.00  0.00    +0.000 A 
ATOM     20  C   UNL     1      -0.380   2.591  -0.881  0.00  0.00    +0.000 A 
ATOM     21 CL   UNL     1      -0.530   4.127  -1.644  0.00  0.00    +0.000 Cl
ATOM     22  C   UNL     1       0.875   1.990  -0.778  0.00  0.00    +0.000 A 
ENDBRANCH  15  16
ENDBRANCH  13  15
ENDBRANCH   1  13
TORSDOF 5
