REMARK  Name = 
REMARK  9 active torsions:
REMARK  status: ('A' for Active; 'I' for Inactive)
REMARK    1  A    between atoms: C_1  and  C_2
REMARK    2  A    between atoms: N_6  and  C_7
REMARK    3  A    between atoms: C_7  and  C_8
REMARK    4  A    between atoms: C_8  and  C_9
REMARK    5  A    between atoms: C_8  and  C_10
REMARK    6  A    between atoms: C_8  and  C_11
REMARK    7  A    between atoms: C_13  and  C_14
REMARK    8  A    between atoms: C_14  and  C_15
REMARK    9  A    between atoms: C_15  and  C_16
REMARK                            x       y       z     vdW  Elec       q    Type
REMARK                         _______ _______ _______ _____ _____    ______ ____
ROOT
ATOM      1  C   UNL     1      -6.012   2.459  -0.110  0.00  0.00    +0.000 A 
ATOM      2  C   UNL     1      -7.404   2.525  -0.176  0.00  0.00    +0.000 A 
ATOM      3  C   UNL     1      -8.065   3.752  -0.104  0.00  0.00    +0.000 A 
ATOM      4  C   UNL     1      -7.267   4.903  -0.045  0.00  0.00    +0.000 A 
ATOM      5  C   UNL     1      -5.892   4.770  -0.016  0.00  0.00    +0.000 A 
ATOM      6  N   UNL     1      -5.256   3.581  -0.030  0.00  0.00    +0.000 NA
ENDROOT
BRANCH   1   7
ATOM      7  C   UNL     1      -5.296   1.096  -0.102  0.00  0.00    +0.000 C 
ATOM      8  C   UNL     1      -5.672   0.305  -1.372  0.00  0.00    +0.000 C 
ATOM      9  C   UNL     1      -5.727   0.317   1.159  0.00  0.00    +0.000 C 
BRANCH   7  10
ATOM     10  C   UNL     1      -3.765   1.337  -0.071  0.00  0.00    +0.000 C 
BRANCH  10  16
ATOM     11  C   UNL     1       2.637  -0.176   0.255  0.00  0.00    +0.000 C 
ATOM     12  C   UNL     1       1.155  -0.032   0.160  0.00  0.00    +0.000 A 
ATOM     13  C   UNL     1       0.542   1.214   0.133  0.00  0.00    +0.000 A 
ATOM     14  C   UNL     1      -0.844   1.292   0.056  0.00  0.00    +0.000 A 
ATOM     15  C   UNL     1      -1.602   0.126   0.005  0.00  0.00    +0.000 A 
ATOM     16  N   UNL     1      -2.971   0.123  -0.072  0.00  0.00    +0.000 N 
ATOM     17  N   UNL     1      -1.025  -1.089   0.027  0.00  0.00    +0.000 NA
ATOM     18  C   UNL     1       0.326  -1.144   0.106  0.00  0.00    +0.000 A 
ATOM     19  H   UNL     1      -3.380  -0.799  -0.109  0.00  0.00    +0.000 HD
ENDBRANCH  10  16
ENDBRANCH   7  10
ENDBRANCH   1   7
BRANCH   3  20
ATOM     20  C   UNL     1      -9.565   3.914  -0.207  0.00  0.00    +0.000 C 
BRANCH  20  21
ATOM     21  C   UNL     1     -10.473   2.810   0.374  0.00  0.00    +0.000 C 
ATOM     22  C   UNL     1     -10.137   2.188   1.757  0.00  0.00    +0.000 C 
ATOM     23  C   UNL     1     -10.380   0.856   1.048  0.00  0.00    +0.000 C 
ATOM     24  O   UNL     1     -10.255   1.490  -0.257  0.00  0.00    +0.000 OA
BRANCH  21  25
ATOM     25  C   UNL     1     -12.011   3.280   0.231  0.00  0.00    +0.000 C 
ATOM     26  N   UNL     1     -12.767   2.460  -0.569  0.00  0.00    +0.000 N 
ATOM     27  O   UNL     1     -12.533   4.263   0.751  0.00  0.00    +0.000 OA
ATOM     28  H   UNL     1     -12.346   1.657  -1.025  0.00  0.00    +0.000 HD
ATOM     29  H   UNL     1     -13.739   2.683  -0.725  0.00  0.00    +0.000 HD
ENDBRANCH  21  25
ENDBRANCH  20  21
ENDBRANCH   3  20
TORSDOF 6
