REMARK  Name = 
REMARK  5 active torsions:
REMARK  status: ('A' for Active; 'I' for Inactive)
REMARK    1  A    between atoms: C_2  and  C_3
REMARK    2  A    between atoms: C_7  and  N_8
REMARK    3  A    between atoms: N_8  and  C_9
REMARK    4  A    between atoms: C_9  and  C_10
REMARK    5  A    between atoms: C_12  and  N_13
REMARK                            x       y       z     vdW  Elec       q    Type
REMARK                         _______ _______ _______ _____ _____    ______ ____
ROOT
ATOM      1  C   UNL     1      -2.617   4.936   0.154  0.00  0.00    +0.000 A 
ATOM      2  C   UNL     1      -3.997   4.721   0.249  0.00  0.00    +0.000 A 
ATOM      3  C   UNL     1      -4.889   5.806   0.259  0.00  0.00    +0.000 A 
ATOM      4  C   UNL     1      -4.327   7.079   0.171  0.00  0.00    +0.000 A 
ATOM      5  C   UNL     1      -2.951   7.216   0.082  0.00  0.00    +0.000 A 
ATOM      6  N   UNL     1      -2.089   6.180   0.065  0.00  0.00    +0.000 NA
ENDROOT
BRANCH   3   7
ATOM      7  N   UNL     1      -6.259   5.605   0.333  0.00  0.00    +0.000 N 
ATOM      8  C   UNL     1      -7.220   6.533  -0.290  0.00  0.00    +0.000 C 
ATOM      9  C   UNL     1      -8.083   7.263   0.762  0.00  0.00    +0.000 C 
ATOM     10  N   UNL     1      -8.746   6.346   1.711  0.00  0.00    +0.000 NA
ATOM     11  C   UNL     1      -7.706   5.527   2.368  0.00  0.00    +0.000 C 
ATOM     12  C   UNL     1      -6.813   4.730   1.383  0.00  0.00    +0.000 C 
ATOM     13  H   UNL     1      -9.350   5.721   1.177  0.00  0.00    +0.000 HD
ENDBRANCH   3   7
BRANCH   1  14
ATOM     14  C   UNL     1      -1.642   3.768   0.147  0.00  0.00    +0.000 C 
BRANCH  14  15
ATOM     15  N   UNL     1      -1.362   3.291  -1.203  0.00  0.00    +0.000 N 
ATOM     16  H   UNL     1      -1.981   3.622  -1.934  0.00  0.00    +0.000 HD
BRANCH  15  21
ATOM     17  C   UNL     1       1.228   0.633  -0.915  0.00  0.00    +0.000 A 
ATOM     18  C   UNL     1       1.347   0.318  -2.258  0.00  0.00    +0.000 A 
ATOM     19  N   UNL     1       0.628   0.924  -3.226  0.00  0.00    +0.000 NA
ATOM     20  C   UNL     1      -0.244   1.884  -2.823  0.00  0.00    +0.000 A 
ATOM     21  C   UNL     1      -0.470   2.277  -1.497  0.00  0.00    +0.000 A 
ATOM     22  C   UNL     1       0.314   1.626  -0.541  0.00  0.00    +0.000 A 
BRANCH  17  24
ATOM     23  N   UNL     1       2.668  -0.597   0.850  0.00  0.00    +0.000 NA
ATOM     24  C   UNL     1       2.027  -0.044   0.059  0.00  0.00    +0.000 C 
ENDBRANCH  17  24
ENDBRANCH  15  21
ENDBRANCH  14  15
ENDBRANCH   1  14
TORSDOF 5
