REMARK  Name = 
REMARK  7 active torsions:
REMARK  status: ('A' for Active; 'I' for Inactive)
REMARK    1  A    between atoms: C_1  and  C_2
REMARK    2  A    between atoms: C_4  and  C_5
REMARK    3  A    between atoms: C_10  and  N_11
REMARK    4  A    between atoms: N_11  and  C_12
REMARK    5  A    between atoms: C_12  and  C_13
REMARK    6  A    between atoms: C_17  and  C_18
REMARK    7  A    between atoms: C_22  and  C_23
REMARK                            x       y       z     vdW  Elec       q    Type
REMARK                         _______ _______ _______ _____ _____    ______ ____
ROOT
ATOM      1  C   UNL     1       2.692  -4.061   0.056  0.00  0.00    +0.000 A 
ATOM      2  C   UNL     1       2.873  -4.686   1.289  0.00  0.00    +0.000 A 
ATOM      3  C   UNL     1       3.271  -6.013   1.319  0.00  0.00    +0.000 A 
ATOM      4  C   UNL     1       3.463  -6.689   0.120  0.00  0.00    +0.000 A 
ATOM      5  C   UNL     1       3.243  -6.024  -1.087  0.00  0.00    +0.000 A 
ATOM      6  N   UNL     1       2.870  -4.714  -1.127  0.00  0.00    +0.000 NA
ENDROOT
BRANCH   5   7
ATOM      7  C   UNL     1       3.393  -6.698  -2.389  0.00  0.00    +0.000 A 
ATOM      8  C   UNL     1       3.089  -8.050  -2.566  0.00  0.00    +0.000 A 
ATOM      9  N   UNL     1       3.204  -8.733  -3.732  0.00  0.00    +0.000 NA
ATOM     10  C   UNL     1       3.637  -8.036  -4.804  0.00  0.00    +0.000 A 
ATOM     11  C   UNL     1       3.969  -6.692  -4.764  0.00  0.00    +0.000 A 
ATOM     12  C   UNL     1       3.841  -6.024  -3.535  0.00  0.00    +0.000 A 
BRANCH  11  13
ATOM     13  C   UNL     1       4.449  -5.988  -5.994  0.00  0.00    +0.000 C 
ATOM     14  F   UNL     1       4.503  -6.790  -7.095  0.00  0.00    +0.000 F 
ATOM     15  F   UNL     1       3.656  -4.938  -6.340  0.00  0.00    +0.000 F 
ATOM     16  F   UNL     1       5.703  -5.478  -5.847  0.00  0.00    +0.000 F 
ENDBRANCH  11  13
ENDBRANCH   5   7
BRANCH   1  17
ATOM     17  C   UNL     1       2.261  -2.601   0.037  0.00  0.00    +0.000 C 
BRANCH  17  18
ATOM     18  N   UNL     1       0.805  -2.501   0.188  0.00  0.00    +0.000 N 
ATOM     19  H   UNL     1       0.333  -2.857  -0.634  0.00  0.00    +0.000 HD
BRANCH  18  26
ATOM     20  C   UNL     1      -2.074  -1.892  -0.049  0.00  0.00    +0.000 C 
ATOM     21  C   UNL     1      -1.059  -0.981   0.580  0.00  0.00    +0.000 A 
ATOM     22  C   UNL     1      -1.520   0.207   1.178  0.00  0.00    +0.000 A 
ATOM     23  C   UNL     1      -0.631   1.090   1.779  0.00  0.00    +0.000 A 
ATOM     24  C   UNL     1       0.704   0.754   1.732  0.00  0.00    +0.000 A 
ATOM     25  N   UNL     1       1.186  -0.381   1.159  0.00  0.00    +0.000 NA
ATOM     26  C   UNL     1       0.319  -1.254   0.597  0.00  0.00    +0.000 A 
BRANCH  23  27
ATOM     27  C   UNL     1      -1.170   2.308   2.434  0.00  0.00    +0.000 C 
ATOM     28  N   UNL     1      -0.304   3.184   3.029  0.00  0.00    +0.000 N 
ATOM     29  O   UNL     1      -2.374   2.544   2.452  0.00  0.00    +0.000 OA
ATOM     30  H   UNL     1       0.699   3.087   3.079  0.00  0.00    +0.000 HD
ATOM     31  H   UNL     1      -0.714   3.998   3.465  0.00  0.00    +0.000 HD
ENDBRANCH  23  27
ENDBRANCH  18  26
ENDBRANCH  17  18
ENDBRANCH   1  17
TORSDOF 6
