REMARK  Name = 
REMARK  5 active torsions:
REMARK  status: ('A' for Active; 'I' for Inactive)
REMARK    1  A    between atoms: C_2  and  C_4
REMARK    2  A    between atoms: C_7  and  C_8
REMARK    3  A    between atoms: C_8  and  C_9
REMARK    4  A    between atoms: C_9  and  C_10
REMARK    5  A    between atoms: C_14  and  C_15
REMARK                            x       y       z     vdW  Elec       q    Type
REMARK                         _______ _______ _______ _____ _____    ______ ____
ROOT
ATOM      1  C   UNL     1       4.900  -4.442  -4.162  0.00  0.00    +0.000 C 
ATOM      2  C   UNL     1       4.958  -3.441  -5.317  0.00  0.00    +0.000 C 
ATOM      3  C   UNL     1       3.634  -3.979  -4.878  0.00  0.00    +0.000 C 
ENDROOT
BRANCH   1   4
ATOM      4  C   UNL     1       5.420  -5.841  -4.476  0.00  0.00    +0.000 A 
ATOM      5  C   UNL     1       4.555  -6.931  -4.651  0.00  0.00    +0.000 A 
ATOM      6  C   UNL     1       5.031  -8.169  -5.072  0.00  0.00    +0.000 A 
ATOM      7  C   UNL     1       6.395  -8.348  -5.302  0.00  0.00    +0.000 A 
ATOM      8  C   UNL     1       7.309  -7.298  -5.116  0.00  0.00    +0.000 A 
ATOM      9  C   UNL     1       6.793  -6.062  -4.689  0.00  0.00    +0.000 A 
BRANCH   8  10
ATOM     10  C   UNL     1       8.745  -7.453  -5.427  0.00  0.00    +0.000 A 
ATOM     11  C   UNL     1       9.167  -8.200  -6.533  0.00  0.00    +0.000 A 
ATOM     12  C   UNL     1      10.520  -8.286  -6.824  0.00  0.00    +0.000 A 
ATOM     13  N   UNL     1      11.483  -7.680  -6.100  0.00  0.00    +0.000 NA
ATOM     14  C   UNL     1      11.069  -6.961  -5.038  0.00  0.00    +0.000 A 
ATOM     15  C   UNL     1       9.740  -6.825  -4.664  0.00  0.00    +0.000 A 
ENDBRANCH   8  10
ENDBRANCH   1   4
BRANCH   1  16
ATOM     16  C   UNL     1       5.286  -3.849  -2.817  0.00  0.00    +0.000 C 
BRANCH  16  20
ATOM     17  C   UNL     1       3.909  -5.609   0.804  0.00  0.00    +0.000 A 
ATOM     18  C   UNL     1       5.105  -6.066   0.252  0.00  0.00    +0.000 A 
ATOM     19  C   UNL     1       5.529  -5.552  -0.973  0.00  0.00    +0.000 A 
ATOM     20  C   UNL     1       4.751  -4.585  -1.612  0.00  0.00    +0.000 A 
ATOM     21  N   UNL     1       3.563  -4.166  -1.109  0.00  0.00    +0.000 NA
ATOM     22  C   UNL     1       3.163  -4.694   0.076  0.00  0.00    +0.000 A 
BRANCH  17  24
ATOM     23  N   UNL     1       4.345  -6.431   3.049  0.00  0.00    +0.000 N 
ATOM     24  C   UNL     1       3.410  -6.050   2.123  0.00  0.00    +0.000 C 
ATOM     25  O   UNL     1       2.220  -6.031   2.396  0.00  0.00    +0.000 OA
ATOM     26  H   UNL     1       3.998  -6.626   3.980  0.00  0.00    +0.000 HD
ATOM     27  H   UNL     1       5.326  -6.211   2.955  0.00  0.00    +0.000 HD
ENDBRANCH  17  24
ENDBRANCH  16  20
ENDBRANCH   1  16
TORSDOF 5
