REMARK  Name = 
REMARK  8 active torsions:
REMARK  status: ('A' for Active; 'I' for Inactive)
REMARK    1  A    between atoms: C_1  and  O_2
REMARK    2  A    between atoms: O_2  and  C_3
REMARK    3  A    between atoms: C_8  and  C_9
REMARK    4  A    between atoms: N_11  and  C_12
REMARK    5  A    between atoms: C_12  and  C_13
REMARK    6  A    between atoms: C_16  and  C_17
REMARK    7  A    between atoms: C_17  and  N_18
REMARK    8  A    between atoms: C_19  and  C_21
REMARK                            x       y       z     vdW  Elec       q    Type
REMARK                         _______ _______ _______ _____ _____    ______ ____
ROOT
ATOM      1  C   UNL     1      -0.889   0.221  -2.774  0.00  0.00    +0.000 A 
ATOM      2  C   UNL     1      -2.274   0.326  -2.633  0.00  0.00    +0.000 A 
ATOM      3  C   UNL     1      -2.882   1.580  -2.572  0.00  0.00    +0.000 A 
ATOM      4  C   UNL     1      -2.083   2.718  -2.619  0.00  0.00    +0.000 A 
ATOM      5  N   UNL     1      -0.732   2.646  -2.745  0.00  0.00    +0.000 NA
ATOM      6  C   UNL     1      -0.173   1.412  -2.822  0.00  0.00    +0.000 A 
ENDROOT
BRANCH   1   7
ATOM      7  C   UNL     1      -0.219  -1.116  -2.901  0.00  0.00    +0.000 C 
BRANCH   7  10
ATOM      8  C   UNL     1       0.753  -2.930  -1.560  0.00  0.00    +0.000 C 
ATOM      9  O   UNL     1       1.067  -3.560  -2.564  0.00  0.00    +0.000 OA
ATOM     10  N   UNL     1       0.121  -1.708  -1.628  0.00  0.00    +0.000 N 
ATOM     11  H   UNL     1      -0.171  -1.258  -0.767  0.00  0.00    +0.000 HD
BRANCH   8  17
ATOM     12  C   UNL     1       0.786  -2.856   1.024  0.00  0.00    +0.000 A 
ATOM     13  C   UNL     1       1.173  -3.525   2.187  0.00  0.00    +0.000 A 
ATOM     14  N   UNL     1       1.748  -4.749   2.229  0.00  0.00    +0.000 NA
ATOM     15  C   UNL     1       1.965  -5.347   1.045  0.00  0.00    +0.000 A 
ATOM     16  C   UNL     1       1.649  -4.768  -0.173  0.00  0.00    +0.000 A 
ATOM     17  C   UNL     1       1.055  -3.494  -0.196  0.00  0.00    +0.000 A 
BRANCH  12  19
ATOM     18  C   UNL     1      -0.491  -1.282   2.244  0.00  0.00    +0.000 C 
ATOM     19  O   UNL     1       0.198  -1.617   1.037  0.00  0.00    +0.000 OA
ENDBRANCH  12  19
ENDBRANCH   8  17
ENDBRANCH   7  10
ENDBRANCH   1   7
BRANCH   4  20
ATOM     20  C   UNL     1      -2.707   4.093  -2.533  0.00  0.00    +0.000 C 
BRANCH  20  21
ATOM     21  N   UNL     1      -3.033   4.644  -3.828  0.00  0.00    +0.000 N 
ATOM     22  C   UNL     1      -4.286   4.580  -4.376  0.00  0.00    +0.000 C 
ATOM     23  O   UNL     1      -5.221   4.023  -3.809  0.00  0.00    +0.000 OA
ATOM     24  H   UNL     1      -2.239   4.883  -4.413  0.00  0.00    +0.000 HD
BRANCH  22  25
ATOM     25  C   UNL     1      -4.466   5.287  -5.653  0.00  0.00    +0.000 A 
ATOM     26  C   UNL     1      -5.728   5.744  -6.019  0.00  0.00    +0.000 A 
ATOM     27  S   UNL     1      -5.746   6.569  -7.513  0.00  0.00    +0.000 S 
ATOM     28  C   UNL     1      -4.080   6.306  -7.741  0.00  0.00    +0.000 A 
ATOM     29  N   UNL     1      -3.447   6.743  -8.862  0.00  0.00    +0.000 NA
ATOM     30  C   UNL     1      -2.193   6.442  -8.921  0.00  0.00    +0.000 A 
ATOM     31  N   UNL     1      -1.512   5.759  -7.950  0.00  0.00    +0.000 N 
ATOM     32  C   UNL     1      -2.091   5.356  -6.775  0.00  0.00    +0.000 A 
ATOM     33  O   UNL     1      -1.424   4.848  -5.880  0.00  0.00    +0.000 OA
ATOM     34  C   UNL     1      -3.514   5.625  -6.680  0.00  0.00    +0.000 A 
ATOM     35  H   UNL     1      -0.521   5.579  -8.037  0.00  0.00    +0.000 HD
ENDBRANCH  22  25
ENDBRANCH  20  21
ENDBRANCH   4  20
TORSDOF 7
