REMARK  Name = 
REMARK  10 active torsions:
REMARK  status: ('A' for Active; 'I' for Inactive)
REMARK    1  A    between atoms: C_1  and  O_2
REMARK    2  A    between atoms: O_2  and  C_3
REMARK    3  A    between atoms: C_10  and  C_11
REMARK    4  A    between atoms: N_13  and  C_14
REMARK    5  A    between atoms: C_14  and  C_15
REMARK    6  A    between atoms: C_18  and  O_19
REMARK    7  A    between atoms: O_19  and  C_20
REMARK    8  A    between atoms: C_20  and  C_21
REMARK    9  A    between atoms: C_21  and  O_22
REMARK   10  A    between atoms: C_21  and  C_23
REMARK                            x       y       z     vdW  Elec       q    Type
REMARK                         _______ _______ _______ _____ _____    ______ ____
ROOT
ATOM      1  C   UNL     1       1.293   2.841  -1.417  0.00  0.00    +0.000 A 
ATOM      2  C   UNL     1       1.173   1.539  -1.915  0.00  0.00    +0.000 A 
ATOM      3  C   UNL     1      -0.007   1.116  -2.535  0.00  0.00    +0.000 A 
ATOM      4  C   UNL     1      -1.084   1.992  -2.680  0.00  0.00    +0.000 A 
ATOM      5  C   UNL     1      -0.940   3.315  -2.256  0.00  0.00    +0.000 A 
ATOM      6  C   UNL     1       0.241   3.740  -1.632  0.00  0.00    +0.000 A 
ENDROOT
BRANCH   1   7
ATOM      7  C   UNL     1       2.529   3.250  -0.656  0.00  0.00    +0.000 C 
BRANCH   7  10
ATOM      8  C   UNL     1       4.760   4.196  -1.059  0.00  0.00    +0.000 C 
ATOM      9  O   UNL     1       5.056   4.076   0.127  0.00  0.00    +0.000 OA
ATOM     10  N   UNL     1       3.532   3.813  -1.525  0.00  0.00    +0.000 N 
ATOM     11  H   UNL     1       3.294   3.932  -2.498  0.00  0.00    +0.000 HD
BRANCH   8  19
ATOM     12  C   UNL     1       4.658   4.647  -4.463  0.00  0.00    +0.000 A 
ATOM     13  N   UNL     1       4.858   4.977  -5.754  0.00  0.00    +0.000 NA
ATOM     14  C   UNL     1       6.006   5.581  -6.074  0.00  0.00    +0.000 A 
ATOM     15  N   UNL     1       7.002   5.900  -5.252  0.00  0.00    +0.000 NA
ATOM     16  C   UNL     1       6.754   5.568  -3.973  0.00  0.00    +0.000 A 
ATOM     17  S   UNL     1       7.918   5.895  -2.781  0.00  0.00    +0.000 S 
ATOM     18  C   UNL     1       6.926   5.242  -1.564  0.00  0.00    +0.000 A 
ATOM     19  C   UNL     1       5.705   4.772  -2.030  0.00  0.00    +0.000 A 
ATOM     20  C   UNL     1       5.609   4.954  -3.473  0.00  0.00    +0.000 A 
BRANCH  12  22
ATOM     21  C   UNL     1       2.897   3.298  -5.207  0.00  0.00    +0.000 C 
ATOM     22  O   UNL     1       3.475   4.026  -4.127  0.00  0.00    +0.000 OA
ENDBRANCH  12  22
ENDBRANCH   8  19
ENDBRANCH   7  10
ENDBRANCH   1   7
BRANCH   4  23
ATOM     23  O   UNL     1      -2.308   1.666  -3.205  0.00  0.00    +0.000 OA
BRANCH  23  24
ATOM     24  C   UNL     1      -2.461   0.312  -3.664  0.00  0.00    +0.000 C 
BRANCH  24  25
ATOM     25  C   UNL     1      -3.849   0.090  -4.297  0.00  0.00    +0.000 C 
BRANCH  25  26
ATOM     26  C   UNL     1      -4.176   0.877  -5.553  0.00  0.00    +0.000 A 
ATOM     27  C   UNL     1      -3.307   1.823  -6.117  0.00  0.00    +0.000 A 
ATOM     28  C   UNL     1      -3.648   2.504  -7.287  0.00  0.00    +0.000 A 
ATOM     29  C   UNL     1      -4.862   2.247  -7.917  0.00  0.00    +0.000 A 
ATOM     30  C   UNL     1      -5.739   1.312  -7.374  0.00  0.00    +0.000 A 
ATOM     31  C   UNL     1      -5.400   0.634  -6.202  0.00  0.00    +0.000 A 
ENDBRANCH  25  26
BRANCH  25  32
ATOM     32  O   UNL     1      -4.864   0.327  -3.318  0.00  0.00    +0.000 OA
ATOM     33  H   UNL     1      -4.850   1.287  -3.150  0.00  0.00    +0.000 HD
ENDBRANCH  25  32
ENDBRANCH  24  25
ENDBRANCH  23  24
ENDBRANCH   4  23
TORSDOF 9
