REMARK  Name = 
REMARK  9 active torsions:
REMARK  status: ('A' for Active; 'I' for Inactive)
REMARK    1  A    between atoms: C_1  and  O_2
REMARK    2  A    between atoms: O_2  and  C_3
REMARK    3  A    between atoms: C_6  and  O_7
REMARK    4  A    between atoms: O_7  and  C_8
REMARK    5  A    between atoms: C_8  and  C_9
REMARK    6  A    between atoms: C_9  and  C_10
REMARK    7  A    between atoms: C_9  and  O_11
REMARK    8  A    between atoms: C_9  and  C_12
REMARK    9  A    between atoms: C_15  and  C_16
REMARK                            x       y       z     vdW  Elec       q    Type
REMARK                         _______ _______ _______ _____ _____    ______ ____
ROOT
ATOM      1  C   UNL     1       6.036  -3.811   5.797  0.00  0.00    +0.000 C 
ATOM      2  C   UNL     1       7.431  -3.954   5.180  0.00  0.00    +0.000 C 
ENDROOT
BRANCH   1   3
ATOM      3  C   UNL     1       5.611  -5.104   6.503  0.00  0.00    +0.000 A 
ATOM      4  C   UNL     1       5.395  -5.124   7.882  0.00  0.00    +0.000 A 
ATOM      5  C   UNL     1       4.953  -6.296   8.498  0.00  0.00    +0.000 A 
ATOM      6  C   UNL     1       4.744  -7.436   7.728  0.00  0.00    +0.000 A 
ATOM      7  C   UNL     1       4.978  -7.344   6.365  0.00  0.00    +0.000 A 
ATOM      8  N   UNL     1       5.410  -6.213   5.739  0.00  0.00    +0.000 NA
BRANCH   6   9
ATOM      9  C   UNL     1       4.240  -8.702   8.305  0.00  0.00    +0.000 C 
ATOM     10  N   UNL     1       4.478  -8.924   9.636  0.00  0.00    +0.000 N 
ATOM     11  O   UNL     1       3.648  -9.524   7.621  0.00  0.00    +0.000 OA
ATOM     12  H   UNL     1       5.124  -8.376  10.184  0.00  0.00    +0.000 HD
ATOM     13  H   UNL     1       4.179  -9.815  10.013  0.00  0.00    +0.000 HD
ENDBRANCH   6   9
ENDBRANCH   1   3
BRANCH   1  14
ATOM     14  O   UNL     1       6.118  -2.721   6.742  0.00  0.00    +0.000 OA
ATOM     15  H   UNL     1       6.176  -1.911   6.199  0.00  0.00    +0.000 HD
ENDBRANCH   1  14
BRANCH   1  16
ATOM     16  C   UNL     1       4.982  -3.437   4.730  0.00  0.00    +0.000 C 
BRANCH  16  17
ATOM     17  O   UNL     1       5.326  -2.162   4.159  0.00  0.00    +0.000 OA
BRANCH  17  21
ATOM     18  C   UNL     1       2.928  -0.463   1.184  0.00  0.00    +0.000 A 
ATOM     19  C   UNL     1       2.557  -1.694   1.721  0.00  0.00    +0.000 A 
ATOM     20  C   UNL     1       3.334  -2.298   2.720  0.00  0.00    +0.000 A 
ATOM     21  C   UNL     1       4.487  -1.672   3.194  0.00  0.00    +0.000 A 
ATOM     22  C   UNL     1       4.853  -0.435   2.662  0.00  0.00    +0.000 A 
ATOM     23  C   UNL     1       4.078   0.166   1.665  0.00  0.00    +0.000 A 
BRANCH  18  25
ATOM     24  C   UNL     1       1.113  -0.411  -0.350  0.00  0.00    +0.000 C 
ATOM     25  O   UNL     1       2.265   0.217   0.200  0.00  0.00    +0.000 OA
ENDBRANCH  18  25
ENDBRANCH  17  21
ENDBRANCH  16  17
ENDBRANCH   1  16
TORSDOF 7
