REMARK  Name = 
REMARK  7 active torsions:
REMARK  status: ('A' for Active; 'I' for Inactive)
REMARK    1  A    between atoms: C_1  and  S_2
REMARK    2  A    between atoms: S_2  and  C_5
REMARK    3  A    between atoms: N_9  and  C_10
REMARK    4  A    between atoms: C_10  and  C_11
REMARK    5  A    between atoms: C_11  and  C_14
REMARK    6  A    between atoms: C_19  and  O_20
REMARK    7  A    between atoms: O_20  and  C_21
REMARK                            x       y       z     vdW  Elec       q    Type
REMARK                         _______ _______ _______ _____ _____    ______ ____
ROOT
ATOM      1  C   UNL     1       4.520   7.780   1.447  0.00  0.00    +0.000 C 
ATOM      2  F   UNL     1       4.590   7.713   2.815  0.00  0.00    +0.000 F 
ATOM      3  F   UNL     1       5.814   7.906   1.033  0.00  0.00    +0.000 F 
ENDROOT
BRANCH   1   4
ATOM      4  C   UNL     1       3.661   8.943   0.988  0.00  0.00    +0.000 A 
ATOM      5  C   UNL     1       3.946   9.631  -0.203  0.00  0.00    +0.000 A 
ATOM      6  C   UNL     1       3.123  10.671  -0.619  0.00  0.00    +0.000 A 
ATOM      7  F   UNL     1       3.403  11.321  -1.754  0.00  0.00    +0.000 F 
ATOM      8  C   UNL     1       2.000  11.034   0.121  0.00  0.00    +0.000 A 
ATOM      9  C   UNL     1       1.696  10.346   1.298  0.00  0.00    +0.000 A 
ATOM     10  C   UNL     1       2.538   9.326   1.740  0.00  0.00    +0.000 A 
BRANCH   9  11
ATOM     11  O   UNL     1       0.562  10.743   1.961  0.00  0.00    +0.000 OA
BRANCH  11  12
ATOM     12  C   UNL     1      -0.101   9.776   2.815  0.00  0.00    +0.000 C 
ATOM     13  C   UNL     1      -0.743   8.552   2.114  0.00  0.00    +0.000 C 
ATOM     14  C   UNL     1      -2.004   8.756   2.963  0.00  0.00    +0.000 C 
ATOM     15  C   UNL     1      -1.519  10.177   3.286  0.00  0.00    +0.000 C 
ENDBRANCH  11  12
ENDBRANCH   9  11
ENDBRANCH   1   4
BRANCH   1  16
ATOM     16  C   UNL     1       3.942   6.435   0.939  0.00  0.00    +0.000 C 
BRANCH  16  21
ATOM     17  C   UNL     1       3.269   1.553   0.277  0.00  0.00    +0.000 A 
ATOM     18  C   UNL     1       4.407   1.623   1.069  0.00  0.00    +0.000 A 
ATOM     19  C   UNL     1       4.887   2.880   1.437  0.00  0.00    +0.000 A 
ATOM     20  C   UNL     1       4.213   4.029   1.021  0.00  0.00    +0.000 A 
ATOM     21  N   UNL     1       4.780   5.276   1.313  0.00  0.00    +0.000 N 
ATOM     22  N   UNL     1       3.095   3.953   0.268  0.00  0.00    +0.000 NA
ATOM     23  C   UNL     1       2.632   2.725  -0.076  0.00  0.00    +0.000 A 
ATOM     24  H   UNL     1       5.099   5.325   2.278  0.00  0.00    +0.000 HD
BRANCH  17  26
ATOM     25  C   UNL     1       3.409  -0.296  -1.798  0.00  0.00    +0.000 C 
ATOM     26  S   UNL     1       2.608   0.008  -0.245  0.00  0.00    +0.000 S 
ATOM     27  O   UNL     1       1.194   0.204  -0.500  0.00  0.00    +0.000 OA
ATOM     28  O   UNL     1       3.059  -0.998   0.697  0.00  0.00    +0.000 OA
ENDBRANCH  17  26
ENDBRANCH  16  21
ENDBRANCH   1  16
TORSDOF 6
