REMARK  Name = 
REMARK  4 active torsions:
REMARK  status: ('A' for Active; 'I' for Inactive)
REMARK    1  A    between atoms: C_9  and  C_10
REMARK    2  A    between atoms: C_10  and  O_11
REMARK    3  A    between atoms: C_12  and  C_13
REMARK    4  A    between atoms: C_13  and  C_14
REMARK                            x       y       z     vdW  Elec       q    Type
REMARK                         _______ _______ _______ _____ _____    ______ ____
ROOT
ATOM      1  N   UNL     1       1.337  -0.316   0.270  0.00  0.00    +0.000 NA
ATOM      2  C   UNL     1       2.617  -0.445   0.185  0.00  0.00    +0.000 C 
ATOM      3  N   UNL     1       3.233  -0.376  -1.015  0.00  0.00    +0.000 N 
ATOM      4  N   UNL     1       3.415  -0.909   1.186  0.00  0.00    +0.000 N 
ATOM      5  C   UNL     1       2.817  -1.824   2.195  0.00  0.00    +0.000 C 
ATOM      6  C   UNL     1       3.745  -1.778   3.425  0.00  0.00    +0.000 C 
ATOM      7  C   UNL     1       4.502  -0.542   3.175  0.00  0.00    +0.000 A 
ATOM      8  C   UNL     1       5.460   0.207   3.790  0.00  0.00    +0.000 A 
ATOM      9  C   UNL     1       5.743   1.286   2.904  0.00  0.00    +0.000 A 
ATOM     10  C   UNL     1       4.900   1.145   1.783  0.00  0.00    +0.000 A 
ATOM     11  N   UNL     1       4.216  -0.045   1.938  0.00  0.00    +0.000 N 
ATOM     12  H   UNL     1       0.959  -0.115  -0.657  0.00  0.00    +0.000 HD
ATOM     13  H   UNL     1       2.760   0.058  -1.793  0.00  0.00    +0.000 HD
ATOM     14  H   UNL     1       4.236  -0.256  -1.006  0.00  0.00    +0.000 HD
ENDROOT
BRANCH   9  15
ATOM     15  C   UNL     1       6.728   2.371   3.222  0.00  0.00    +0.000 C 
BRANCH  15  16
ATOM     16  O   UNL     1       7.388   2.895   2.080  0.00  0.00    +0.000 OA
ATOM     17  H   UNL     1       7.835   2.148   1.650  0.00  0.00    +0.000 HD
ENDBRANCH  15  16
ENDBRANCH   9  15
BRANCH  10  18
ATOM     18  C   UNL     1       4.678   2.119   0.664  0.00  0.00    +0.000 C 
BRANCH  18  19
ATOM     19  C   UNL     1       5.654   2.075  -0.489  0.00  0.00    +0.000 A 
ATOM     20  C   UNL     1       6.614   1.078  -0.683  0.00  0.00    +0.000 A 
ATOM     21  C   UNL     1       7.487   1.155  -1.767  0.00  0.00    +0.000 A 
ATOM     22  C   UNL     1       7.361   2.219  -2.642  0.00  0.00    +0.000 A 
ATOM     23  N   UNL     1       6.435   3.189  -2.508  0.00  0.00    +0.000 NA
ATOM     24  C   UNL     1       5.614   3.100  -1.437  0.00  0.00    +0.000 A 
ENDBRANCH  18  19
ENDBRANCH  10  18
TORSDOF 4
