REMARK  Name = 
REMARK  9 active torsions:
REMARK  status: ('A' for Active; 'I' for Inactive)
REMARK    1  A    between atoms: C_1  and  C_2
REMARK    2  A    between atoms: C_2  and  C_3
REMARK    3  A    between atoms: C_2  and  C_4
REMARK    4  A    between atoms: C_2  and  O_5
REMARK    5  A    between atoms: O_5  and  C_6
REMARK    6  A    between atoms: C_6  and  C_7
REMARK    7  A    between atoms: C_10  and  C_11
REMARK    8  A    between atoms: C_11  and  N_12
REMARK    9  A    between atoms: C_17  and  C_18
REMARK                            x       y       z     vdW  Elec       q    Type
REMARK                         _______ _______ _______ _____ _____    ______ ____
ROOT
ATOM      1  N   UNL     1       4.442   6.565   4.334  0.00  0.00    +0.000 N 
ATOM      2  C   UNL     1       4.011   6.201   5.580  0.00  0.00    +0.000 A 
ATOM      3  N   UNL     1       2.957   6.891   5.952  0.00  0.00    +0.000 NA
ATOM      4  C   UNL     1       2.690   7.740   4.908  0.00  0.00    +0.000 A 
ATOM      5  C   UNL     1       1.697   8.708   4.787  0.00  0.00    +0.000 A 
ATOM      6  C   UNL     1       1.705   9.426   3.601  0.00  0.00    +0.000 A 
ATOM      7  N   UNL     1       2.586   9.234   2.569  0.00  0.00    +0.000 NA
ATOM      8  C   UNL     1       3.543   8.287   2.697  0.00  0.00    +0.000 A 
ATOM      9  C   UNL     1       3.601   7.550   3.869  0.00  0.00    +0.000 A 
ENDROOT
BRANCH   6  10
ATOM     10  C   UNL     1       0.703  10.523   3.409  0.00  0.00    +0.000 C 
ATOM     11  N   UNL     1       0.788  11.202   2.223  0.00  0.00    +0.000 N 
ATOM     12  O   UNL     1      -0.136  10.813   4.253  0.00  0.00    +0.000 OA
ATOM     13  H   UNL     1       1.505  10.950   1.551  0.00  0.00    +0.000 HD
ATOM     14  H   UNL     1       0.157  11.968   2.043  0.00  0.00    +0.000 HD
ENDBRANCH   6  10
BRANCH   1  15
ATOM     15  C   UNL     1       5.656   6.079   3.700  0.00  0.00    +0.000 C 
BRANCH  15  19
ATOM     16  C   UNL     1       4.911   2.432   1.504  0.00  0.00    +0.000 A 
ATOM     17  C   UNL     1       4.803   3.674   0.868  0.00  0.00    +0.000 A 
ATOM     18  C   UNL     1       5.054   4.854   1.571  0.00  0.00    +0.000 A 
ATOM     19  C   UNL     1       5.416   4.812   2.925  0.00  0.00    +0.000 A 
ATOM     20  C   UNL     1       5.537   3.565   3.555  0.00  0.00    +0.000 A 
ATOM     21  C   UNL     1       5.287   2.387   2.852  0.00  0.00    +0.000 A 
BRANCH  16  22
ATOM     22  C   UNL     1       4.551   1.166   0.773  0.00  0.00    +0.000 C 
BRANCH  22  23
ATOM     23  O   UNL     1       5.376   1.012  -0.379  0.00  0.00    +0.000 OA
BRANCH  23  25
ATOM     24  C   UNL     1       3.665  -0.051  -1.781  0.00  0.00    +0.000 C 
ATOM     25  C   UNL     1       5.087  -0.125  -1.211  0.00  0.00    +0.000 C 
ATOM     26  C   UNL     1       5.311  -1.443  -0.458  0.00  0.00    +0.000 C 
ATOM     27  C   UNL     1       6.079  -0.057  -2.383  0.00  0.00    +0.000 C 
ENDBRANCH  23  25
ENDBRANCH  22  23
ENDBRANCH  16  22
ENDBRANCH  15  19
ENDBRANCH   1  15
TORSDOF 6
