REMARK  Name = 
REMARK  4 active torsions:
REMARK  status: ('A' for Active; 'I' for Inactive)
REMARK    1  A    between atoms: C_2  and  C_4
REMARK    2  A    between atoms: N_8  and  C_9
REMARK    3  A    between atoms: C_9  and  C_10
REMARK    4  A    between atoms: C_14  and  C_15
REMARK                            x       y       z     vdW  Elec       q    Type
REMARK                         _______ _______ _______ _____ _____    ______ ____
ROOT
ATOM      1  C   UNL     1       5.154   0.685  -5.848  0.00  0.00    +0.000 C 
ATOM      2  C   UNL     1       5.185   2.196  -6.058  0.00  0.00    +0.000 C 
ATOM      3  C   UNL     1       3.913   1.447  -6.271  0.00  0.00    +0.000 C 
ENDROOT
BRANCH   1   8
ATOM      4  C   UNL     1       3.418  -2.708  -2.318  0.00  0.00    +0.000 A 
ATOM      5  C   UNL     1       2.685  -1.944  -3.218  0.00  0.00    +0.000 A 
ATOM      6  C   UNL     1       3.336  -0.969  -3.976  0.00  0.00    +0.000 A 
ATOM      7  C   UNL     1       4.701  -0.767  -3.813  0.00  0.00    +0.000 A 
ATOM      8  N   UNL     1       5.402   0.259  -4.457  0.00  0.00    +0.000 N 
ATOM      9  N   UNL     1       5.424  -1.498  -2.937  0.00  0.00    +0.000 NA
ATOM     10  C   UNL     1       4.775  -2.445  -2.209  0.00  0.00    +0.000 A 
ATOM     11  H   UNL     1       6.379   0.113  -4.209  0.00  0.00    +0.000 HD
BRANCH   4  13
ATOM     12  N   UNL     1       1.640  -4.304  -1.881  0.00  0.00    +0.000 N 
ATOM     13  C   UNL     1       2.812  -3.742  -1.454  0.00  0.00    +0.000 C 
ATOM     14  O   UNL     1       3.344  -4.102  -0.414  0.00  0.00    +0.000 OA
ATOM     15  H   UNL     1       1.277  -5.068  -1.323  0.00  0.00    +0.000 HD
ATOM     16  H   UNL     1       1.298  -4.211  -2.826  0.00  0.00    +0.000 HD
ENDBRANCH   4  13
ENDBRANCH   1   8
BRANCH   1  17
ATOM     17  C   UNL     1       5.844  -0.203  -6.881  0.00  0.00    +0.000 A 
ATOM     18  C   UNL     1       7.127   0.100  -7.367  0.00  0.00    +0.000 A 
ATOM     19  C   UNL     1       7.785  -0.744  -8.259  0.00  0.00    +0.000 A 
ATOM     20  C   UNL     1       7.187  -1.940  -8.652  0.00  0.00    +0.000 A 
ATOM     21  C   UNL     1       5.923  -2.314  -8.166  0.00  0.00    +0.000 A 
ATOM     22  C   UNL     1       5.256  -1.407  -7.320  0.00  0.00    +0.000 A 
BRANCH  21  23
ATOM     23  C   UNL     1       5.348  -3.643  -8.457  0.00  0.00    +0.000 A 
ATOM     24  C   UNL     1       6.150  -4.788  -8.518  0.00  0.00    +0.000 A 
ATOM     25  C   UNL     1       5.559  -6.027  -8.742  0.00  0.00    +0.000 A 
ATOM     26  C   UNL     1       4.186  -6.099  -8.900  0.00  0.00    +0.000 A 
ATOM     27  C   UNL     1       3.461  -4.924  -8.824  0.00  0.00    +0.000 A 
ATOM     28  F   UNL     1       2.129  -4.993  -8.962  0.00  0.00    +0.000 F 
ATOM     29  N   UNL     1       4.002  -3.707  -8.602  0.00  0.00    +0.000 NA
ENDBRANCH  21  23
ENDBRANCH   1  17
TORSDOF 4
