REMARK  Name = 
REMARK  5 active torsions:
REMARK  status: ('A' for Active; 'I' for Inactive)
REMARK    1  A    between atoms: C_2  and  C_4
REMARK    2  A    between atoms: C_7  and  O_8
REMARK    3  A    between atoms: O_8  and  C_9
REMARK    4  A    between atoms: C_9  and  C_10
REMARK    5  A    between atoms: C_15  and  N_16
REMARK                            x       y       z     vdW  Elec       q    Type
REMARK                         _______ _______ _______ _____ _____    ______ ____
ROOT
ATOM      1  C   UNL     1       5.028  -2.681  -5.188  0.00  0.00    +0.000 C 
ATOM      2  C   UNL     1       5.133  -1.520  -6.170  0.00  0.00    +0.000 C 
ATOM      3  C   UNL     1       3.804  -2.137  -5.889  0.00  0.00    +0.000 C 
ENDROOT
BRANCH   1   4
ATOM      4  C   UNL     1       5.617  -4.027  -5.582  0.00  0.00    +0.000 A 
ATOM      5  C   UNL     1       7.003  -4.188  -5.674  0.00  0.00    +0.000 A 
ATOM      6  C   UNL     1       7.560  -5.425  -5.984  0.00  0.00    +0.000 A 
ATOM      7  C   UNL     1       6.740  -6.537  -6.213  0.00  0.00    +0.000 A 
ATOM      8 CL   UNL     1       7.568  -7.980  -6.716  0.00  0.00    +0.000 Cl
ATOM      9  C   UNL     1       5.331  -6.452  -6.114  0.00  0.00    +0.000 A 
ATOM     10  C   UNL     1       4.814  -5.172  -5.807  0.00  0.00    +0.000 A 
BRANCH   9  11
ATOM     11  N   UNL     1       4.479  -7.538  -6.303  0.00  0.00    +0.000 N 
ATOM     12  C   UNL     1       3.127  -7.399  -6.867  0.00  0.00    +0.000 C 
ATOM     13  C   UNL     1       2.040  -7.785  -5.839  0.00  0.00    +0.000 C 
ATOM     14  N   UNL     1       2.234  -9.132  -5.264  0.00  0.00    +0.000 NA
ATOM     15  C   UNL     1       3.573  -9.176  -4.641  0.00  0.00    +0.000 C 
ATOM     16  C   UNL     1       4.733  -8.811  -5.598  0.00  0.00    +0.000 C 
ATOM     17  H   UNL     1       2.222  -9.808  -6.028  0.00  0.00    +0.000 HD
ENDBRANCH   9  11
ENDBRANCH   1   4
BRANCH   1  18
ATOM     18  O   UNL     1       5.338  -2.207  -3.855  0.00  0.00    +0.000 OA
BRANCH  18  22
ATOM     19  C   UNL     1       3.342  -3.713  -0.593  0.00  0.00    +0.000 A 
ATOM     20  C   UNL     1       4.439  -2.870  -0.414  0.00  0.00    +0.000 A 
ATOM     21  C   UNL     1       5.111  -2.397  -1.537  0.00  0.00    +0.000 A 
ATOM     22  C   UNL     1       4.662  -2.778  -2.796  0.00  0.00    +0.000 A 
ATOM     23  N   UNL     1       3.615  -3.604  -3.003  0.00  0.00    +0.000 NA
ATOM     24  C   UNL     1       2.992  -4.069  -1.891  0.00  0.00    +0.000 A 
BRANCH  19  26
ATOM     25  N   UNL     1       2.530  -3.489   1.687  0.00  0.00    +0.000 N 
ATOM     26  C   UNL     1       2.550  -4.236   0.541  0.00  0.00    +0.000 C 
ATOM     27  O   UNL     1       1.910  -5.275   0.446  0.00  0.00    +0.000 OA
ATOM     28  H   UNL     1       1.900  -3.805   2.415  0.00  0.00    +0.000 HD
ATOM     29  H   UNL     1       2.822  -2.523   1.714  0.00  0.00    +0.000 HD
ENDBRANCH  19  26
ENDBRANCH  18  22
ENDBRANCH   1  18
TORSDOF 5
