REMARK  Name = 
REMARK  7 active torsions:
REMARK  status: ('A' for Active; 'I' for Inactive)
REMARK    1  A    between atoms: C_2  and  C_3
REMARK    2  A    between atoms: C_7  and  C_8
REMARK    3  A    between atoms: N_10  and  C_11
REMARK    4  A    between atoms: C_11  and  C_12
REMARK    5  A    between atoms: C_15  and  C_16
REMARK    6  A    between atoms: C_16  and  N_17
REMARK    7  A    between atoms: C_18  and  C_20
REMARK                            x       y       z     vdW  Elec       q    Type
REMARK                         _______ _______ _______ _____ _____    ______ ____
ROOT
ATOM      1  C   UNL     1       4.042   5.980   1.406  0.00  0.00    +0.000 A 
ATOM      2  C   UNL     1       5.194   6.528   1.960  0.00  0.00    +0.000 A 
ATOM      3  C   UNL     1       5.078   7.543   2.919  0.00  0.00    +0.000 A 
ATOM      4  C   UNL     1       3.817   8.001   3.314  0.00  0.00    +0.000 A 
ATOM      5  C   UNL     1       2.726   7.394   2.701  0.00  0.00    +0.000 A 
ATOM      6  N   UNL     1       2.807   6.394   1.782  0.00  0.00    +0.000 NA
ENDROOT
BRANCH   1   7
ATOM      7  C   UNL     1       4.142   4.868   0.384  0.00  0.00    +0.000 C 
BRANCH   7  10
ATOM      8  C   UNL     1       4.246   2.425   0.182  0.00  0.00    +0.000 C 
ATOM      9  O   UNL     1       4.319   2.491  -1.031  0.00  0.00    +0.000 OA
ATOM     10  N   UNL     1       4.141   3.544   0.989  0.00  0.00    +0.000 N 
ATOM     11  H   UNL     1       3.707   3.461   1.898  0.00  0.00    +0.000 HD
BRANCH   8  16
ATOM     12  C   UNL     1       4.602  -0.093   0.005  0.00  0.00    +0.000 C 
ATOM     13  C   UNL     1       5.164  -1.169   0.930  0.00  0.00    +0.000 C 
ATOM     14  C   UNL     1       5.721  -0.433   2.147  0.00  0.00    +0.000 C 
ATOM     15  C   UNL     1       5.464   1.051   1.916  0.00  0.00    +0.000 C 
ATOM     16  C   UNL     1       4.297   1.098   0.937  0.00  0.00    +0.000 C 
BRANCH  12  18
ATOM     17  N   UNL     1       2.260  -0.926  -1.243  0.00  0.00    +0.000 NA
ATOM     18  C   UNL     1       3.322  -0.548  -0.677  0.00  0.00    +0.000 C 
ENDBRANCH  12  18
ENDBRANCH   8  16
ENDBRANCH   7  10
ENDBRANCH   1   7
BRANCH   4  19
ATOM     19  C   UNL     1       3.601   9.082   4.345  0.00  0.00    +0.000 C 
BRANCH  19  20
ATOM     20  N   UNL     1       3.541  10.409   3.780  0.00  0.00    +0.000 N 
ATOM     21  C   UNL     1       3.343  11.529   4.549  0.00  0.00    +0.000 C 
ATOM     22  O   UNL     1       3.218  11.494   5.772  0.00  0.00    +0.000 OA
ATOM     23  H   UNL     1       3.223  10.471   2.818  0.00  0.00    +0.000 HD
BRANCH  21  24
ATOM     24  C   UNL     1       3.347  12.799   3.807  0.00  0.00    +0.000 A 
ATOM     25  C   UNL     1       3.775  13.973   4.410  0.00  0.00    +0.000 A 
ATOM     26  S   UNL     1       3.739  15.324   3.365  0.00  0.00    +0.000 S 
ATOM     27  C   UNL     1       3.112  14.394   2.086  0.00  0.00    +0.000 A 
ATOM     28  N   UNL     1       2.816  14.955   0.883  0.00  0.00    +0.000 NA
ATOM     29  C   UNL     1       2.316  14.134   0.019  0.00  0.00    +0.000 A 
ATOM     30  N   UNL     1       2.092  12.801   0.245  0.00  0.00    +0.000 N 
ATOM     31  C   UNL     1       2.435  12.182   1.419  0.00  0.00    +0.000 A 
ATOM     32  O   UNL     1       2.324  10.968   1.559  0.00  0.00    +0.000 OA
ATOM     33  C   UNL     1       2.959  13.068   2.441  0.00  0.00    +0.000 A 
ATOM     34  H   UNL     1       1.728  12.206  -0.485  0.00  0.00    +0.000 HD
ENDBRANCH  21  24
ENDBRANCH  19  20
ENDBRANCH   4  19
TORSDOF 7
