REMARK  Name = 
REMARK  8 active torsions:
REMARK  status: ('A' for Active; 'I' for Inactive)
REMARK    1  A    between atoms: N_1  and  C_2
REMARK    2  A    between atoms: C_2  and  C_3
REMARK    3  A    between atoms: C_3  and  N_4
REMARK    4  A    between atoms: C_3  and  C_17
REMARK    5  A    between atoms: C_5  and  C_7
REMARK    6  A    between atoms: C_20  and  C_21
REMARK    7  A    between atoms: C_21  and  O_22
REMARK    8  A    between atoms: O_22  and  C_23
REMARK                            x       y       z     vdW  Elec       q    Type
REMARK                         _______ _______ _______ _____ _____    ______ ____
ROOT
ATOM      1  C   UNL     1       3.032  -1.040   1.020  0.00  0.00    +0.000 C 
ENDROOT
BRANCH   1   2
ATOM      2  C   UNL     1       4.545  -1.198   0.973  0.00  0.00    +0.000 A 
ATOM      3  C   UNL     1       5.330  -0.555   1.942  0.00  0.00    +0.000 A 
ATOM      4  C   UNL     1       6.705  -0.787   2.013  0.00  0.00    +0.000 A 
ATOM      5  C   UNL     1       7.326  -1.647   1.099  0.00  0.00    +0.000 A 
ATOM      6  C   UNL     1       6.560  -2.233   0.087  0.00  0.00    +0.000 A 
ATOM      7  C   UNL     1       5.188  -1.992   0.011  0.00  0.00    +0.000 A 
BRANCH   5   8
ATOM      8  C   UNL     1       8.787  -1.986   1.233  0.00  0.00    +0.000 C 
BRANCH   8   9
ATOM      9  O   UNL     1       8.915  -3.103   2.113  0.00  0.00    +0.000 OA
BRANCH   9  10
ATOM     10  C   UNL     1      10.186  -3.539   2.364  0.00  0.00    +0.000 A 
ATOM     11  C   UNL     1      11.349  -3.016   1.809  0.00  0.00    +0.000 A 
ATOM     12  C   UNL     1      12.561  -3.576   2.177  0.00  0.00    +0.000 A 
ATOM     13  N   UNL     1      12.686  -4.602   3.042  0.00  0.00    +0.000 NA
ATOM     14  C   UNL     1      11.542  -5.094   3.563  0.00  0.00    +0.000 A 
ATOM     15  C   UNL     1      10.284  -4.603   3.257  0.00  0.00    +0.000 A 
ENDBRANCH   9  10
ENDBRANCH   8   9
ENDBRANCH   5   8
ENDBRANCH   1   2
BRANCH   1  16
ATOM     16  N   UNL     1       2.660   0.141   0.266  0.00  0.00    +0.000 N 
ATOM     17  C   UNL     1       1.527   0.861   0.527  0.00  0.00    +0.000 C 
ATOM     18  O   UNL     1       0.799   0.637   1.486  0.00  0.00    +0.000 OA
ATOM     19  H   UNL     1       3.132   0.256  -0.624  0.00  0.00    +0.000 HD
BRANCH  17  20
ATOM     20  C   UNL     1       1.251   1.960  -0.409  0.00  0.00    +0.000 A 
ATOM     21  C   UNL     1       0.558   3.086   0.011  0.00  0.00    +0.000 A 
ATOM     22  S   UNL     1       0.366   4.259  -1.216  0.00  0.00    +0.000 S 
ATOM     23  C   UNL     1       1.152   3.275  -2.360  0.00  0.00    +0.000 A 
ATOM     24  N   UNL     1       1.298   3.676  -3.652  0.00  0.00    +0.000 NA
ATOM     25  C   UNL     1       1.883   2.815  -4.416  0.00  0.00    +0.000 A 
ATOM     26  N   UNL     1       2.344   1.590  -4.003  0.00  0.00    +0.000 N 
ATOM     27  C   UNL     1       2.258   1.163  -2.704  0.00  0.00    +0.000 A 
ATOM     28  O   UNL     1       2.748   0.091  -2.353  0.00  0.00    +0.000 OA
ATOM     29  C   UNL     1       1.582   2.083  -1.809  0.00  0.00    +0.000 A 
ATOM     30  H   UNL     1       2.810   0.969  -4.647  0.00  0.00    +0.000 HD
ENDBRANCH  17  20
ENDBRANCH   1  16
BRANCH   1  31
ATOM     31  C   UNL     1       2.241  -2.295   0.535  0.00  0.00    +0.000 C 
BRANCH  31  32
ATOM     32  N   UNL     1       2.559  -3.519   1.282  0.00  0.00    +0.000 NA
ATOM     33  H   UNL     1       1.944  -4.274   0.990  0.00  0.00    +0.000 HD
ATOM     34  H   UNL     1       2.391  -3.363   2.275  0.00  0.00    +0.000 HD
ENDBRANCH  31  32
ENDBRANCH   1  31
TORSDOF 8
