REMARK  Name = 
REMARK  6 active torsions:
REMARK  status: ('A' for Active; 'I' for Inactive)
REMARK    1  A    between atoms: C_1  and  O_2
REMARK    2  A    between atoms: O_2  and  C_3
REMARK    3  A    between atoms: C_7  and  N_8
REMARK    4  A    between atoms: C_12  and  C_13
REMARK    5  A    between atoms: C_13  and  N_14
REMARK    6  A    between atoms: C_15  and  C_17
REMARK                            x       y       z     vdW  Elec       q    Type
REMARK                         _______ _______ _______ _____ _____    ______ ____
ROOT
ATOM      1  N   UNL     1       6.216   0.792   2.883  0.00  0.00    +0.000 N 
ATOM      2  C   UNL     1       6.953   0.430   4.014  0.00  0.00    +0.000 A 
ATOM      3  C   UNL     1       7.490  -0.854   4.081  0.00  0.00    +0.000 A 
ATOM      4  C   UNL     1       8.273  -1.221   5.177  0.00  0.00    +0.000 A 
ATOM      5  C   UNL     1       8.518  -0.295   6.191  0.00  0.00    +0.000 A 
ATOM      6  C   UNL     1       7.936   0.952   6.054  0.00  0.00    +0.000 A 
ATOM      7  N   UNL     1       7.175   1.321   5.002  0.00  0.00    +0.000 NA
ATOM      8  H   UNL     1       6.044   0.069   2.201  0.00  0.00    +0.000 HD
ENDROOT
BRANCH   1  13
ATOM      9  C   UNL     1       5.161   3.176   0.480  0.00  0.00    +0.000 A 
ATOM     10  C   UNL     1       5.276   4.409   1.094  0.00  0.00    +0.000 A 
ATOM     11  C   UNL     1       5.708   4.435   2.411  0.00  0.00    +0.000 A 
ATOM     12  C   UNL     1       6.011   3.236   3.048  0.00  0.00    +0.000 A 
ATOM     13  C   UNL     1       5.884   2.034   2.359  0.00  0.00    +0.000 A 
ATOM     14  N   UNL     1       5.447   2.002   1.083  0.00  0.00    +0.000 NA
BRANCH   9  16
ATOM     15  C   UNL     1       4.686   1.868  -1.393  0.00  0.00    +0.000 C 
ATOM     16  O   UNL     1       4.727   3.177  -0.832  0.00  0.00    +0.000 OA
ENDBRANCH   9  16
ENDBRANCH   1  13
BRANCH   5  17
ATOM     17  C   UNL     1       9.330  -0.642   7.403  0.00  0.00    +0.000 C 
BRANCH  17  18
ATOM     18  N   UNL     1       8.494  -1.181   8.446  0.00  0.00    +0.000 N 
ATOM     19  C   UNL     1       8.999  -1.455   9.692  0.00  0.00    +0.000 C 
ATOM     20  O   UNL     1      10.166  -1.226   9.986  0.00  0.00    +0.000 OA
ATOM     21  H   UNL     1       7.609  -1.592   8.167  0.00  0.00    +0.000 HD
BRANCH  19  22
ATOM     22  C   UNL     1       8.043  -1.982  10.677  0.00  0.00    +0.000 A 
ATOM     23  C   UNL     1       8.294  -1.819  12.033  0.00  0.00    +0.000 A 
ATOM     24  S   UNL     1       7.067  -2.450  13.036  0.00  0.00    +0.000 S 
ATOM     25  C   UNL     1       6.183  -3.011  11.696  0.00  0.00    +0.000 A 
ATOM     26  N   UNL     1       5.015  -3.689  11.862  0.00  0.00    +0.000 NA
ATOM     27  C   UNL     1       4.468  -4.088  10.762  0.00  0.00    +0.000 A 
ATOM     28  N   UNL     1       4.978  -3.861   9.510  0.00  0.00    +0.000 N 
ATOM     29  C   UNL     1       6.131  -3.146   9.292  0.00  0.00    +0.000 A 
ATOM     30  O   UNL     1       6.529  -2.908   8.156  0.00  0.00    +0.000 OA
ATOM     31  C   UNL     1       6.802  -2.698  10.498  0.00  0.00    +0.000 A 
ATOM     32  H   UNL     1       4.491  -4.186   8.688  0.00  0.00    +0.000 HD
ENDBRANCH  19  22
ENDBRANCH  17  18
ENDBRANCH   5  17
TORSDOF 5
