REMARK  Name = 
REMARK  8 active torsions:
REMARK  status: ('A' for Active; 'I' for Inactive)
REMARK    1  A    between atoms: C_1  and  O_2
REMARK    2  A    between atoms: O_2  and  C_3
REMARK    3  A    between atoms: C_10  and  C_11
REMARK    4  A    between atoms: N_13  and  C_14
REMARK    5  A    between atoms: C_14  and  C_15
REMARK    6  A    between atoms: N_19  and  C_20
REMARK    7  A    between atoms: C_20  and  C_21
REMARK    8  A    between atoms: C_21  and  C_22
REMARK                            x       y       z     vdW  Elec       q    Type
REMARK                         _______ _______ _______ _____ _____    ______ ____
ROOT
ATOM      1  C   UNL     1       1.512   3.212  -0.717  0.00  0.00    +0.000 A 
ATOM      2  C   UNL     1       1.230   2.036  -1.414  0.00  0.00    +0.000 A 
ATOM      3  C   UNL     1       0.045   1.923  -2.162  0.00  0.00    +0.000 A 
ATOM      4  C   UNL     1      -0.805   3.020  -2.307  0.00  0.00    +0.000 A 
ATOM      5  N   UNL     1      -2.021   2.858  -3.006  0.00  0.00    +0.000 N 
ATOM      6  N   UNL     1      -0.503   4.187  -1.703  0.00  0.00    +0.000 NA
ATOM      7  C   UNL     1       0.624   4.260  -0.934  0.00  0.00    +0.000 A 
ATOM      8  H   UNL     1      -1.904   2.303  -3.847  0.00  0.00    +0.000 HD
ENDROOT
BRANCH   1   9
ATOM      9  C   UNL     1       2.670   3.319   0.246  0.00  0.00    +0.000 C 
BRANCH   9  12
ATOM     10  C   UNL     1       5.073   3.987   0.309  0.00  0.00    +0.000 C 
ATOM     11  O   UNL     1       5.166   3.759   1.522  0.00  0.00    +0.000 OA
ATOM     12  N   UNL     1       3.889   3.785  -0.362  0.00  0.00    +0.000 N 
ATOM     13  H   UNL     1       3.882   3.902  -1.370  0.00  0.00    +0.000 HD
BRANCH  10  21
ATOM     14  C   UNL     1       5.509   4.755  -3.014  0.00  0.00    +0.000 A 
ATOM     15  N   UNL     1       5.894   5.207  -4.224  0.00  0.00    +0.000 NA
ATOM     16  C   UNL     1       7.119   5.726  -4.336  0.00  0.00    +0.000 A 
ATOM     17  N   UNL     1       8.033   5.826  -3.371  0.00  0.00    +0.000 NA
ATOM     18  C   UNL     1       7.599   5.368  -2.186  0.00  0.00    +0.000 A 
ATOM     19  S   UNL     1       8.636   5.394  -0.837  0.00  0.00    +0.000 S 
ATOM     20  C   UNL     1       7.438   4.723   0.164  0.00  0.00    +0.000 A 
ATOM     21  C   UNL     1       6.218   4.491  -0.475  0.00  0.00    +0.000 A 
ATOM     22  C   UNL     1       6.348   4.835  -1.896  0.00  0.00    +0.000 A 
BRANCH  14  24
ATOM     23  C   UNL     1       3.771   3.647  -4.111  0.00  0.00    +0.000 C 
ATOM     24  O   UNL     1       4.246   4.220  -2.897  0.00  0.00    +0.000 OA
ENDBRANCH  14  24
ENDBRANCH  10  21
ENDBRANCH   9  12
ENDBRANCH   1   9
BRANCH   5  25
ATOM     25  C   UNL     1      -2.827   4.085  -3.159  0.00  0.00    +0.000 C 
BRANCH  25  26
ATOM     26  C   UNL     1      -4.063   3.878  -4.059  0.00  0.00    +0.000 C 
BRANCH  26  27
ATOM     27  C   UNL     1      -4.927   5.125  -4.175  0.00  0.00    +0.000 A 
ATOM     28  C   UNL     1      -5.988   5.383  -3.287  0.00  0.00    +0.000 A 
ATOM     29  C   UNL     1      -6.768   6.542  -3.434  0.00  0.00    +0.000 A 
ATOM     30  C   UNL     1      -6.511   7.449  -4.461  0.00  0.00    +0.000 A 
ATOM     31  C   UNL     1      -5.462   7.202  -5.339  0.00  0.00    +0.000 A 
ATOM     32  C   UNL     1      -4.686   6.053  -5.189  0.00  0.00    +0.000 A 
ATOM     33  F   UNL     1      -3.688   5.839  -6.054  0.00  0.00    +0.000 F 
ENDBRANCH  26  27
ENDBRANCH  25  26
ENDBRANCH   5  25
TORSDOF 7
