REMARK  Name = 
REMARK  9 active torsions:
REMARK  status: ('A' for Active; 'I' for Inactive)
REMARK    1  A    between atoms: C_1  and  C_2
REMARK    2  A    between atoms: C_2  and  N_3
REMARK    3  A    between atoms: C_2  and  C_16
REMARK    4  A    between atoms: C_4  and  C_6
REMARK    5  A    between atoms: C_19  and  C_20
REMARK    6  A    between atoms: C_20  and  N_21
REMARK    7  A    between atoms: N_21  and  C_22
REMARK    8  A    between atoms: C_22  and  C_23
REMARK    9  A    between atoms: C_22  and  C_24
REMARK                            x       y       z     vdW  Elec       q    Type
REMARK                         _______ _______ _______ _____ _____    ______ ____
ROOT
ATOM      1  C   UNL     1       1.282   0.817   0.665  0.00  0.00    +0.000 C 
ATOM      2  C   UNL     1       2.467   0.016   0.108  0.00  0.00    +0.000 C 
ENDROOT
BRANCH   2   3
ATOM      3  C   UNL     1       2.937   0.505  -1.233  0.00  0.00    +0.000 A 
ATOM      4  C   UNL     1       3.461  -0.328  -2.202  0.00  0.00    +0.000 A 
ATOM      5  N   UNL     1       3.885   0.097  -3.407  0.00  0.00    +0.000 NA
ATOM      6  C   UNL     1       3.789   1.423  -3.639  0.00  0.00    +0.000 A 
ATOM      7  N   UNL     1       3.314   2.324  -2.768  0.00  0.00    +0.000 NA
ATOM      8  C   UNL     1       2.906   1.840  -1.579  0.00  0.00    +0.000 A 
BRANCH   6   9
ATOM      9  C   UNL     1       4.175   1.912  -5.019  0.00  0.00    +0.000 C 
BRANCH   9  10
ATOM     10  N   UNL     1       3.399   1.332  -6.133  0.00  0.00    +0.000 NA
ATOM     11  H   UNL     1       3.511   0.314  -6.080  0.00  0.00    +0.000 HD
BRANCH  10  12
ATOM     12  C   UNL     1       1.950   1.608  -6.028  0.00  0.00    +0.000 C 
ATOM     13  C   UNL     1       1.668   3.117  -6.064  0.00  0.00    +0.000 C 
BRANCH  12  14
ATOM     14  C   UNL     1       1.198   0.861  -7.132  0.00  0.00    +0.000 A 
ATOM     15  C   UNL     1       1.474   1.093  -8.480  0.00  0.00    +0.000 A 
ATOM     16  C   UNL     1       0.782   0.374  -9.451  0.00  0.00    +0.000 A 
ATOM     17  C   UNL     1      -0.149  -0.577  -9.058  0.00  0.00    +0.000 A 
ATOM     18  C   UNL     1      -0.345  -0.774  -7.702  0.00  0.00    +0.000 A 
ATOM     19  N   UNL     1       0.297  -0.079  -6.737  0.00  0.00    +0.000 NA
ENDBRANCH  12  14
ENDBRANCH  10  12
ENDBRANCH   9  10
ENDBRANCH   6   9
ENDBRANCH   2   3
BRANCH   2  20
ATOM     20  N   UNL     1       3.572   0.033   1.049  0.00  0.00    +0.000 N 
ATOM     21  C   UNL     1       3.635  -0.833   2.110  0.00  0.00    +0.000 C 
ATOM     22  O   UNL     1       2.777  -1.691   2.310  0.00  0.00    +0.000 OA
ATOM     23  H   UNL     1       4.180   0.845   1.045  0.00  0.00    +0.000 HD
BRANCH  21  24
ATOM     24  C   UNL     1       4.821  -0.729   2.959  0.00  0.00    +0.000 A 
ATOM     25  C   UNL     1       5.312  -1.853   3.606  0.00  0.00    +0.000 A 
ATOM     26  S   UNL     1       6.683  -1.538   4.570  0.00  0.00    +0.000 S 
ATOM     27  C   UNL     1       6.646   0.117   4.178  0.00  0.00    +0.000 A 
ATOM     28  N   UNL     1       7.540   0.987   4.718  0.00  0.00    +0.000 NA
ATOM     29  C   UNL     1       7.366   2.217   4.365  0.00  0.00    +0.000 A 
ATOM     30  N   UNL     1       6.391   2.657   3.502  0.00  0.00    +0.000 N 
ATOM     31  C   UNL     1       5.505   1.807   2.879  0.00  0.00    +0.000 A 
ATOM     32  O   UNL     1       4.716   2.213   2.037  0.00  0.00    +0.000 OA
ATOM     33  C   UNL     1       5.625   0.422   3.289  0.00  0.00    +0.000 A 
ATOM     34  H   UNL     1       6.333   3.629   3.247  0.00  0.00    +0.000 HD
ENDBRANCH  21  24
ENDBRANCH   2  20
TORSDOF 7
