REMARK  Name = 
REMARK  13 active torsions:
REMARK  status: ('A' for Active; 'I' for Inactive)
REMARK    1  A    between atoms: C_1  and  C_2
REMARK    2  A    between atoms: C_2  and  C_3
REMARK    3  A    between atoms: C_3  and  C_4
REMARK    4  A    between atoms: C_3  and  C_5
REMARK    5  A    between atoms: C_3  and  N_6
REMARK    6  A    between atoms: N_6  and  C_7
REMARK    7  A    between atoms: C_7  and  C_8
REMARK    8  A    between atoms: C_8  and  C_9
REMARK    9  A    between atoms: C_12  and  C_13
REMARK   10  A    between atoms: C_13  and  O_14
REMARK   11  A    between atoms: O_14  and  C_15
REMARK   12  A    between atoms: C_18  and  C_19
REMARK   13  A    between atoms: C_19  and  O_21
REMARK                            x       y       z     vdW  Elec       q    Type
REMARK                         _______ _______ _______ _____ _____    ______ ____
ROOT
ATOM      1  C   UNL     1       7.144   3.738  -2.006  0.00  0.00    +0.000 A 
ATOM      2  C   UNL     1       6.441   4.926  -1.984  0.00  0.00    +0.000 A 
ATOM      3  N   UNL     1       6.869   6.067  -2.547  0.00  0.00    +0.000 NA
ATOM      4  C   UNL     1       8.076   6.020  -3.140  0.00  0.00    +0.000 A 
ATOM      5  N   UNL     1       8.858   4.922  -3.203  0.00  0.00    +0.000 NA
ATOM      6  C   UNL     1       8.371   3.806  -2.633  0.00  0.00    +0.000 A 
ENDROOT
BRANCH   1   7
ATOM      7  C   UNL     1       6.663   2.465  -1.376  0.00  0.00    +0.000 C 
BRANCH   7   8
ATOM      8  C   UNL     1       5.137   2.321  -1.288  0.00  0.00    +0.000 C 
BRANCH   8   9
ATOM      9  N   UNL     1       4.502   2.349  -2.609  0.00  0.00    +0.000 NA
ATOM     10  H   UNL     1       4.830   3.146  -3.157  0.00  0.00    +0.000 HD
BRANCH   9  11
ATOM     11  C   UNL     1       3.027   2.339  -2.605  0.00  0.00    +0.000 C 
ATOM     12  C   UNL     1       2.467   3.598  -1.906  0.00  0.00    +0.000 C 
ATOM     13  C   UNL     1       2.501   1.078  -1.900  0.00  0.00    +0.000 C 
BRANCH  11  15
ATOM     14  C   UNL     1       2.998   1.193  -4.944  0.00  0.00    +0.000 C 
ATOM     15  C   UNL     1       2.538   2.367  -4.083  0.00  0.00    +0.000 C 
ENDBRANCH  11  15
ENDBRANCH   9  11
ENDBRANCH   8   9
ENDBRANCH   7   8
ENDBRANCH   1   7
BRANCH   4  16
ATOM     16  C   UNL     1       8.590   7.292  -3.758  0.00  0.00    +0.000 C 
BRANCH  16  17
ATOM     17  O   UNL     1       9.288   8.055  -2.766  0.00  0.00    +0.000 OA
BRANCH  17  18
ATOM     18  C   UNL     1       9.854   9.187  -3.300  0.00  0.00    +0.000 A 
ATOM     19  C   UNL     1      10.572  10.007  -2.445  0.00  0.00    +0.000 A 
ATOM     20  C   UNL     1      11.181  11.138  -2.975  0.00  0.00    +0.000 A 
ATOM     21  C   UNL     1      11.026  11.374  -4.330  0.00  0.00    +0.000 A 
ATOM     22  N   UNL     1      10.306  10.561  -5.150  0.00  0.00    +0.000 NA
ATOM     23  N   UNL     1       9.716   9.461  -4.621  0.00  0.00    +0.000 NA
BRANCH  21  24
ATOM     24  C   UNL     1      11.655  12.542  -4.992  0.00  0.00    +0.000 C 
ATOM     25  O   UNL     1      12.333  13.368  -4.401  0.00  0.00    +0.000 OA
BRANCH  24  26
ATOM     26  O   UNL     1      11.400  12.586  -6.322  0.00  0.00    +0.000 OA
ATOM     27  H   UNL     1      10.839  11.827  -6.602  0.00  0.00    +0.000 HD
ENDBRANCH  24  26
ENDBRANCH  21  24
ENDBRANCH  17  18
ENDBRANCH  16  17
ENDBRANCH   4  16
TORSDOF 10
