REMARK  Name = 
REMARK  5 active torsions:
REMARK  status: ('A' for Active; 'I' for Inactive)
REMARK    1  A    between atoms: C_2  and  C_4
REMARK    2  A    between atoms: C_7  and  C_8
REMARK    3  A    between atoms: C_11  and  C_12
REMARK    4  A    between atoms: C_12  and  C_13
REMARK    5  A    between atoms: C_20  and  O_21
REMARK                            x       y       z     vdW  Elec       q    Type
REMARK                         _______ _______ _______ _____ _____    ______ ____
ROOT
ATOM      1  C   UNL     1       5.446   4.764   0.727  0.00  0.00    +0.000 A 
ATOM      2  N   UNL     1       5.995   5.193   1.881  0.00  0.00    +0.000 NA
ATOM      3  N   UNL     1       6.623   6.426   1.931  0.00  0.00    +0.000 NA
ATOM      4  C   UNL     1       6.700   7.202   0.825  0.00  0.00    +0.000 A 
ATOM      5  N   UNL     1       6.166   6.813  -0.349  0.00  0.00    +0.000 NA
ATOM      6  C   UNL     1       5.554   5.617  -0.359  0.00  0.00    +0.000 A 
ENDROOT
BRANCH   1  10
ATOM      7  C   UNL     1       3.445   1.024   0.846  0.00  0.00    +0.000 A 
ATOM      8  C   UNL     1       4.002   1.420  -0.358  0.00  0.00    +0.000 A 
ATOM      9  C   UNL     1       4.671   2.642  -0.403  0.00  0.00    +0.000 A 
ATOM     10  C   UNL     1       4.772   3.458   0.736  0.00  0.00    +0.000 A 
ATOM     11  C   UNL     1       4.180   2.948   1.897  0.00  0.00    +0.000 A 
ATOM     12  N   UNL     1       3.516   1.763   1.986  0.00  0.00    +0.000 NA
BRANCH   7  14
ATOM     13  N   UNL     1       2.164  -0.574   2.142  0.00  0.00    +0.000 N 
ATOM     14  C   UNL     1       2.719  -0.285   0.929  0.00  0.00    +0.000 C 
ATOM     15  O   UNL     1       2.633  -1.052  -0.024  0.00  0.00    +0.000 OA
ATOM     16  H   UNL     1       1.678  -1.449   2.272  0.00  0.00    +0.000 HD
ATOM     17  H   UNL     1       2.269   0.080   2.908  0.00  0.00    +0.000 HD
ENDBRANCH   7  14
ENDBRANCH   1  10
BRANCH   4  18
ATOM     18  C   UNL     1       7.295   8.581   0.894  0.00  0.00    +0.000 C 
ATOM     19  C   UNL     1       6.656   9.664   1.763  0.00  0.00    +0.000 C 
ATOM     20  C   UNL     1       6.436   9.704   0.287  0.00  0.00    +0.000 C 
BRANCH  18  21
ATOM     21  C   UNL     1       8.781   8.602   0.711  0.00  0.00    +0.000 C 
ATOM     22  F   UNL     1       9.315   7.368   0.548  0.00  0.00    +0.000 F 
ATOM     23  F   UNL     1       9.126   9.334  -0.379  0.00  0.00    +0.000 F 
ATOM     24  F   UNL     1       9.395   9.168   1.779  0.00  0.00    +0.000 F 
ENDBRANCH  18  21
ENDBRANCH   4  18
BRANCH   6  25
ATOM     25  O   UNL     1       4.995   5.356  -1.568  0.00  0.00    +0.000 OA
ATOM     26  H   UNL     1       5.231   6.165  -2.058  0.00  0.00    +0.000 HD
ENDBRANCH   6  25
TORSDOF 5
