REMARK  Name = 
REMARK  5 active torsions:
REMARK  status: ('A' for Active; 'I' for Inactive)
REMARK    1  A    between atoms: C_2  and  C_4
REMARK    2  A    between atoms: C_7  and  N_8
REMARK    3  A    between atoms: N_8  and  C_9
REMARK    4  A    between atoms: C_9  and  C_10
REMARK    5  A    between atoms: C_14  and  C_15
REMARK                            x       y       z     vdW  Elec       q    Type
REMARK                         _______ _______ _______ _____ _____    ______ ____
ROOT
ATOM      1  C   UNL     1       4.892   3.365   5.007  0.00  0.00    +0.000 C 
ENDROOT
BRANCH   1   2
ATOM      2  C   UNL     1       5.803   4.300   5.761  0.00  0.00    +0.000 A 
ATOM      3  C   UNL     1       5.736   5.681   5.556  0.00  0.00    +0.000 A 
ATOM      4  C   UNL     1       6.492   6.540   6.347  0.00  0.00    +0.000 A 
ATOM      5  C   UNL     1       7.315   6.028   7.356  0.00  0.00    +0.000 A 
ATOM      6  C   UNL     1       7.405   4.645   7.597  0.00  0.00    +0.000 A 
ATOM      7  C   UNL     1       6.664   3.797   6.753  0.00  0.00    +0.000 A 
BRANCH   6   8
ATOM      8  C   UNL     1       8.155   4.099   8.754  0.00  0.00    +0.000 A 
ATOM      9  C   UNL     1       8.167   4.776   9.991  0.00  0.00    +0.000 A 
ATOM     10  C   UNL     1       8.773   4.220  11.122  0.00  0.00    +0.000 A 
ATOM     11  C   UNL     1       9.373   2.973  11.033  0.00  0.00    +0.000 A 
ATOM     12  F   UNL     1       9.920   2.423  12.124  0.00  0.00    +0.000 F 
ATOM     13  C   UNL     1       9.402   2.286   9.828  0.00  0.00    +0.000 A 
ATOM     14  C   UNL     1       8.806   2.851   8.695  0.00  0.00    +0.000 A 
ENDBRANCH   6   8
ENDBRANCH   1   2
BRANCH   1  15
ATOM     15  N   UNL     1       5.492   2.903   3.769  0.00  0.00    +0.000 N 
ATOM     16  H   UNL     1       6.012   3.612   3.259  0.00  0.00    +0.000 HD
BRANCH  15  20
ATOM     17  C   UNL     1       3.481   0.106   1.315  0.00  0.00    +0.000 A 
ATOM     18  C   UNL     1       2.886   0.536   2.504  0.00  0.00    +0.000 A 
ATOM     19  C   UNL     1       3.532   1.480   3.306  0.00  0.00    +0.000 A 
ATOM     20  C   UNL     1       4.765   2.040   2.941  0.00  0.00    +0.000 A 
ATOM     21  C   UNL     1       5.354   1.588   1.753  0.00  0.00    +0.000 A 
ATOM     22  C   UNL     1       4.723   0.628   0.947  0.00  0.00    +0.000 A 
BRANCH  17  24
ATOM     23  N   UNL     1       1.491  -1.058   0.529  0.00  0.00    +0.000 N 
ATOM     24  C   UNL     1       2.850  -0.933   0.466  0.00  0.00    +0.000 C 
ATOM     25  O   UNL     1       3.512  -1.641  -0.283  0.00  0.00    +0.000 OA
ATOM     26  H   UNL     1       1.071  -1.715  -0.117  0.00  0.00    +0.000 HD
ATOM     27  H   UNL     1       0.895  -0.351   0.936  0.00  0.00    +0.000 HD
ENDBRANCH  17  24
ENDBRANCH  15  20
ENDBRANCH   1  15
TORSDOF 5
