REMARK  Name = 
REMARK  7 active torsions:
REMARK  status: ('A' for Active; 'I' for Inactive)
REMARK    1  A    between atoms: N_1  and  C_2
REMARK    2  A    between atoms: C_2  and  C_3
REMARK    3  A    between atoms: C_7  and  C_8
REMARK    4  A    between atoms: C_8  and  C_9
REMARK    5  A    between atoms: C_9  and  N_10
REMARK    6  A    between atoms: N_10  and  C_11
REMARK    7  A    between atoms: C_14  and  C_15
REMARK                            x       y       z     vdW  Elec       q    Type
REMARK                         _______ _______ _______ _____ _____    ______ ____
ROOT
ATOM      1  N   UNL     1       2.245  -7.512  -0.103  0.00  0.00    +0.000 N 
ATOM      2  H   UNL     1       1.262  -7.628  -0.342  0.00  0.00    +0.000 HD
ENDROOT
BRANCH   1   3
ATOM      3  C   UNL     1       2.953  -8.663  -0.518  0.00  0.00    +0.000 A 
ATOM      4  N   UNL     1       4.082  -8.491  -1.245  0.00  0.00    +0.000 NA
ATOM      5  C   UNL     1       4.785  -9.581  -1.629  0.00  0.00    +0.000 A 
ATOM      6  C   UNL     1       4.436 -10.880  -1.314  0.00  0.00    +0.000 A 
ATOM      7  C   UNL     1       3.281 -11.062  -0.548  0.00  0.00    +0.000 A 
ATOM      8  C   UNL     1       2.531  -9.951  -0.149  0.00  0.00    +0.000 A 
ATOM      9 CL   UNL     1       1.098 -10.211   0.779  0.00  0.00    +0.000 Cl
BRANCH   6  10
ATOM     10  C   UNL     1       5.223 -12.055  -1.752  0.00  0.00    +0.000 C 
ATOM     11  N   UNL     1       6.318 -11.865  -2.548  0.00  0.00    +0.000 N 
ATOM     12  O   UNL     1       4.900 -13.189  -1.414  0.00  0.00    +0.000 OA
ATOM     13  H   UNL     1       6.656 -10.987  -2.910  0.00  0.00    +0.000 HD
ATOM     14  H   UNL     1       6.818 -12.698  -2.835  0.00  0.00    +0.000 HD
ENDBRANCH   6  10
ENDBRANCH   1   3
BRANCH   1  15
ATOM     15  C   UNL     1       2.833  -6.270  -0.616  0.00  0.00    +0.000 C 
BRANCH  15  16
ATOM     16  C   UNL     1       2.051  -5.034  -0.162  0.00  0.00    +0.000 C 
BRANCH  16  21
ATOM     17  C   UNL     1       4.469  -2.078  -0.438  0.00  0.00    +0.000 A 
ATOM     18  C   UNL     1       4.100  -1.555  -1.685  0.00  0.00    +0.000 A 
ATOM     19  C   UNL     1       3.057  -2.125  -2.415  0.00  0.00    +0.000 A 
ATOM     20  C   UNL     1       2.374  -3.233  -1.913  0.00  0.00    +0.000 A 
ATOM     21  C   UNL     1       2.722  -3.776  -0.670  0.00  0.00    +0.000 A 
ATOM     22  C   UNL     1       3.770  -3.189   0.060  0.00  0.00    +0.000 A 
BRANCH  17  23
ATOM     23  C   UNL     1       5.637  -1.500   0.322  0.00  0.00    +0.000 C 
BRANCH  23  24
ATOM     24  N   UNL     1       5.473  -0.075   0.586  0.00  0.00    +0.000 NA
ATOM     25  H   UNL     1       6.266   0.254   1.132  0.00  0.00    +0.000 HD
ATOM     26  H   UNL     1       4.647   0.054   1.170  0.00  0.00    +0.000 HD
ENDBRANCH  23  24
ENDBRANCH  17  23
ENDBRANCH  16  21
ENDBRANCH  15  16
ENDBRANCH   1  15
TORSDOF 7
