REMARK  Name = 
REMARK  4 active torsions:
REMARK  status: ('A' for Active; 'I' for Inactive)
REMARK    1  A    between atoms: N_1  and  C_2
REMARK    2  A    between atoms: C_2  and  C_3
REMARK    3  A    between atoms: C_7  and  C_8
REMARK    4  A    between atoms: C_8  and  N_9
REMARK                            x       y       z     vdW  Elec       q    Type
REMARK                         _______ _______ _______ _____ _____    ______ ____
ROOT
ATOM      1  C   UNL     1       4.379   0.472  -1.836  0.00  0.00    +0.000 A 
ATOM      2  C   UNL     1       3.156  -0.175  -1.962  0.00  0.00    +0.000 A 
ATOM      3  N   UNL     1       2.019   0.424  -2.381  0.00  0.00    +0.000 NA
ATOM      4  C   UNL     1       2.102   1.733  -2.705  0.00  0.00    +0.000 A 
ATOM      5  C   UNL     1       3.275   2.477  -2.647  0.00  0.00    +0.000 A 
ATOM      6  C   UNL     1       4.428   1.825  -2.192  0.00  0.00    +0.000 A 
ENDROOT
BRANCH   1   7
ATOM      7  C   UNL     1       5.602  -0.262  -1.364  0.00  0.00    +0.000 C 
BRANCH   7   8
ATOM      8  N   UNL     1       6.153   0.341  -0.157  0.00  0.00    +0.000 NA
ATOM      9  H   UNL     1       6.934  -0.223   0.174  0.00  0.00    +0.000 HD
ATOM     10  H   UNL     1       5.450   0.311   0.582  0.00  0.00    +0.000 HD
ENDBRANCH   7   8
ENDBRANCH   1   7
BRANCH   5  11
ATOM     11  C   UNL     1       3.312   3.899  -3.118  0.00  0.00    +0.000 C 
BRANCH  11  12
ATOM     12  N   UNL     1       3.083   4.922  -2.108  0.00  0.00    +0.000 N 
ATOM     13  C   UNL     1       3.327   4.851  -0.764  0.00  0.00    +0.000 A 
ATOM     14  N   UNL     1       3.223   6.027  -0.183  0.00  0.00    +0.000 NA
ATOM     15  C   UNL     1       2.902   6.897  -1.189  0.00  0.00    +0.000 A 
ATOM     16  N   UNL     1       2.749   8.232  -1.053  0.00  0.00    +0.000 NA
ATOM     17  C   UNL     1       2.445   8.877  -2.199  0.00  0.00    +0.000 A 
ATOM     18  C   UNL     1       2.261   8.282  -3.442  0.00  0.00    +0.000 A 
ATOM     19  C   UNL     1       2.418   6.905  -3.573  0.00  0.00    +0.000 A 
ATOM     20  C   UNL     1       2.765   6.230  -2.402  0.00  0.00    +0.000 A 
ENDBRANCH  11  12
ENDBRANCH   5  11
TORSDOF 4
