REMARK  Name = 
REMARK  7 active torsions:
REMARK  status: ('A' for Active; 'I' for Inactive)
REMARK    1  A    between atoms: C_1  and  C_2
REMARK    2  A    between atoms: C_2  and  C_3
REMARK    3  A    between atoms: C_2  and  C_4
REMARK    4  A    between atoms: C_2  and  C_20
REMARK    5  A    between atoms: C_4  and  N_5
REMARK    6  A    between atoms: C_10  and  C_11
REMARK    7  A    between atoms: C_15  and  C_16
REMARK                            x       y       z     vdW  Elec       q    Type
REMARK                         _______ _______ _______ _____ _____    ______ ____
ROOT
ATOM      1  N   UNL     1       2.697  -1.808  -1.681  0.00  0.00    +0.000 N 
ATOM      2  C   UNL     1       3.033  -2.174  -2.976  0.00  0.00    +0.000 A 
ATOM      3  N   UNL     1       3.221  -1.238  -3.914  0.00  0.00    +0.000 NA
ATOM      4  C   UNL     1       3.446  -1.668  -5.165  0.00  0.00    +0.000 A 
ATOM      5  C   UNL     1       3.532  -2.993  -5.505  0.00  0.00    +0.000 A 
ATOM      6  C   UNL     1       3.348  -3.897  -4.479  0.00  0.00    +0.000 A 
ATOM      7  N   UNL     1       3.064  -3.487  -3.224  0.00  0.00    +0.000 NA
ATOM      8  H   UNL     1       1.712  -2.038  -1.583  0.00  0.00    +0.000 HD
ENDROOT
BRANCH   6   9
ATOM      9  C   UNL     1       3.383  -5.360  -4.686  0.00  0.00    +0.000 A 
ATOM     10  C   UNL     1       4.121  -5.950  -5.730  0.00  0.00    +0.000 A 
ATOM     11  C   UNL     1       4.088  -7.328  -5.958  0.00  0.00    +0.000 A 
ATOM     12  C   UNL     1       3.329  -8.150  -5.130  0.00  0.00    +0.000 A 
ATOM     13  C   UNL     1       2.615  -7.601  -4.064  0.00  0.00    +0.000 A 
ATOM     14  C   UNL     1       2.647  -6.218  -3.845  0.00  0.00    +0.000 A 
BRANCH  13  15
ATOM     15  C   UNL     1       1.842  -8.446  -3.208  0.00  0.00    +0.000 C 
ATOM     16  N   UNL     1       1.214  -9.143  -2.518  0.00  0.00    +0.000 NA
ENDBRANCH  13  15
ENDBRANCH   6   9
BRANCH   1  17
ATOM     17  C   UNL     1       3.009  -0.431  -1.315  0.00  0.00    +0.000 C 
BRANCH  17  19
ATOM     18  C   UNL     1       3.126  -1.044   1.141  0.00  0.00    +0.000 C 
ATOM     19  C   UNL     1       2.472  -0.089   0.112  0.00  0.00    +0.000 C 
ATOM     20  C   UNL     1       2.950   1.339   0.467  0.00  0.00    +0.000 C 
BRANCH  19  21
ATOM     21  C   UNL     1       0.931  -0.156   0.138  0.00  0.00    +0.000 A 
ATOM     22  C   UNL     1       0.234  -1.021   0.994  0.00  0.00    +0.000 A 
ATOM     23  C   UNL     1      -1.150  -1.092   0.925  0.00  0.00    +0.000 A 
ATOM     24  N   UNL     1      -1.896  -0.370   0.070  0.00  0.00    +0.000 NA
ATOM     25  C   UNL     1      -1.226   0.469  -0.744  0.00  0.00    +0.000 A 
ATOM     26  C   UNL     1       0.156   0.615  -0.743  0.00  0.00    +0.000 A 
ENDBRANCH  19  21
ENDBRANCH  17  19
ENDBRANCH   1  17
TORSDOF 5
