REMARK  Name = 
REMARK  4 active torsions:
REMARK  status: ('A' for Active; 'I' for Inactive)
REMARK    1  A    between atoms: C_2  and  C_4
REMARK    2  A    between atoms: C_7  and  O_8
REMARK    3  A    between atoms: O_8  and  C_9
REMARK    4  A    between atoms: C_9  and  C_10
REMARK                            x       y       z     vdW  Elec       q    Type
REMARK                         _______ _______ _______ _____ _____    ______ ____
ROOT
ATOM      1  C   UNL     1       2.698   1.144  -1.269  0.00  0.00    +0.000 A 
ATOM      2  C   UNL     1       4.051   0.798  -1.269  0.00  0.00    +0.000 A 
ATOM      3  C   UNL     1       4.886   1.322  -2.258  0.00  0.00    +0.000 A 
ATOM      4  C   UNL     1       4.343   2.189  -3.193  0.00  0.00    +0.000 A 
ATOM      5  N   UNL     1       3.036   2.522  -3.230  0.00  0.00    +0.000 NA
ATOM      6  C   UNL     1       2.239   1.981  -2.277  0.00  0.00    +0.000 A 
ENDROOT
BRANCH   1   8
ATOM      7  N   UNL     1       2.224   0.366   0.981  0.00  0.00    +0.000 N 
ATOM      8  C   UNL     1       1.735   0.661  -0.260  0.00  0.00    +0.000 C 
ATOM      9  O   UNL     1       0.540   0.574  -0.509  0.00  0.00    +0.000 OA
ATOM     10  H   UNL     1       1.533   0.158   1.693  0.00  0.00    +0.000 HD
ATOM     11  H   UNL     1       3.133   0.676   1.294  0.00  0.00    +0.000 HD
ENDBRANCH   1   8
BRANCH   4  12
ATOM     12  O   UNL     1       5.198   2.692  -4.151  0.00  0.00    +0.000 OA
BRANCH  12  13
ATOM     13  C   UNL     1       4.714   3.923  -4.697  0.00  0.00    +0.000 C 
BRANCH  13  14
ATOM     14  C   UNL     1       5.636   4.369  -5.802  0.00  0.00    +0.000 A 
ATOM     15  C   UNL     1       5.743   3.621  -6.984  0.00  0.00    +0.000 A 
ATOM     16  C   UNL     1       6.559   4.061  -8.030  0.00  0.00    +0.000 A 
ATOM     17  C   UNL     1       7.278   5.250  -7.905  0.00  0.00    +0.000 A 
ATOM     18  C   UNL     1       7.182   5.997  -6.733  0.00  0.00    +0.000 A 
ATOM     19  C   UNL     1       6.366   5.555  -5.695  0.00  0.00    +0.000 A 
ATOM     20  F   UNL     1       6.280   6.300  -4.584  0.00  0.00    +0.000 F 
ENDBRANCH  13  14
ENDBRANCH  12  13
ENDBRANCH   4  12
TORSDOF 4
