REMARK  Name = 
REMARK  5 active torsions:
REMARK  status: ('A' for Active; 'I' for Inactive)
REMARK    1  A    between atoms: C_2  and  C_5
REMARK    2  A    between atoms: C_9  and  O_10
REMARK    3  A    between atoms: O_10  and  C_11
REMARK    4  A    between atoms: C_11  and  C_12
REMARK    5  A    between atoms: C_16  and  N_17
REMARK                            x       y       z     vdW  Elec       q    Type
REMARK                         _______ _______ _______ _____ _____    ______ ____
ROOT
ATOM      1  C   UNL     1       3.277  -3.927   4.350  0.00  0.00    +0.000 C 
ENDROOT
BRANCH   1   2
ATOM      2  C   UNL     1       3.178  -5.430   4.418  0.00  0.00    +0.000 A 
ATOM      3  C   UNL     1       3.546  -6.223   3.327  0.00  0.00    +0.000 A 
ATOM      4  C   UNL     1       3.546  -7.608   3.448  0.00  0.00    +0.000 A 
ATOM      5  C   UNL     1       3.200  -8.209   4.661  0.00  0.00    +0.000 A 
ATOM      6  C   UNL     1       2.835  -7.445   5.782  0.00  0.00    +0.000 A 
ATOM      7  C   UNL     1       2.798  -6.056   5.616  0.00  0.00    +0.000 A 
BRANCH   6   8
ATOM      8  N   UNL     1       2.547  -8.049   6.988  0.00  0.00    +0.000 N 
ATOM      9  C   UNL     1       1.618  -7.472   7.966  0.00  0.00    +0.000 C 
ATOM     10  C   UNL     1       2.336  -7.215   9.297  0.00  0.00    +0.000 C 
ATOM     11  O   UNL     1       2.969  -8.408   9.792  0.00  0.00    +0.000 OA
ATOM     12  C   UNL     1       3.943  -8.881   8.846  0.00  0.00    +0.000 C 
ATOM     13  C   UNL     1       3.311  -9.208   7.480  0.00  0.00    +0.000 C 
ENDBRANCH   6   8
ENDBRANCH   1   2
BRANCH   1  14
ATOM     14  O   UNL     1       2.084  -3.337   3.817  0.00  0.00    +0.000 OA
BRANCH  14  19
ATOM     15  C   UNL     1       3.415  -0.036   4.114  0.00  0.00    +0.000 A 
ATOM     16  N   UNL     1       2.417   0.746   3.641  0.00  0.00    +0.000 NA
ATOM     17  C   UNL     1       1.297   0.123   3.226  0.00  0.00    +0.000 A 
ATOM     18  C   UNL     1       1.126  -1.243   3.262  0.00  0.00    +0.000 A 
ATOM     19  C   UNL     1       2.188  -1.957   3.761  0.00  0.00    +0.000 A 
ATOM     20  N   UNL     1       3.324  -1.382   4.191  0.00  0.00    +0.000 NA
BRANCH  15  22
ATOM     21  F   UNL     1       4.775   1.958   4.444  0.00  0.00    +0.000 F 
ATOM     22  C   UNL     1       4.728   0.600   4.579  0.00  0.00    +0.000 C 
ATOM     23  F   UNL     1       5.814   0.130   3.893  0.00  0.00    +0.000 F 
ATOM     24  F   UNL     1       4.999   0.355   5.897  0.00  0.00    +0.000 F 
ENDBRANCH  15  22
ENDBRANCH  14  19
ENDBRANCH   1  14
TORSDOF 5
