REMARK  Name = 
REMARK  7 active torsions:
REMARK  status: ('A' for Active; 'I' for Inactive)
REMARK    1  A    between atoms: O_1  and  C_2
REMARK    2  A    between atoms: C_2  and  C_3
REMARK    3  A    between atoms: C_3  and  N_4
REMARK    4  A    between atoms: N_4  and  C_5
REMARK    5  A    between atoms: C_5  and  C_6
REMARK    6  A    between atoms: C_9  and  C_10
REMARK    7  A    between atoms: C_10  and  N_11
REMARK                            x       y       z     vdW  Elec       q    Type
REMARK                         _______ _______ _______ _____ _____    ______ ____
ROOT
ATOM      1  C   UNL     1       6.336  -2.675   0.277  0.00  0.00    +0.000 A 
ATOM      2  C   UNL     1       7.006  -3.897   0.425  0.00  0.00    +0.000 A 
ATOM      3  C   UNL     1       8.400  -3.958   0.366  0.00  0.00    +0.000 A 
ATOM      4  C   UNL     1       9.155  -2.798   0.151  0.00  0.00    +0.000 A 
ATOM      5  C   UNL     1       8.486  -1.576  -0.003  0.00  0.00    +0.000 A 
ATOM      6  C   UNL     1       7.092  -1.516   0.062  0.00  0.00    +0.000 A 
ENDROOT
BRANCH   1   7
ATOM      7  C   UNL     1       4.826  -2.616   0.264  0.00  0.00    +0.000 C 
BRANCH   7   8
ATOM      8  N   UNL     1       4.235  -3.103   1.511  0.00  0.00    +0.000 NA
ATOM      9  H   UNL     1       4.506  -4.081   1.633  0.00  0.00    +0.000 HD
BRANCH   8  10
ATOM     10  C   UNL     1       2.764  -3.086   1.468  0.00  0.00    +0.000 C 
BRANCH  10  11
ATOM     11  C   UNL     1       2.154  -4.031   0.421  0.00  0.00    +0.000 C 
BRANCH  11  12
ATOM     12  O   UNL     1       2.693  -5.342   0.577  0.00  0.00    +0.000 OA
ATOM     13  H   UNL     1       2.314  -5.889  -0.134  0.00  0.00    +0.000 HD
ENDBRANCH  11  12
ENDBRANCH  10  11
ENDBRANCH   8  10
ENDBRANCH   7   8
ENDBRANCH   1   7
BRANCH   4  14
ATOM     14  C   UNL     1      10.658  -2.860   0.085  0.00  0.00    +0.000 C 
BRANCH  14  15
ATOM     15  N   UNL     1      11.141  -3.098  -1.263  0.00  0.00    +0.000 N 
ATOM     16  C   UNL     1      11.392  -2.121  -2.190  0.00  0.00    +0.000 A 
ATOM     17  N   UNL     1      11.968  -2.604  -3.269  0.00  0.00    +0.000 NA
ATOM     18  C   UNL     1      12.093  -3.944  -3.030  0.00  0.00    +0.000 A 
ATOM     19  N   UNL     1      12.668  -4.833  -3.871  0.00  0.00    +0.000 NA
ATOM     20  C   UNL     1      12.689  -6.102  -3.412  0.00  0.00    +0.000 A 
ATOM     21  C   UNL     1      12.174  -6.534  -2.195  0.00  0.00    +0.000 A 
ATOM     22  C   UNL     1      11.584  -5.612  -1.333  0.00  0.00    +0.000 A 
ATOM     23  C   UNL     1      11.569  -4.292  -1.786  0.00  0.00    +0.000 A 
ENDBRANCH  14  15
ENDBRANCH   4  14
TORSDOF 7
