REMARK  Name = 
REMARK  4 active torsions:
REMARK  status: ('A' for Active; 'I' for Inactive)
REMARK    1  A    between atoms: C_2  and  C_4
REMARK    2  A    between atoms: C_7  and  N_8
REMARK    3  A    between atoms: N_8  and  C_9
REMARK    4  A    between atoms: C_9  and  C_10
REMARK                            x       y       z     vdW  Elec       q    Type
REMARK                         _______ _______ _______ _____ _____    ______ ____
ROOT
ATOM      1  N   UNL     1       5.228  -1.863  -3.991  0.00  0.00    +0.000 N 
ATOM      2  H   UNL     1       4.407  -1.608  -3.456  0.00  0.00    +0.000 HD
ENDROOT
BRANCH   1   6
ATOM      3  C   UNL     1       8.624  -0.012  -2.580  0.00  0.00    +0.000 A 
ATOM      4  C   UNL     1       8.526  -0.381  -3.910  0.00  0.00    +0.000 A 
ATOM      5  N   UNL     1       7.407  -0.964  -4.423  0.00  0.00    +0.000 NA
ATOM      6  C   UNL     1       6.390  -1.193  -3.560  0.00  0.00    +0.000 A 
ATOM      7  C   UNL     1       6.527  -0.837  -2.212  0.00  0.00    +0.000 A 
ATOM      8  N   UNL     1       7.619  -0.222  -1.688  0.00  0.00    +0.000 NA
BRANCH   3  10
ATOM      9  N   UNL     1       9.841   1.007  -0.759  0.00  0.00    +0.000 N 
ATOM     10  C   UNL     1       9.855   0.659  -2.083  0.00  0.00    +0.000 C 
ATOM     11  O   UNL     1      10.815   0.894  -2.803  0.00  0.00    +0.000 OA
ATOM     12  H   UNL     1      10.648   1.461  -0.351  0.00  0.00    +0.000 HD
ATOM     13  H   UNL     1       9.032   0.793  -0.187  0.00  0.00    +0.000 HD
ENDBRANCH   3  10
ENDBRANCH   1   6
BRANCH   1  14
ATOM     14  C   UNL     1       5.005  -2.053  -5.458  0.00  0.00    +0.000 C 
ATOM     15  C   UNL     1       4.769  -0.814  -6.316  0.00  0.00    +0.000 C 
ATOM     16  C   UNL     1       3.631  -1.726  -6.024  0.00  0.00    +0.000 C 
ATOM     17  F   UNL     1       3.138  -2.444  -7.098  0.00  0.00    +0.000 F 
BRANCH  14  18
ATOM     18  C   UNL     1       5.735  -3.262  -6.039  0.00  0.00    +0.000 A 
ATOM     19  C   UNL     1       6.939  -3.124  -6.739  0.00  0.00    +0.000 A 
ATOM     20  N   UNL     1       7.684  -4.162  -7.200  0.00  0.00    +0.000 NA
ATOM     21  C   UNL     1       7.183  -5.382  -6.924  0.00  0.00    +0.000 A 
ATOM     22  C   UNL     1       5.990  -5.553  -6.247  0.00  0.00    +0.000 A 
ATOM     23  N   UNL     1       5.248  -4.514  -5.796  0.00  0.00    +0.000 NA
ENDBRANCH  14  18
ENDBRANCH   1  14
TORSDOF 4
