REMARK  Name = 
REMARK  7 active torsions:
REMARK  status: ('A' for Active; 'I' for Inactive)
REMARK    1  A    between atoms: N_1  and  C_2
REMARK    2  A    between atoms: C_2  and  C_3
REMARK    3  A    between atoms: C_2  and  C_24
REMARK    4  A    between atoms: C_3  and  C_4
REMARK    5  A    between atoms: C_7  and  C_8
REMARK    6  A    between atoms: C_8  and  N_9
REMARK    7  A    between atoms: C_10  and  C_12
REMARK                            x       y       z     vdW  Elec       q    Type
REMARK                         _______ _______ _______ _____ _____    ______ ____
ROOT
ATOM      1  C   UNL     1       2.635  -0.130  -2.538  0.00  0.00    +0.000 A 
ATOM      2  C   UNL     1       2.995  -1.481  -2.618  0.00  0.00    +0.000 A 
ATOM      3  C   UNL     1       2.628  -2.252  -3.723  0.00  0.00    +0.000 A 
ATOM      4  C   UNL     1       1.887  -1.689  -4.769  0.00  0.00    +0.000 A 
ATOM      5  C   UNL     1       1.486  -0.350  -4.666  0.00  0.00    +0.000 A 
ATOM      6  C   UNL     1       1.866   0.426  -3.567  0.00  0.00    +0.000 A 
ENDROOT
BRANCH   1   7
ATOM      7  C   UNL     1       3.076   0.710  -1.360  0.00  0.00    +0.000 C 
BRANCH   7   8
ATOM      8  C   UNL     1       4.446   1.405  -1.538  0.00  0.00    +0.000 C 
BRANCH   8   9
ATOM      9  C   UNL     1       4.777   2.206  -0.255  0.00  0.00    +0.000 C 
ATOM     10  O   UNL     1       3.922   2.492   0.581  0.00  0.00    +0.000 OA
ATOM     11  N   UNL     1       6.097   2.606  -0.195  0.00  0.00    +0.000 N 
ATOM     12  C   UNL     1       6.627   3.353   0.852  0.00  0.00    +0.000 A 
ATOM     13  C   UNL     1       6.340   3.044   2.178  0.00  0.00    +0.000 A 
ATOM     14  C   UNL     1       6.881   3.840   3.182  0.00  0.00    +0.000 A 
ATOM     15  C   UNL     1       7.652   4.940   2.829  0.00  0.00    +0.000 A 
ATOM     16  C   UNL     1       7.900   5.157   1.483  0.00  0.00    +0.000 A 
ATOM     17  N   UNL     1       7.446   4.360   0.491  0.00  0.00    +0.000 NA
ATOM     18  H   UNL     1       6.595   2.668  -1.074  0.00  0.00    +0.000 HD
ENDBRANCH   8   9
BRANCH   8  19
ATOM     19  N   UNL     1       5.565   0.471  -1.813  0.00  0.00    +0.000 NA
ATOM     20  H   UNL     1       5.300  -0.136  -2.590  0.00  0.00    +0.000 HD
ATOM     21  H   UNL     1       5.679  -0.146  -1.007  0.00  0.00    +0.000 HD
ENDBRANCH   8  19
ENDBRANCH   7   8
ENDBRANCH   1   7
BRANCH   4  22
ATOM     22  C   UNL     1       1.491  -2.517  -5.963  0.00  0.00    +0.000 C 
BRANCH  22  23
ATOM     23  N   UNL     1       0.236  -3.187  -5.739  0.00  0.00    +0.000 N 
ATOM     24  C   UNL     1      -0.266  -4.077  -6.651  0.00  0.00    +0.000 C 
ATOM     25  O   UNL     1       0.352  -4.384  -7.668  0.00  0.00    +0.000 OA
ATOM     26  H   UNL     1      -0.376  -2.793  -5.031  0.00  0.00    +0.000 HD
BRANCH  24  27
ATOM     27  C   UNL     1      -1.558  -4.695  -6.327  0.00  0.00    +0.000 A 
ATOM     28  C   UNL     1      -1.911  -5.898  -6.924  0.00  0.00    +0.000 A 
ATOM     29  S   UNL     1      -3.415  -6.506  -6.399  0.00  0.00    +0.000 S 
ATOM     30  C   UNL     1      -3.674  -5.157  -5.395  0.00  0.00    +0.000 A 
ATOM     31  N   UNL     1      -4.814  -5.035  -4.666  0.00  0.00    +0.000 NA
ATOM     32  C   UNL     1      -4.893  -3.955  -3.965  0.00  0.00    +0.000 A 
ATOM     33  N   UNL     1      -3.925  -2.981  -3.924  0.00  0.00    +0.000 N 
ATOM     34  C   UNL     1      -2.749  -3.068  -4.631  0.00  0.00    +0.000 A 
ATOM     35  O   UNL     1      -1.897  -2.197  -4.553  0.00  0.00    +0.000 OA
ATOM     36  C   UNL     1      -2.615  -4.263  -5.443  0.00  0.00    +0.000 A 
ATOM     37  H   UNL     1      -4.047  -2.159  -3.354  0.00  0.00    +0.000 HD
ENDBRANCH  24  27
ENDBRANCH  22  23
ENDBRANCH   4  22
TORSDOF 7
