REMARK  Name = 
REMARK  7 active torsions:
REMARK  status: ('A' for Active; 'I' for Inactive)
REMARK    1  A    between atoms: C_2  and  C_20
REMARK    2  A    between atoms: N_3  and  C_4
REMARK    3  A    between atoms: C_4  and  C_5
REMARK    4  A    between atoms: C_8  and  C_9
REMARK    5  A    between atoms: C_9  and  N_10
REMARK    6  A    between atoms: N_10  and  C_11
REMARK    7  A    between atoms: C_11  and  C_12
REMARK                            x       y       z     vdW  Elec       q    Type
REMARK                         _______ _______ _______ _____ _____    ______ ____
ROOT
ATOM      1  C   UNL     1       2.278  -2.463   0.340  0.00  0.00    +0.000 C 
ENDROOT
BRANCH   1   2
ATOM      2  C   UNL     1       3.309  -3.595   0.141  0.00  0.00    +0.000 C 
ATOM      3  C   UNL     1       2.676  -5.002   0.200  0.00  0.00    +0.000 C 
ATOM      4  C   UNL     1       3.722  -6.127   0.199  0.00  0.00    +0.000 C 
ATOM      5  C   UNL     1       4.766  -5.937   1.311  0.00  0.00    +0.000 C 
ATOM      6  C   UNL     1       5.418  -4.550   1.177  0.00  0.00    +0.000 C 
ATOM      7  C   UNL     1       4.386  -3.441   1.219  0.00  0.00    +0.000 C 
BRANCH   5   8
ATOM      8  C   UNL     1       5.840  -7.042   1.293  0.00  0.00    +0.000 C 
BRANCH   8   9
ATOM      9  N   UNL     1       6.782  -6.807   2.382  0.00  0.00    +0.000 NA
ATOM     10  H   UNL     1       6.312  -6.813   3.288  0.00  0.00    +0.000 HD
BRANCH   9  11
ATOM     11  C   UNL     1       7.873  -7.790   2.423  0.00  0.00    +0.000 C 
BRANCH  11  12
ATOM     12  C   UNL     1       8.848  -7.524   3.556  0.00  0.00    +0.000 A 
ATOM     13  N   UNL     1       8.359  -7.513   4.818  0.00  0.00    +0.000 NA
ATOM     14  C   UNL     1       9.241  -7.244   5.800  0.00  0.00    +0.000 A 
ATOM     15  C   UNL     1      10.574  -6.984   5.575  0.00  0.00    +0.000 A 
ATOM     16  C   UNL     1      10.979  -7.034   4.260  0.00  0.00    +0.000 A 
ATOM     17  N   UNL     1      10.148  -7.308   3.242  0.00  0.00    +0.000 NA
ENDBRANCH  11  12
ENDBRANCH   9  11
ENDBRANCH   8   9
ENDBRANCH   5   8
ENDBRANCH   1   2
BRANCH   1  20
ATOM     18  O   UNL     1       2.358  -1.163  -2.214  0.00  0.00    +0.000 OA
ATOM     19  C   UNL     1       1.377  -1.812  -1.872  0.00  0.00    +0.000 C 
ATOM     20  N   UNL     1       1.240  -2.423  -0.655  0.00  0.00    +0.000 N 
ATOM     21  H   UNL     1       0.304  -2.704  -0.371  0.00  0.00    +0.000 HD
BRANCH  19  22
ATOM     22  C   UNL     1       0.285  -2.114  -2.797  0.00  0.00    +0.000 A 
ATOM     23  C   UNL     1      -0.401  -3.324  -2.790  0.00  0.00    +0.000 A 
ATOM     24  S   UNL     1      -1.240  -3.603  -4.250  0.00  0.00    +0.000 S 
ATOM     25  C   UNL     1      -0.819  -2.062  -4.842  0.00  0.00    +0.000 A 
ATOM     26  N   UNL     1      -1.129  -1.676  -6.106  0.00  0.00    +0.000 NA
ATOM     27  C   UNL     1      -0.828  -0.445  -6.366  0.00  0.00    +0.000 A 
ATOM     28  N   UNL     1      -0.298   0.444  -5.463  0.00  0.00    +0.000 N 
ATOM     29  C   UNL     1       0.023   0.098  -4.167  0.00  0.00    +0.000 A 
ATOM     30  O   UNL     1       0.340   0.940  -3.334  0.00  0.00    +0.000 OA
ATOM     31  C   UNL     1      -0.170  -1.308  -3.887  0.00  0.00    +0.000 A 
ATOM     32  H   UNL     1      -0.205   1.421  -5.697  0.00  0.00    +0.000 HD
ENDBRANCH  19  22
ENDBRANCH   1  20
TORSDOF 7
