REMARK  Name = 
REMARK  8 active torsions:
REMARK  status: ('A' for Active; 'I' for Inactive)
REMARK    1  A    between atoms: C_1  and  N_2
REMARK    2  A    between atoms: C_4  and  C_5
REMARK    3  A    between atoms: N_7  and  C_8
REMARK    4  A    between atoms: C_8  and  C_9
REMARK    5  A    between atoms: C_12  and  C_13
REMARK    6  A    between atoms: C_13  and  C_14
REMARK    7  A    between atoms: C_14  and  N_15
REMARK    8  A    between atoms: N_15  and  C_16
REMARK                            x       y       z     vdW  Elec       q    Type
REMARK                         _______ _______ _______ _____ _____    ______ ____
ROOT
ATOM      1  C   UNL     1       6.526   3.933  -0.046  0.00  0.00    +0.000 C 
ENDROOT
BRANCH   1   2
ATOM      2  C   UNL     1       6.058   5.348  -0.063  0.00  0.00    +0.000 A 
ATOM      3  C   UNL     1       6.978   6.405  -0.074  0.00  0.00    +0.000 A 
ATOM      4  C   UNL     1       6.532   7.721  -0.045  0.00  0.00    +0.000 A 
ATOM      5  C   UNL     1       5.166   7.965  -0.008  0.00  0.00    +0.000 A 
ATOM      6  N   UNL     1       4.266   6.949  -0.066  0.00  0.00    +0.000 NA
ATOM      7  C   UNL     1       4.716   5.686  -0.049  0.00  0.00    +0.000 A 
BRANCH   5   8
ATOM      8  C   UNL     1       4.607   9.356   0.042  0.00  0.00    +0.000 C 
BRANCH   8   9
ATOM      9  C   UNL     1       3.239   9.406   0.737  0.00  0.00    +0.000 C 
BRANCH   9  10
ATOM     10  N   UNL     1       3.247   9.006   2.152  0.00  0.00    +0.000 NA
ATOM     11  H   UNL     1       3.898   9.577   2.687  0.00  0.00    +0.000 HD
BRANCH  10  12
ATOM     12  C   UNL     1       1.898   9.054   2.731  0.00  0.00    +0.000 C 
ATOM     13  C   UNL     1       1.948   8.607   4.194  0.00  0.00    +0.000 C 
ATOM     14  C   UNL     1       0.540   8.565   4.777  0.00  0.00    +0.000 C 
ATOM     15  O   UNL     1      -0.314   7.716   4.011  0.00  0.00    +0.000 OA
ATOM     16  C   UNL     1      -0.460   8.172   2.672  0.00  0.00    +0.000 C 
ATOM     17  C   UNL     1       0.880   8.197   1.960  0.00  0.00    +0.000 C 
ENDBRANCH  10  12
ENDBRANCH   9  10
ENDBRANCH   8   9
ENDBRANCH   5   8
ENDBRANCH   1   2
BRANCH   1  20
ATOM     18  C   UNL     1       7.164   2.083  -1.504  0.00  0.00    +0.000 C 
ATOM     19  O   UNL     1       7.410   1.382  -0.541  0.00  0.00    +0.000 OA
ATOM     20  N   UNL     1       6.701   3.381  -1.374  0.00  0.00    +0.000 N 
ATOM     21  H   UNL     1       6.580   3.963  -2.186  0.00  0.00    +0.000 HD
BRANCH  18  25
ATOM     22  C   UNL     1       6.454   1.556  -6.415  0.00  0.00    +0.000 C 
ATOM     23  N   UNL     1       6.998   1.396  -5.086  0.00  0.00    +0.000 N 
ATOM     24  C   UNL     1       6.576   2.065  -3.968  0.00  0.00    +0.000 A 
ATOM     25  C   UNL     1       7.336   1.631  -2.884  0.00  0.00    +0.000 A 
ATOM     26  C   UNL     1       8.262   0.649  -3.391  0.00  0.00    +0.000 A 
ATOM     27  C   UNL     1       9.291  -0.176  -2.943  0.00  0.00    +0.000 A 
ATOM     28 CL   UNL     1       9.791  -0.189  -1.325  0.00  0.00    +0.000 Cl
ATOM     29  N   UNL     1       9.979  -0.984  -3.771  0.00  0.00    +0.000 NA
ATOM     30  C   UNL     1       9.622  -0.976  -5.058  0.00  0.00    +0.000 A 
ATOM     31  N   UNL     1       8.659  -0.246  -5.638  0.00  0.00    +0.000 NA
ATOM     32  C   UNL     1       8.015   0.543  -4.760  0.00  0.00    +0.000 A 
ENDBRANCH  18  25
ENDBRANCH   1  20
TORSDOF 7
