REMARK  Name = 
REMARK  7 active torsions:
REMARK  status: ('A' for Active; 'I' for Inactive)
REMARK    1  A    between atoms: C_1  and  C_2
REMARK    2  A    between atoms: C_6  and  O_7
REMARK    3  A    between atoms: O_7  and  C_8
REMARK    4  A    between atoms: C_10  and  C_11
REMARK    5  A    between atoms: C_11  and  C_14
REMARK    6  A    between atoms: C_14  and  N_15
REMARK    7  A    between atoms: C_20  and  N_21
REMARK                            x       y       z     vdW  Elec       q    Type
REMARK                         _______ _______ _______ _____ _____    ______ ____
ROOT
ATOM      1  C   UNL     1       1.151  -2.674  -0.942  0.00  0.00    +0.000 A 
ATOM      2  C   UNL     1       1.187  -1.797  -2.033  0.00  0.00    +0.000 A 
ATOM      3  C   UNL     1       1.968  -2.049  -3.180  0.00  0.00    +0.000 A 
ATOM      4  C   UNL     1       2.661  -3.261  -3.258  0.00  0.00    +0.000 A 
ATOM      5  C   UNL     1       2.592  -4.176  -2.201  0.00  0.00    +0.000 A 
ATOM      6  C   UNL     1       1.848  -3.883  -1.048  0.00  0.00    +0.000 A 
ATOM      7 CL   UNL     1       1.854  -5.041   0.234  0.00  0.00    +0.000 Cl
ENDROOT
BRANCH   3   8
ATOM      8  C   UNL     1       2.006  -0.949  -4.234  0.00  0.00    +0.000 C 
ATOM      9  F   UNL     1       0.755  -0.743  -4.749  0.00  0.00    +0.000 F 
ATOM     10  F   UNL     1       2.340   0.246  -3.641  0.00  0.00    +0.000 F 
BRANCH   8  11
ATOM     11  C   UNL     1       2.992  -1.157  -5.405  0.00  0.00    +0.000 C 
BRANCH  11  12
ATOM     12  N   UNL     1       3.037  -0.003  -6.308  0.00  0.00    +0.000 N 
ATOM     13  C   UNL     1       3.902  -0.126  -7.382  0.00  0.00    +0.000 A 
ATOM     14  N   UNL     1       4.163  -1.341  -7.885  0.00  0.00    +0.000 NA
ATOM     15  C   UNL     1       4.963  -1.388  -8.960  0.00  0.00    +0.000 A 
ATOM     16  C   UNL     1       5.526  -0.281  -9.532  0.00  0.00    +0.000 A 
ATOM     17  C   UNL     1       5.231   0.919  -8.922  0.00  0.00    +0.000 A 
ATOM     18  N   UNL     1       4.426   1.010  -7.857  0.00  0.00    +0.000 NA
ATOM     19  H   UNL     1       3.189   0.902  -5.873  0.00  0.00    +0.000 HD
BRANCH  17  20
ATOM     20  N   UNL     1       5.734   2.109  -9.445  0.00  0.00    +0.000 N 
ATOM     21  H   UNL     1       6.739   2.085  -9.567  0.00  0.00    +0.000 HD
ATOM     22  H   UNL     1       5.441   2.865  -8.829  0.00  0.00    +0.000 HD
ENDBRANCH  17  20
ENDBRANCH  11  12
ENDBRANCH   8  11
ENDBRANCH   3   8
BRANCH   1  23
ATOM     23  O   UNL     1       0.467  -2.407   0.227  0.00  0.00    +0.000 OA
BRANCH  23  29
ATOM     24  C   UNL     1      -0.490  -1.760   2.923  0.00  0.00    +0.000 C 
ATOM     25  C   UNL     1      -0.617  -0.777   1.764  0.00  0.00    +0.000 C 
ATOM     26  C   UNL     1      -0.183   0.631   2.165  0.00  0.00    +0.000 C 
ATOM     27  N   UNL     1       1.264   0.706   1.924  0.00  0.00    +0.000 NA
ATOM     28  C   UNL     1       1.573  -0.291   0.888  0.00  0.00    +0.000 C 
ATOM     29  C   UNL     1       0.272  -1.026   0.540  0.00  0.00    +0.000 C 
ATOM     30  H   UNL     1       1.762   0.450   2.777  0.00  0.00    +0.000 HD
ENDBRANCH  23  29
ENDBRANCH   1  23
TORSDOF 6
