REMARK  Name = 
REMARK  6 active torsions:
REMARK  status: ('A' for Active; 'I' for Inactive)
REMARK    1  A    between atoms: C_1  and  C_2
REMARK    2  A    between atoms: C_2  and  C_3
REMARK    3  A    between atoms: C_2  and  C_4
REMARK    4  A    between atoms: C_2  and  C_5
REMARK    5  A    between atoms: N_7  and  C_8
REMARK    6  A    between atoms: C_8  and  C_9
REMARK                            x       y       z     vdW  Elec       q    Type
REMARK                         _______ _______ _______ _____ _____    ______ ____
ROOT
ATOM      1  C   UNL     1       2.942   0.940   0.894  0.00  0.00    +0.000 A 
ATOM      2  C   UNL     1       3.612   0.630   2.075  0.00  0.00    +0.000 A 
ATOM      3  N   UNL     1       3.776   1.764   2.821  0.00  0.00    +0.000 N 
ATOM      4  C   UNL     1       3.282   2.836   2.130  0.00  0.00    +0.000 A 
ATOM      5  N   UNL     1       3.321   4.101   2.581  0.00  0.00    +0.000 NA
ATOM      6  C   UNL     1       2.743   4.952   1.730  0.00  0.00    +0.000 A 
ATOM      7  N   UNL     1       2.143   4.665   0.566  0.00  0.00    +0.000 NA
ATOM      8  C   UNL     1       2.102   3.381   0.152  0.00  0.00    +0.000 A 
ATOM      9  N   UNL     1       1.417   3.195  -1.038  0.00  0.00    +0.000 N 
ATOM     10  C   UNL     1       2.720   2.380   0.935  0.00  0.00    +0.000 A 
ATOM     11  H   UNL     1       1.286   4.084  -1.507  0.00  0.00    +0.000 HD
ATOM     12  H   UNL     1       1.729   2.437  -1.618  0.00  0.00    +0.000 HD
ENDROOT
BRANCH   1  14
ATOM     13  C   UNL     1       2.905  -1.537   0.274  0.00  0.00    +0.000 C 
ATOM     14  C   UNL     1       2.538  -0.093  -0.169  0.00  0.00    +0.000 C 
ATOM     15  C   UNL     1       3.297   0.151  -1.488  0.00  0.00    +0.000 C 
ATOM     16  C   UNL     1       1.014  -0.097  -0.402  0.00  0.00    +0.000 C 
ENDBRANCH   1  14
BRANCH   3  17
ATOM     17  C   UNL     1       4.206   1.791   4.214  0.00  0.00    +0.000 C 
BRANCH  17  18
ATOM     18  C   UNL     1       5.693   1.898   4.399  0.00  0.00    +0.000 A 
ATOM     19  C   UNL     1       6.418   0.894   5.052  0.00  0.00    +0.000 A 
ATOM     20  C   UNL     1       7.773   1.074   5.315  0.00  0.00    +0.000 A 
ATOM     21  C   UNL     1       8.367   2.257   4.909  0.00  0.00    +0.000 A 
ATOM     22  N   UNL     1       7.711   3.240   4.261  0.00  0.00    +0.000 NA
ATOM     23  C   UNL     1       6.391   3.041   4.022  0.00  0.00    +0.000 A 
ENDBRANCH  17  18
ENDBRANCH   3  17
TORSDOF 3
