REMARK  Name = 
REMARK  10 active torsions:
REMARK  status: ('A' for Active; 'I' for Inactive)
REMARK    1  A    between atoms: C_1  and  C_2
REMARK    2  A    between atoms: C_2  and  C_3
REMARK    3  A    between atoms: C_2  and  C_4
REMARK    4  A    between atoms: C_2  and  C_15
REMARK    5  A    between atoms: C_4  and  N_5
REMARK    6  A    between atoms: N_5  and  C_6
REMARK    7  A    between atoms: C_9  and  C_10
REMARK    8  A    between atoms: C_19  and  C_20
REMARK    9  A    between atoms: C_20  and  C_21
REMARK   10  A    between atoms: C_24  and  O_25
REMARK                            x       y       z     vdW  Elec       q    Type
REMARK                         _______ _______ _______ _____ _____    ______ ____
ROOT
ATOM      1  C   UNL     1       0.810  -0.164   0.243  0.00  0.00    +0.000 C 
ATOM      2  C   UNL     1       2.349  -0.072   0.085  0.00  0.00    +0.000 C 
ATOM      3  C   UNL     1       2.957  -0.855   1.279  0.00  0.00    +0.000 C 
ENDROOT
BRANCH   2   4
ATOM      4  C   UNL     1       2.815   1.401   0.079  0.00  0.00    +0.000 A 
ATOM      5  C   UNL     1       2.019   2.419  -0.463  0.00  0.00    +0.000 A 
ATOM      6  C   UNL     1       2.440   3.747  -0.436  0.00  0.00    +0.000 A 
ATOM      7  C   UNL     1       3.657   4.091   0.150  0.00  0.00    +0.000 A 
ATOM      8  C   UNL     1       4.473   3.122   0.747  0.00  0.00    +0.000 A 
ATOM      9  C   UNL     1       4.058   1.778   0.631  0.00  0.00    +0.000 A 
BRANCH   8  10
ATOM     10  C   UNL     1       5.748   3.468   1.550  0.00  0.00    +0.000 C 
ATOM     11  C   UNL     1       6.979   2.942   0.774  0.00  0.00    +0.000 C 
ATOM     12  C   UNL     1       5.728   2.782   2.949  0.00  0.00    +0.000 C 
ATOM     13  C   UNL     1       4.662   3.356   3.885  0.00  0.00    +0.000 C 
ATOM     14  C   UNL     1       4.797   4.866   4.075  0.00  0.00    +0.000 C 
ATOM     15  C   UNL     1       4.947   5.625   2.759  0.00  0.00    +0.000 C 
ATOM     16  C   UNL     1       5.965   4.990   1.799  0.00  0.00    +0.000 C 
BRANCH  14  17
ATOM     17  O   UNL     1       5.902   5.151   4.927  0.00  0.00    +0.000 OA
ATOM     18  H   UNL     1       6.720   4.866   4.484  0.00  0.00    +0.000 HD
ENDBRANCH  14  17
ENDBRANCH   8  10
ENDBRANCH   2   4
BRANCH   2  19
ATOM     19  C   UNL     1       2.789  -0.724  -1.265  0.00  0.00    +0.000 C 
BRANCH  19  20
ATOM     20  N   UNL     1       2.512  -2.162  -1.296  0.00  0.00    +0.000 N 
ATOM     21  H   UNL     1       1.692  -2.454  -0.770  0.00  0.00    +0.000 HD
BRANCH  20  22
ATOM     22  C   UNL     1       2.714  -2.919  -2.441  0.00  0.00    +0.000 A 
ATOM     23  C   UNL     1       3.429  -2.527  -3.562  0.00  0.00    +0.000 A 
ATOM     24  N   UNL     1       3.697  -3.316  -4.629  0.00  0.00    +0.000 NA
ATOM     25  C   UNL     1       3.234  -4.586  -4.541  0.00  0.00    +0.000 A 
ATOM     26  N   UNL     1       2.545  -5.101  -3.508  0.00  0.00    +0.000 NA
ATOM     27  C   UNL     1       2.321  -4.251  -2.485  0.00  0.00    +0.000 A 
BRANCH  25  28
ATOM     28  C   UNL     1       3.557  -5.503  -5.697  0.00  0.00    +0.000 C 
ATOM     29  N   UNL     1       4.280  -4.933  -6.719  0.00  0.00    +0.000 N 
ATOM     30  O   UNL     1       3.225  -6.681  -5.754  0.00  0.00    +0.000 OA
ATOM     31  H   UNL     1       4.586  -3.969  -6.647  0.00  0.00    +0.000 HD
ATOM     32  H   UNL     1       4.563  -5.509  -7.499  0.00  0.00    +0.000 HD
ENDBRANCH  25  28
ENDBRANCH  20  22
ENDBRANCH  19  20
ENDBRANCH   2  19
TORSDOF 7
