REMARK  Name = 
REMARK  5 active torsions:
REMARK  status: ('A' for Active; 'I' for Inactive)
REMARK    1  A    between atoms: C_2  and  C_5
REMARK    2  A    between atoms: C_9  and  C_10
REMARK    3  A    between atoms: C_10  and  O_11
REMARK    4  A    between atoms: O_11  and  C_12
REMARK    5  A    between atoms: C_16  and  C_17
REMARK                            x       y       z     vdW  Elec       q    Type
REMARK                         _______ _______ _______ _____ _____    ______ ____
ROOT
ATOM      1  O   UNL     1       5.884   3.866  -3.244  0.00  0.00    +0.000 OA
ENDROOT
BRANCH   1   2
ATOM      2  C   UNL     1       6.994   4.319  -3.907  0.00  0.00    +0.000 A 
ATOM      3  C   UNL     1       7.400   3.575  -5.004  0.00  0.00    +0.000 A 
ATOM      4  C   UNL     1       8.555   3.963  -5.658  0.00  0.00    +0.000 A 
ATOM      5  N   UNL     1       9.311   5.023  -5.293  0.00  0.00    +0.000 NA
ATOM      6  C   UNL     1       8.892   5.763  -4.231  0.00  0.00    +0.000 A 
ATOM      7  C   UNL     1       7.723   5.445  -3.543  0.00  0.00    +0.000 A 
BRANCH   6   8
ATOM      8  C   UNL     1       9.745   6.896  -3.800  0.00  0.00    +0.000 A 
ATOM      9  C   UNL     1      10.951   7.208  -4.425  0.00  0.00    +0.000 A 
ATOM     10  C   UNL     1      11.720   8.265  -3.941  0.00  0.00    +0.000 A 
ATOM     11  C   UNL     1      11.272   8.988  -2.843  0.00  0.00    +0.000 A 
ATOM     12  C   UNL     1      10.067   8.627  -2.272  0.00  0.00    +0.000 A 
ATOM     13  N   UNL     1       9.302   7.608  -2.721  0.00  0.00    +0.000 NA
ENDBRANCH   6   8
ENDBRANCH   1   2
BRANCH   1  14
ATOM     14  C   UNL     1       5.782   4.308  -1.886  0.00  0.00    +0.000 C 
BRANCH  14  19
ATOM     15  C   UNL     1       4.313   1.161  -0.304  0.00  0.00    +0.000 A 
ATOM     16  C   UNL     1       3.220   1.701   0.391  0.00  0.00    +0.000 A 
ATOM     17  C   UNL     1       2.948   3.068   0.332  0.00  0.00    +0.000 A 
ATOM     18  C   UNL     1       3.763   3.912  -0.420  0.00  0.00    +0.000 A 
ATOM     19  C   UNL     1       4.855   3.395  -1.126  0.00  0.00    +0.000 A 
ATOM     20  C   UNL     1       5.122   2.019  -1.063  0.00  0.00    +0.000 A 
BRANCH  15  22
ATOM     21  F   UNL     1       3.796  -1.020   0.564  0.00  0.00    +0.000 F 
ATOM     22  C   UNL     1       4.636  -0.310  -0.241  0.00  0.00    +0.000 C 
ATOM     23  F   UNL     1       5.891  -0.547   0.233  0.00  0.00    +0.000 F 
ATOM     24  F   UNL     1       4.579  -0.911  -1.462  0.00  0.00    +0.000 F 
ENDBRANCH  15  22
ENDBRANCH  14  19
ENDBRANCH   1  14
TORSDOF 5
