REMARK  Name = 
REMARK  7 active torsions:
REMARK  status: ('A' for Active; 'I' for Inactive)
REMARK    1  A    between atoms: N_1  and  C_2
REMARK    2  A    between atoms: C_2  and  C_3
REMARK    3  A    between atoms: C_3  and  C_4
REMARK    4  A    between atoms: C_8  and  C_9
REMARK    5  A    between atoms: C_9  and  N_10
REMARK    6  A    between atoms: C_15  and  C_16
REMARK    7  A    between atoms: C_16  and  O_18
REMARK                            x       y       z     vdW  Elec       q    Type
REMARK                         _______ _______ _______ _____ _____    ______ ____
ROOT
ATOM      1  N   UNL     1       8.816  -2.673   1.414  0.00  0.00    +0.000 N 
ATOM      2  N   UNL     1       9.377  -2.604   2.647  0.00  0.00    +0.000 NA
ATOM      3  C   UNL     1      10.687  -2.697   2.405  0.00  0.00    +0.000 A 
ATOM      4  C   UNL     1      10.979  -2.823   1.033  0.00  0.00    +0.000 A 
ATOM      5  C   UNL     1      12.150  -2.986   0.268  0.00  0.00    +0.000 A 
ATOM      6  C   UNL     1      12.045  -3.114  -1.126  0.00  0.00    +0.000 A 
ATOM      7  C   UNL     1      10.790  -3.070  -1.747  0.00  0.00    +0.000 A 
ATOM      8  C   UNL     1       9.616  -2.891  -0.998  0.00  0.00    +0.000 A 
ATOM      9  C   UNL     1       9.743  -2.784   0.396  0.00  0.00    +0.000 A 
ENDROOT
BRANCH   6  10
ATOM     10  C   UNL     1      13.305  -3.370  -1.879  0.00  0.00    +0.000 C 
ATOM     11  O   UNL     1      14.271  -3.918  -1.375  0.00  0.00    +0.000 OA
BRANCH  10  12
ATOM     12  O   UNL     1      13.301  -2.921  -3.150  0.00  0.00    +0.000 OA
ATOM     13  H   UNL     1      12.551  -2.351  -3.394  0.00  0.00    +0.000 HD
ENDBRANCH  10  12
ENDBRANCH   6  10
BRANCH   1  14
ATOM     14  C   UNL     1       7.373  -2.818   1.306  0.00  0.00    +0.000 C 
BRANCH  14  19
ATOM     15  C   UNL     1       5.170  -0.165  -0.017  0.00  0.00    +0.000 A 
ATOM     16  C   UNL     1       5.120   0.774   1.008  0.00  0.00    +0.000 A 
ATOM     17  C   UNL     1       5.894   0.569   2.144  0.00  0.00    +0.000 A 
ATOM     18  C   UNL     1       6.677  -0.578   2.238  0.00  0.00    +0.000 A 
ATOM     19  C   UNL     1       6.652  -1.501   1.194  0.00  0.00    +0.000 A 
ATOM     20  N   UNL     1       5.908  -1.301   0.072  0.00  0.00    +0.000 NA
BRANCH  15  21
ATOM     21  C   UNL     1       4.402   0.061  -1.294  0.00  0.00    +0.000 C 
BRANCH  21  22
ATOM     22  C   UNL     1       2.981  -0.498  -1.222  0.00  0.00    +0.000 C 
BRANCH  22  23
ATOM     23  N   UNL     1       2.253  -0.238  -2.468  0.00  0.00    +0.000 NA
ATOM     24  H   UNL     1       1.316  -0.635  -2.399  0.00  0.00    +0.000 HD
ATOM     25  H   UNL     1       2.710  -0.731  -3.236  0.00  0.00    +0.000 HD
ENDBRANCH  22  23
ENDBRANCH  21  22
ENDBRANCH  15  21
ENDBRANCH  14  19
ENDBRANCH   1  14
TORSDOF 7
