REMARK  Name = 
REMARK  6 active torsions:
REMARK  status: ('A' for Active; 'I' for Inactive)
REMARK    1  A    between atoms: C_2  and  C_4
REMARK    2  A    between atoms: C_7  and  N_8
REMARK    3  A    between atoms: N_8  and  C_9
REMARK    4  A    between atoms: C_9  and  C_10
REMARK    5  A    between atoms: C_14  and  C_15
REMARK    6  A    between atoms: C_19  and  O_20
REMARK                            x       y       z     vdW  Elec       q    Type
REMARK                         _______ _______ _______ _____ _____    ______ ____
ROOT
ATOM      1  C   UNL     1       4.890  -0.127   6.038  0.00  0.00    +0.000 C 
ATOM      2  C   UNL     1       4.794  -1.623   6.301  0.00  0.00    +0.000 C 
ATOM      3  C   UNL     1       3.549  -0.804   6.308  0.00  0.00    +0.000 C 
ENDROOT
BRANCH   1   4
ATOM      4  C   UNL     1       5.374   0.796   7.152  0.00  0.00    +0.000 A 
ATOM      5  C   UNL     1       4.684   1.975   7.477  0.00  0.00    +0.000 A 
ATOM      6  C   UNL     1       5.034   2.731   8.594  0.00  0.00    +0.000 A 
ATOM      7  C   UNL     1       6.078   2.311   9.418  0.00  0.00    +0.000 A 
ATOM      8  C   UNL     1       6.810   1.149   9.124  0.00  0.00    +0.000 A 
ATOM      9  C   UNL     1       6.469   0.441   7.959  0.00  0.00    +0.000 A 
BRANCH   8  10
ATOM     10  C   UNL     1       7.818   0.613  10.055  0.00  0.00    +0.000 A 
ATOM     11  C   UNL     1       9.001   0.003   9.623  0.00  0.00    +0.000 A 
ATOM     12  N   UNL     1       9.917  -0.585  10.437  0.00  0.00    +0.000 NA
ATOM     13  C   UNL     1       9.646  -0.564  11.760  0.00  0.00    +0.000 A 
ATOM     14  C   UNL     1       8.514   0.024  12.298  0.00  0.00    +0.000 A 
ATOM     15  C   UNL     1       7.596   0.613  11.440  0.00  0.00    +0.000 A 
BRANCH  14  16
ATOM     16  O   UNL     1       8.241   0.039  13.632  0.00  0.00    +0.000 OA
ATOM     17  H   UNL     1       8.956  -0.416  14.106  0.00  0.00    +0.000 HD
ENDBRANCH  14  16
ENDBRANCH   8  10
ENDBRANCH   1   4
BRANCH   1  18
ATOM     18  N   UNL     1       5.172   0.365   4.672  0.00  0.00    +0.000 N 
ATOM     19  H   UNL     1       4.404   0.261   4.017  0.00  0.00    +0.000 HD
BRANCH  18  23
ATOM     20  C   UNL     1       8.701  -0.544   2.737  0.00  0.00    +0.000 A 
ATOM     21  C   UNL     1       8.405  -1.118   3.961  0.00  0.00    +0.000 A 
ATOM     22  N   UNL     1       7.256  -0.847   4.635  0.00  0.00    +0.000 NA
ATOM     23  C   UNL     1       6.389   0.007   4.044  0.00  0.00    +0.000 A 
ATOM     24  C   UNL     1       6.713   0.579   2.805  0.00  0.00    +0.000 A 
ATOM     25  N   UNL     1       7.859   0.327   2.117  0.00  0.00    +0.000 NA
BRANCH  20  27
ATOM     26  N   UNL     1      10.233  -0.184   0.899  0.00  0.00    +0.000 N 
ATOM     27  C   UNL     1       9.987  -0.864   2.062  0.00  0.00    +0.000 C 
ATOM     28  O   UNL     1      10.790  -1.670   2.519  0.00  0.00    +0.000 OA
ATOM     29  H   UNL     1      11.107  -0.329   0.412  0.00  0.00    +0.000 HD
ATOM     30  H   UNL     1       9.567   0.503   0.561  0.00  0.00    +0.000 HD
ENDBRANCH  20  27
ENDBRANCH  18  23
ENDBRANCH   1  18
TORSDOF 6
