REMARK  Name = 
REMARK  7 active torsions:
REMARK  status: ('A' for Active; 'I' for Inactive)
REMARK    1  A    between atoms: C_2  and  C_3
REMARK    2  A    between atoms: C_7  and  C_8
REMARK    3  A    between atoms: N_10  and  C_11
REMARK    4  A    between atoms: C_11  and  C_12
REMARK    5  A    between atoms: C_15  and  C_16
REMARK    6  A    between atoms: C_16  and  N_17
REMARK    7  A    between atoms: C_18  and  C_20
REMARK                            x       y       z     vdW  Elec       q    Type
REMARK                         _______ _______ _______ _____ _____    ______ ____
ROOT
ATOM      1  C   UNL     1       3.956   6.138   1.299  0.00  0.00    +0.000 A 
ATOM      2  C   UNL     1       5.104   6.759   1.814  0.00  0.00    +0.000 A 
ATOM      3  C   UNL     1       5.000   7.839   2.704  0.00  0.00    +0.000 A 
ATOM      4  C   UNL     1       3.747   8.310   3.119  0.00  0.00    +0.000 A 
ATOM      5  C   UNL     1       2.601   7.705   2.585  0.00  0.00    +0.000 A 
ATOM      6  C   UNL     1       2.704   6.623   1.700  0.00  0.00    +0.000 A 
ENDROOT
BRANCH   1   7
ATOM      7  C   UNL     1       4.068   4.993   0.328  0.00  0.00    +0.000 C 
BRANCH   7  10
ATOM      8  C   UNL     1       2.973   2.958   1.167  0.00  0.00    +0.000 C 
ATOM      9  O   UNL     1       1.860   3.365   0.840  0.00  0.00    +0.000 OA
ATOM     10  N   UNL     1       4.117   3.697   0.977  0.00  0.00    +0.000 N 
ATOM     11  H   UNL     1       4.994   3.393   1.375  0.00  0.00    +0.000 HD
BRANCH   8  16
ATOM     12  C   UNL     1       1.848   0.806   1.867  0.00  0.00    +0.000 C 
ATOM     13  C   UNL     1       2.278  -0.657   1.968  0.00  0.00    +0.000 C 
ATOM     14  C   UNL     1       3.681  -0.733   1.366  0.00  0.00    +0.000 C 
ATOM     15  C   UNL     1       4.045   0.681   0.933  0.00  0.00    +0.000 C 
ATOM     16  C   UNL     1       3.173   1.590   1.792  0.00  0.00    +0.000 C 
BRANCH  12  18
ATOM     17  N   UNL     1       0.392   1.602   4.099  0.00  0.00    +0.000 NA
ATOM     18  C   UNL     1       1.052   1.241   3.087  0.00  0.00    +0.000 C 
ENDBRANCH  12  18
ENDBRANCH   8  16
ENDBRANCH   7  10
ENDBRANCH   1   7
BRANCH   4  19
ATOM     19  C   UNL     1       3.617   9.435   4.123  0.00  0.00    +0.000 C 
BRANCH  19  20
ATOM     20  N   UNL     1       3.568  10.729   3.490  0.00  0.00    +0.000 N 
ATOM     21  C   UNL     1       3.461  11.893   4.212  0.00  0.00    +0.000 C 
ATOM     22  O   UNL     1       3.433  11.908   5.441  0.00  0.00    +0.000 OA
ATOM     23  H   UNL     1       3.273  10.736   2.517  0.00  0.00    +0.000 HD
BRANCH  21  24
ATOM     24  C   UNL     1       3.438  13.133   3.424  0.00  0.00    +0.000 A 
ATOM     25  C   UNL     1       3.899  14.322   3.972  0.00  0.00    +0.000 A 
ATOM     26  S   UNL     1       3.841  15.640   2.885  0.00  0.00    +0.000 S 
ATOM     27  C   UNL     1       3.154  14.678   1.663  0.00  0.00    +0.000 A 
ATOM     28  N   UNL     1       2.819  15.202   0.454  0.00  0.00    +0.000 NA
ATOM     29  C   UNL     1       2.285  14.360  -0.366  0.00  0.00    +0.000 A 
ATOM     30  N   UNL     1       2.063  13.038  -0.093  0.00  0.00    +0.000 N 
ATOM     31  C   UNL     1       2.414  12.454   1.102  0.00  0.00    +0.000 A 
ATOM     32  O   UNL     1       2.255  11.254   1.290  0.00  0.00    +0.000 OA
ATOM     33  C   UNL     1       2.996  13.363   2.070  0.00  0.00    +0.000 A 
ATOM     34  H   UNL     1       1.659  12.420  -0.782  0.00  0.00    +0.000 HD
ENDBRANCH  21  24
ENDBRANCH  19  20
ENDBRANCH   4  19
TORSDOF 7
