REMARK  Name = 
REMARK  11 active torsions:
REMARK  status: ('A' for Active; 'I' for Inactive)
REMARK    1  A    between atoms: N_1  and  CA_2
REMARK    2  A    between atoms: CA_2  and  C_3
REMARK    3  A    between atoms: CA_2  and  C_5
REMARK    4  A    between atoms: C_3  and  O_4
REMARK    5  A    between atoms: C_5  and  C_6
REMARK    6  A    between atoms: C_6  and  N_7
REMARK    7  A    between atoms: C_6  and  C_14
REMARK    8  A    between atoms: N_7  and  C_8
REMARK    9  A    between atoms: C_17  and  C_18
REMARK   10  A    between atoms: C_18  and  N_19
REMARK   11  A    between atoms: C_20  and  C_22
REMARK                            x       y       z     vdW  Elec       q    Type
REMARK                         _______ _______ _______ _____ _____    ______ ____
ROOT
ATOM      1  C   UNL     1       5.147  -2.432   1.758  0.00  0.00    +0.000 A 
ATOM      2  C   UNL     1       5.712  -2.307   3.034  0.00  0.00    +0.000 A 
ATOM      3  C   UNL     1       6.007  -3.428   3.796  0.00  0.00    +0.000 A 
ATOM      4  C   UNL     1       5.687  -4.675   3.286  0.00  0.00    +0.000 A 
ATOM      5  N   UNL     1       5.199  -4.850   2.031  0.00  0.00    +0.000 NA
ATOM      6  C   UNL     1       4.951  -3.735   1.299  0.00  0.00    +0.000 A 
ENDROOT
BRANCH   1   7
ATOM      7  C   UNL     1       4.604  -1.256   0.962  0.00  0.00    +0.000 C 
BRANCH   7   8
ATOM      8  N   UNL     1       3.138  -1.388   0.711  0.00  0.00    +0.000 NA
ATOM      9  H   UNL     1       2.873  -0.689   0.015  0.00  0.00    +0.000 HD
BRANCH   8  10
ATOM     10  C   UNL     1       2.210  -1.288   1.862  0.00  0.00    +0.000 C 
ATOM     11  C   UNL     1       2.359  -2.431   2.880  0.00  0.00    +0.000 C 
ATOM     12  C   UNL     1       1.315  -2.434   3.982  0.00  0.00    +0.000 C 
ATOM     13  C   UNL     1      -0.082  -2.458   3.399  0.00  0.00    +0.000 C 
ATOM     14  C   UNL     1      -0.279  -1.279   2.454  0.00  0.00    +0.000 C 
ATOM     15  C   UNL     1       0.760  -1.272   1.327  0.00  0.00    +0.000 C 
ENDBRANCH   8  10
ENDBRANCH   7   8
BRANCH   7  16
ATOM     16  C   UNL     1       4.936   0.167   1.487  0.00  0.00    +0.000 C 
BRANCH  16  17
ATOM     17  CA  UNL     1       6.432   0.528   1.662  0.00  0.00    +0.000 C 
BRANCH  17  18
ATOM     18  N   UNL     1       6.511   1.897   2.223  0.00  0.00    +0.000 NA
ATOM     19  H1  UNL     1       6.054   1.900   3.137  0.00  0.00    +0.000 HD
ATOM     20  H2  UNL     1       5.950   2.528   1.651  0.00  0.00    +0.000 HD
ENDBRANCH  17  18
BRANCH  17  21
ATOM     21  C   UNL     1       7.269   0.429   0.380  0.00  0.00    +0.000 C 
BRANCH  21  22
ATOM     22  O   UNL     1       6.800   1.355  -0.593  0.00  0.00    +0.000 OA
ATOM     23  H   UNL     1       6.998   2.231  -0.214  0.00  0.00    +0.000 HD
ENDBRANCH  21  22
ENDBRANCH  17  21
ENDBRANCH  16  17
ENDBRANCH   7  16
ENDBRANCH   1   7
BRANCH   4  24
ATOM     24  C   UNL     1       5.850  -5.887   4.163  0.00  0.00    +0.000 C 
BRANCH  24  25
ATOM     25  N   UNL     1       7.149  -6.487   3.997  0.00  0.00    +0.000 N 
ATOM     26  C   UNL     1       8.210  -6.166   4.798  0.00  0.00    +0.000 C 
ATOM     27  O   UNL     1       8.105  -5.396   5.750  0.00  0.00    +0.000 OA
ATOM     28  H   UNL     1       7.317  -6.892   3.080  0.00  0.00    +0.000 HD
BRANCH  26  29
ATOM     29  C   UNL     1       9.472  -6.852   4.503  0.00  0.00    +0.000 A 
ATOM     30  C   UNL     1      10.419  -7.004   5.506  0.00  0.00    +0.000 A 
ATOM     31  S   UNL     1      11.803  -7.866   5.013  0.00  0.00    +0.000 S 
ATOM     32  C   UNL     1      11.207  -8.024   3.426  0.00  0.00    +0.000 A 
ATOM     33  N   UNL     1      11.935  -8.655   2.466  0.00  0.00    +0.000 NA
ATOM     34  C   UNL     1      11.374  -8.678   1.304  0.00  0.00    +0.000 A 
ATOM     35  N   UNL     1      10.149  -8.138   1.014  0.00  0.00    +0.000 N 
ATOM     36  C   UNL     1       9.355  -7.538   1.963  0.00  0.00    +0.000 A 
ATOM     37  O   UNL     1       8.228  -7.150   1.688  0.00  0.00    +0.000 OA
ATOM     38  C   UNL     1       9.955  -7.453   3.282  0.00  0.00    +0.000 A 
ATOM     39  H   UNL     1       9.755  -8.211   0.088  0.00  0.00    +0.000 HD
ENDBRANCH  26  29
ENDBRANCH  24  25
ENDBRANCH   4  24
TORSDOF 11
