REMARK  Name = 
REMARK  11 active torsions:
REMARK  status: ('A' for Active; 'I' for Inactive)
REMARK    1  A    between atoms: C_1  and  C_2
REMARK    2  A    between atoms: C_2  and  O_3
REMARK    3  A    between atoms: O_3  and  C_4
REMARK    4  A    between atoms: C_4  and  C_5
REMARK    5  A    between atoms: C_5  and  N_6
REMARK    6  A    between atoms: C_5  and  C_28
REMARK    7  A    between atoms: N_6  and  C_7
REMARK    8  A    between atoms: C_7  and  C_8
REMARK    9  A    between atoms: C_11  and  C_12
REMARK   10  A    between atoms: C_12  and  N_13
REMARK   11  A    between atoms: C_14  and  C_16
REMARK                            x       y       z     vdW  Elec       q    Type
REMARK                         _______ _______ _______ _____ _____    ______ ____
ROOT
ATOM      1  C   UNL     1       2.458  -3.779   3.198  0.00  0.00    +0.000 C 
ATOM      2  C   UNL     1       2.665  -4.123   4.678  0.00  0.00    +0.000 C 
ATOM      3  C   UNL     1       2.148  -5.514   5.035  0.00  0.00    +0.000 C 
ATOM      4  C   UNL     1       2.739  -6.616   4.135  0.00  0.00    +0.000 C 
ATOM      5  C   UNL     1       2.636  -6.262   2.642  0.00  0.00    +0.000 C 
ATOM      6  C   UNL     1       3.152  -4.852   2.339  0.00  0.00    +0.000 C 
ENDROOT
BRANCH   1   7
ATOM      7  C   UNL     1       0.976  -3.662   2.778  0.00  0.00    +0.000 C 
BRANCH   7   8
ATOM      8  N   UNL     1       0.231  -2.647   3.529  0.00  0.00    +0.000 NA
ATOM      9  H   UNL     1       0.188  -2.941   4.508  0.00  0.00    +0.000 HD
BRANCH   8  10
ATOM     10  C   UNL     1      -1.195  -2.562   3.083  0.00  0.00    +0.000 C 
BRANCH  10  11
ATOM     11  C   UNL     1      -1.355  -2.125   1.624  0.00  0.00    +0.000 A 
ATOM     12  C   UNL     1      -0.724  -0.967   1.170  0.00  0.00    +0.000 A 
ATOM     13  C   UNL     1      -0.840  -0.615  -0.172  0.00  0.00    +0.000 A 
ATOM     14  C   UNL     1      -1.589  -1.417  -1.025  0.00  0.00    +0.000 A 
ATOM     15  C   UNL     1      -2.192  -2.544  -0.499  0.00  0.00    +0.000 A 
ATOM     16  N   UNL     1      -2.091  -2.913   0.795  0.00  0.00    +0.000 NA
ENDBRANCH  10  11
BRANCH  10  17
ATOM     17  C   UNL     1      -2.008  -3.854   3.373  0.00  0.00    +0.000 C 
BRANCH  17  18
ATOM     18  O   UNL     1      -1.903  -4.240   4.755  0.00  0.00    +0.000 OA
BRANCH  18  20
ATOM     19  C   UNL     1      -2.623  -5.765   6.466  0.00  0.00    +0.000 C 
ATOM     20  C   UNL     1      -2.669  -5.424   4.991  0.00  0.00    +0.000 C 
ENDBRANCH  18  20
ENDBRANCH  17  18
ENDBRANCH  10  17
ENDBRANCH   8  10
ENDBRANCH   7   8
ENDBRANCH   1   7
BRANCH   4  21
ATOM     21  C   UNL     1       2.066  -7.976   4.386  0.00  0.00    +0.000 C 
BRANCH  21  22
ATOM     22  N   UNL     1       2.259  -8.437   5.744  0.00  0.00    +0.000 N 
ATOM     23  C   UNL     1       2.388  -9.767   6.054  0.00  0.00    +0.000 C 
ATOM     24  O   UNL     1       2.407 -10.644   5.193  0.00  0.00    +0.000 OA
ATOM     25  H   UNL     1       1.976  -7.806   6.487  0.00  0.00    +0.000 HD
BRANCH  23  26
ATOM     26  C   UNL     1       2.579 -10.090   7.472  0.00  0.00    +0.000 A 
ATOM     27  C   UNL     1       3.229 -11.265   7.820  0.00  0.00    +0.000 A 
ATOM     28  S   UNL     1       3.411 -11.473   9.502  0.00  0.00    +0.000 S 
ATOM     29  C   UNL     1       2.584 -10.024   9.826  0.00  0.00    +0.000 A 
ATOM     30  N   UNL     1       2.367  -9.614  11.105  0.00  0.00    +0.000 NA
ATOM     31  C   UNL     1       1.703  -8.511  11.205  0.00  0.00    +0.000 A 
ATOM     32  N   UNL     1       1.244  -7.775  10.144  0.00  0.00    +0.000 N 
ATOM     33  C   UNL     1       1.469  -8.132   8.836  0.00  0.00    +0.000 A 
ATOM     34  O   UNL     1       1.090  -7.425   7.908  0.00  0.00    +0.000 OA
ATOM     35  C   UNL     1       2.195  -9.376   8.666  0.00  0.00    +0.000 A 
ATOM     36  H   UNL     1       0.741  -6.914  10.295  0.00  0.00    +0.000 HD
ENDBRANCH  23  26
ENDBRANCH  21  22
ENDBRANCH   4  21
TORSDOF 10
