REMARK  Name = 
REMARK  5 active torsions:
REMARK  status: ('A' for Active; 'I' for Inactive)
REMARK    1  A    between atoms: C_2  and  C_4
REMARK    2  A    between atoms: C_7  and  S_8
REMARK    3  A    between atoms: S_8  and  C_9
REMARK    4  A    between atoms: C_9  and  C_10
REMARK    5  A    between atoms: C_18  and  O_19
REMARK                            x       y       z     vdW  Elec       q    Type
REMARK                         _______ _______ _______ _____ _____    ______ ____
ROOT
ATOM      1  C   UNL     1       5.918  -4.608   6.079  0.00  0.00    +0.000 A 
ATOM      2  C   UNL     1       6.578  -3.799   6.979  0.00  0.00    +0.000 A 
ATOM      3  C   UNL     1       7.157  -4.437   8.045  0.00  0.00    +0.000 A 
ATOM      4  N   UNL     1       7.084  -5.763   8.244  0.00  0.00    +0.000 NA
ATOM      5  C   UNL     1       6.417  -6.498   7.343  0.00  0.00    +0.000 A 
ATOM      6  N   UNL     1       6.321  -7.854   7.538  0.00  0.00    +0.000 N 
ATOM      7  C   UNL     1       5.665  -8.706   6.563  0.00  0.00    +0.000 C 
ATOM      8  C   UNL     1       6.630  -9.817   6.155  0.00  0.00    +0.000 C 
ATOM      9  C   UNL     1       7.204 -10.554   7.367  0.00  0.00    +0.000 C 
ATOM     10  C   UNL     1       7.772  -9.599   8.418  0.00  0.00    +0.000 C 
ATOM     11  C   UNL     1       6.800  -8.472   8.764  0.00  0.00    +0.000 C 
ATOM     12  N   UNL     1       5.836  -5.948   6.260  0.00  0.00    +0.000 NA
ENDROOT
BRANCH   9  13
ATOM     13  O   UNL     1       6.215 -11.407   7.946  0.00  0.00    +0.000 OA
ATOM     14  H   UNL     1       5.479 -10.862   8.268  0.00  0.00    +0.000 HD
ENDBRANCH   9  13
BRANCH   1  15
ATOM     15  C   UNL     1       5.171  -4.026   4.897  0.00  0.00    +0.000 C 
BRANCH  15  16
ATOM     16  S   UNL     1       6.220  -2.980   3.826  0.00  0.00    +0.000 S 
BRANCH  16  20
ATOM     17  C   UNL     1       3.623  -1.557   0.288  0.00  0.00    +0.000 A 
ATOM     18  C   UNL     1       3.012  -2.292   1.310  0.00  0.00    +0.000 A 
ATOM     19  C   UNL     1       3.761  -2.729   2.417  0.00  0.00    +0.000 A 
ATOM     20  C   UNL     1       5.127  -2.439   2.515  0.00  0.00    +0.000 A 
ATOM     21  C   UNL     1       5.719  -1.677   1.497  0.00  0.00    +0.000 A 
ATOM     22  C   UNL     1       4.980  -1.246   0.390  0.00  0.00    +0.000 A 
BRANCH  17  24
ATOM     23  N   UNL     1       1.546  -0.953  -0.846  0.00  0.00    +0.000 N 
ATOM     24  C   UNL     1       2.898  -1.141  -0.942  0.00  0.00    +0.000 C 
ATOM     25  O   UNL     1       3.485  -0.947  -1.997  0.00  0.00    +0.000 OA
ATOM     26  H   UNL     1       1.094  -0.580  -1.673  0.00  0.00    +0.000 HD
ATOM     27  H   UNL     1       1.076  -0.839   0.037  0.00  0.00    +0.000 HD
ENDBRANCH  17  24
ENDBRANCH  16  20
ENDBRANCH  15  16
ENDBRANCH   1  15
TORSDOF 5
