REMARK  Name = 
REMARK  2 active torsions:
REMARK  status: ('A' for Active; 'I' for Inactive)
REMARK    1  A    between atoms: N_10  and  C_11
REMARK    2  A    between atoms: C_11  and  C_12
REMARK                            x       y       z     vdW  Elec       q    Type
REMARK                         _______ _______ _______ _____ _____    ______ ____
ROOT
ATOM      1  N   UNL     1       1.005  -0.041   0.081  0.00  0.00    +0.000 NA
ATOM      2  C   UNL     1       2.275   0.134  -0.009  0.00  0.00    +0.000 C 
ATOM      3  N   UNL     1       2.938  -0.086  -1.166  0.00  0.00    +0.000 N 
ATOM      4  N   UNL     1       3.073   0.467   1.038  0.00  0.00    +0.000 N 
ATOM      5  C   UNL     1       2.676   0.157   2.431  0.00  0.00    +0.000 C 
ATOM      6  C   UNL     1       3.780  -0.687   3.120  0.00  0.00    +0.000 C 
ATOM      7  C   UNL     1       5.110  -0.076   2.854  0.00  0.00    +0.000 A 
ATOM      8  N   UNL     1       6.263  -0.331   3.536  0.00  0.00    +0.000 NA
ATOM      9  C   UNL     1       7.171   0.419   2.944  0.00  0.00    +0.000 A 
ATOM     10  N   UNL     1       6.648   1.136   1.895  0.00  0.00    +0.000 N 
ATOM     11  C   UNL     1       5.320   0.830   1.840  0.00  0.00    +0.000 A 
ATOM     12  C   UNL     1       4.263   1.326   0.925  0.00  0.00    +0.000 C 
ATOM     13  H   UNL     1       0.627  -0.281  -0.835  0.00  0.00    +0.000 HD
ATOM     14  H   UNL     1       2.417  -0.622  -1.846  0.00  0.00    +0.000 HD
ATOM     15  H   UNL     1       3.835  -0.529  -0.994  0.00  0.00    +0.000 HD
ENDROOT
BRANCH  10  16
ATOM     16  C   UNL     1       7.369   2.111   1.095  0.00  0.00    +0.000 C 
BRANCH  16  17
ATOM     17  C   UNL     1       7.946   1.518  -0.169  0.00  0.00    +0.000 A 
ATOM     18  C   UNL     1       8.936   0.522  -0.116  0.00  0.00    +0.000 A 
ATOM     19  C   UNL     1       9.509   0.018  -1.287  0.00  0.00    +0.000 A 
ATOM     20  C   UNL     1       9.106   0.507  -2.528  0.00  0.00    +0.000 A 
ATOM     21  C   UNL     1       8.124   1.493  -2.594  0.00  0.00    +0.000 A 
ATOM     22 CL   UNL     1       7.632   2.105  -4.124  0.00  0.00    +0.000 Cl
ATOM     23  C   UNL     1       7.545   1.998  -1.426  0.00  0.00    +0.000 A 
ENDBRANCH  16  17
ENDBRANCH  10  16
TORSDOF 2
