REMARK  Name = 
REMARK  9 active torsions:
REMARK  status: ('A' for Active; 'I' for Inactive)
REMARK    1  A    between atoms: C_1  and  C_2
REMARK    2  A    between atoms: C_2  and  N_3
REMARK    3  A    between atoms: N_6  and  C_7
REMARK    4  A    between atoms: C_11  and  C_12
REMARK    5  A    between atoms: C_12  and  C_13
REMARK    6  A    between atoms: C_12  and  C_14
REMARK    7  A    between atoms: C_12  and  C_15
REMARK    8  A    between atoms: C_15  and  N_16
REMARK    9  A    between atoms: C_20  and  C_21
REMARK                            x       y       z     vdW  Elec       q    Type
REMARK                         _______ _______ _______ _____ _____    ______ ____
ROOT
ATOM      1  C   UNL     1      -3.344  -2.013   5.369  0.00  0.00    +0.000 C 
ATOM      2  C   UNL     1      -4.255  -3.241   5.602  0.00  0.00    +0.000 C 
ATOM      3  C   UNL     1      -3.311  -1.194   6.683  0.00  0.00    +0.000 C 
ENDROOT
BRANCH   1   8
ATOM      4  C   UNL     1       0.110  -2.346   3.620  0.00  0.00    +0.000 A 
ATOM      5  C   UNL     1       0.793  -3.139   4.538  0.00  0.00    +0.000 A 
ATOM      6  C   UNL     1       0.154  -3.611   5.689  0.00  0.00    +0.000 A 
ATOM      7  C   UNL     1      -1.177  -3.275   5.952  0.00  0.00    +0.000 A 
ATOM      8  C   UNL     1      -1.912  -2.495   5.049  0.00  0.00    +0.000 A 
ATOM      9  C   UNL     1      -1.251  -2.109   3.873  0.00  0.00    +0.000 A 
BRANCH   4  13
ATOM     10  N   UNL     1       2.763  -0.004   1.307  0.00  0.00    +0.000 NA
ATOM     11  C   UNL     1       3.049  -1.388   1.770  0.00  0.00    +0.000 C 
ATOM     12  C   UNL     1       1.830  -2.339   1.796  0.00  0.00    +0.000 C 
ATOM     13  N   UNL     1       0.706  -1.749   2.524  0.00  0.00    +0.000 N 
ATOM     14  C   UNL     1       0.402  -0.327   2.254  0.00  0.00    +0.000 C 
ATOM     15  C   UNL     1       1.686   0.530   2.172  0.00  0.00    +0.000 C 
BRANCH  10  17
ATOM     16  C   UNL     1       2.182   1.400  -0.699  0.00  0.00    +0.000 C 
ATOM     17  C   UNL     1       2.431   0.010  -0.125  0.00  0.00    +0.000 C 
ENDBRANCH  10  17
ENDBRANCH   4  13
ENDBRANCH   1   8
BRANCH   1  18
ATOM     18  C   UNL     1      -4.032  -1.165   4.230  0.00  0.00    +0.000 C 
BRANCH  18  19
ATOM     19  N   UNL     1      -3.310   0.067   3.906  0.00  0.00    +0.000 N 
ATOM     20  C   UNL     1      -3.649   1.206   4.606  0.00  0.00    +0.000 A 
ATOM     21  N   UNL     1      -2.674   2.113   4.783  0.00  0.00    +0.000 NA
ATOM     22  C   UNL     1      -2.964   3.188   5.550  0.00  0.00    +0.000 A 
ATOM     23  C   UNL     1      -4.215   3.428   6.064  0.00  0.00    +0.000 A 
ATOM     24  C   UNL     1      -5.155   2.469   5.783  0.00  0.00    +0.000 A 
ATOM     25  N   UNL     1      -4.892   1.360   5.065  0.00  0.00    +0.000 NA
ATOM     26  H   UNL     1      -3.346   0.310   2.923  0.00  0.00    +0.000 HD
BRANCH  23  27
ATOM     27  C   UNL     1      -4.482   4.618   6.881  0.00  0.00    +0.000 C 
ATOM     28  N   UNL     1      -5.769   5.076   6.933  0.00  0.00    +0.000 N 
ATOM     29  O   UNL     1      -3.579   5.194   7.471  0.00  0.00    +0.000 OA
ATOM     30  H   UNL     1      -6.493   4.789   6.289  0.00  0.00    +0.000 HD
ATOM     31  H   UNL     1      -5.912   5.948   7.428  0.00  0.00    +0.000 HD
ENDBRANCH  23  27
ENDBRANCH  18  19
ENDBRANCH   1  18
TORSDOF 6
