REMARK  Name = 
REMARK  5 active torsions:
REMARK  status: ('A' for Active; 'I' for Inactive)
REMARK    1  A    between atoms: C_2  and  C_3
REMARK    2  A    between atoms: C_8  and  O_9
REMARK    3  A    between atoms: O_9  and  C_10
REMARK    4  A    between atoms: C_10  and  C_11
REMARK    5  A    between atoms: C_15  and  C_16
REMARK                            x       y       z     vdW  Elec       q    Type
REMARK                         _______ _______ _______ _____ _____    ______ ____
ROOT
ATOM      1  C   UNL     1       0.504   5.537   0.836  0.00  0.00    +0.000 A 
ATOM      2  C   UNL     1       1.687   5.697   1.555  0.00  0.00    +0.000 A 
ATOM      3  C   UNL     1       2.096   6.981   1.873  0.00  0.00    +0.000 A 
ATOM      4  N   UNL     1       1.417   8.098   1.530  0.00  0.00    +0.000 NA
ATOM      5  C   UNL     1       0.265   7.950   0.819  0.00  0.00    +0.000 A 
ATOM      6  C   UNL     1      -0.200   6.683   0.450  0.00  0.00    +0.000 A 
ENDROOT
BRANCH   5   7
ATOM      7  C   UNL     1      -0.493   9.180   0.490  0.00  0.00    +0.000 A 
ATOM      8  C   UNL     1      -0.044  10.452   0.850  0.00  0.00    +0.000 A 
ATOM      9  C   UNL     1      -0.823  11.567   0.544  0.00  0.00    +0.000 A 
ATOM     10  C   UNL     1      -2.031  11.393  -0.118  0.00  0.00    +0.000 A 
ATOM     11  C   UNL     1      -2.411  10.106  -0.450  0.00  0.00    +0.000 A 
ATOM     12  N   UNL     1      -1.678   9.009  -0.164  0.00  0.00    +0.000 NA
ENDBRANCH   5   7
BRANCH   1  13
ATOM     13  C   UNL     1      -0.039   4.173   0.499  0.00  0.00    +0.000 C 
BRANCH  13  14
ATOM     14  O   UNL     1       0.454   3.749  -0.772  0.00  0.00    +0.000 OA
BRANCH  14  20
ATOM     15  C   UNL     1      -0.950   0.306  -0.927  0.00  0.00    +0.000 A 
ATOM     16  C   UNL     1      -0.400  -0.107  -2.137  0.00  0.00    +0.000 A 
ATOM     17  C   UNL     1       0.384   0.785  -2.860  0.00  0.00    +0.000 A 
ATOM     18  F   UNL     1       0.914   0.391  -4.025  0.00  0.00    +0.000 F 
ATOM     19  C   UNL     1       0.642   2.068  -2.387  0.00  0.00    +0.000 A 
ATOM     20  C   UNL     1       0.100   2.485  -1.170  0.00  0.00    +0.000 A 
ATOM     21  C   UNL     1      -0.722   1.606  -0.456  0.00  0.00    +0.000 A 
BRANCH  15  23
ATOM     22  N   UNL     1      -2.328  -1.343   0.529  0.00  0.00    +0.000 NA
ATOM     23  C   UNL     1      -1.720  -0.609  -0.133  0.00  0.00    +0.000 C 
ENDBRANCH  15  23
ENDBRANCH  14  20
ENDBRANCH  13  14
ENDBRANCH   1  13
TORSDOF 5
