REMARK  Name = 
REMARK  12 active torsions:
REMARK  status: ('A' for Active; 'I' for Inactive)
REMARK    1  A    between atoms: C_1  and  C_2
REMARK    2  A    between atoms: C_2  and  N_3
REMARK    3  A    between atoms: N_3  and  C_4
REMARK    4  A    between atoms: N_3  and  C_6
REMARK    5  A    between atoms: C_4  and  C_5
REMARK    6  A    between atoms: C_6  and  C_7
REMARK    7  A    between atoms: C_7  and  N_8
REMARK    8  A    between atoms: C_9  and  C_11
REMARK    9  A    between atoms: C_15  and  C_16
REMARK   10  A    between atoms: C_16  and  C_17
REMARK   11  A    between atoms: C_20  and  O_21
REMARK   12  A    between atoms: O_21  and  C_22
REMARK                            x       y       z     vdW  Elec       q    Type
REMARK                         _______ _______ _______ _____ _____    ______ ____
ROOT
ATOM      1  C   UNL     1       8.679   4.060   0.164  0.00  0.00    +0.000 A 
ATOM      2  C   UNL     1       9.375   3.035  -0.625  0.00  0.00    +0.000 A 
ATOM      3  C   UNL     1      10.725   2.973  -0.603  0.00  0.00    +0.000 A 
ATOM      4  N   UNL     1      11.442   3.881   0.178  0.00  0.00    +0.000 N 
ATOM      5  C   UNL     1      12.804   4.089   0.341  0.00  0.00    +0.000 A 
ATOM      6  C   UNL     1      12.896   5.111   1.266  0.00  0.00    +0.000 A 
ATOM      7  N   UNL     1      11.668   5.565   1.645  0.00  0.00    +0.000 NA
ATOM      8  C   UNL     1      10.808   4.832   0.975  0.00  0.00    +0.000 A 
ATOM      9  C   UNL     1       9.387   4.893   0.956  0.00  0.00    +0.000 A 
ENDROOT
BRANCH   1  11
ATOM     10  N   UNL     1       6.616   5.328   0.504  0.00  0.00    +0.000 N 
ATOM     11  C   UNL     1       7.179   4.118   0.162  0.00  0.00    +0.000 C 
ATOM     12  O   UNL     1       6.511   3.139  -0.163  0.00  0.00    +0.000 OA
ATOM     13  H   UNL     1       7.175   6.172   0.522  0.00  0.00    +0.000 HD
BRANCH  10  14
ATOM     14  C   UNL     1       5.176   5.507   0.513  0.00  0.00    +0.000 C 
BRANCH  14  15
ATOM     15  C   UNL     1       4.741   6.930   0.927  0.00  0.00    +0.000 C 
BRANCH  15  16
ATOM     16  N   UNL     1       5.260   8.028   0.072  0.00  0.00    +0.000 NA
BRANCH  16  18
ATOM     17  C   UNL     1       5.331   8.903  -2.309  0.00  0.00    +0.000 C 
ATOM     18  C   UNL     1       4.832   7.847  -1.328  0.00  0.00    +0.000 C 
ENDBRANCH  16  18
BRANCH  16  19
ATOM     19  C   UNL     1       4.905   9.351   0.627  0.00  0.00    +0.000 C 
ATOM     20  C   UNL     1       3.415   9.659   0.780  0.00  0.00    +0.000 C 
ENDBRANCH  16  19
ENDBRANCH  15  16
ENDBRANCH  14  15
ENDBRANCH  10  14
ENDBRANCH   1  11
BRANCH   5  21
ATOM     21  C   UNL     1      13.901   3.377  -0.381  0.00  0.00    +0.000 C 
BRANCH  21  22
ATOM     22  C   UNL     1      14.414   2.171   0.370  0.00  0.00    +0.000 A 
ATOM     23  C   UNL     1      13.893   0.901   0.097  0.00  0.00    +0.000 A 
ATOM     24  C   UNL     1      14.250  -0.201   0.878  0.00  0.00    +0.000 A 
ATOM     25  C   UNL     1      15.145  -0.055   1.938  0.00  0.00    +0.000 A 
ATOM     26  C   UNL     1      15.730   1.193   2.164  0.00  0.00    +0.000 A 
ATOM     27  C   UNL     1      15.368   2.300   1.389  0.00  0.00    +0.000 A 
BRANCH  25  28
ATOM     28  O   UNL     1      15.507  -1.038   2.816  0.00  0.00    +0.000 OA
ATOM     29  C   UNL     1      14.819  -2.278   2.696  0.00  0.00    +0.000 C 
ENDBRANCH  25  28
ENDBRANCH  21  22
ENDBRANCH   5  21
TORSDOF 9
