REMARK  Name = 
REMARK  10 active torsions:
REMARK  status: ('A' for Active; 'I' for Inactive)
REMARK    1  A    between atoms: C_2  and  C_23
REMARK    2  A    between atoms: N_3  and  C_4
REMARK    3  A    between atoms: C_4  and  C_5
REMARK    4  A    between atoms: C_8  and  C_9
REMARK    5  A    between atoms: C_9  and  C_10
REMARK    6  A    between atoms: C_10  and  O_11
REMARK    7  A    between atoms: C_10  and  C_12
REMARK    8  A    between atoms: C_12  and  N_13
REMARK    9  A    between atoms: C_17  and  C_18
REMARK   10  A    between atoms: C_18  and  O_19
REMARK                            x       y       z     vdW  Elec       q    Type
REMARK                         _______ _______ _______ _____ _____    ______ ____
ROOT
ATOM      1  C   UNL     1       3.072   3.251   1.668  0.00  0.00    +0.000 A 
ATOM      2  C   UNL     1       2.782   4.589   1.369  0.00  0.00    +0.000 A 
ATOM      3  C   UNL     1       3.601   5.614   1.839  0.00  0.00    +0.000 A 
ATOM      4  C   UNL     1       4.735   5.321   2.606  0.00  0.00    +0.000 A 
ATOM      5  C   UNL     1       5.058   3.981   2.858  0.00  0.00    +0.000 A 
ATOM      6  C   UNL     1       4.233   2.954   2.393  0.00  0.00    +0.000 A 
ENDROOT
BRANCH   1   7
ATOM      7  C   UNL     1       2.158   2.156   1.189  0.00  0.00    +0.000 C 
BRANCH   7  10
ATOM      8  O   UNL     1       0.947   0.064  -0.147  0.00  0.00    +0.000 OA
ATOM      9  C   UNL     1       1.823   0.694  -0.734  0.00  0.00    +0.000 C 
ATOM     10  N   UNL     1       2.527   1.701  -0.125  0.00  0.00    +0.000 N 
ATOM     11  H   UNL     1       3.083   2.334  -0.690  0.00  0.00    +0.000 HD
BRANCH   9  12
ATOM     12  C   UNL     1       2.200   0.376  -2.114  0.00  0.00    +0.000 A 
ATOM     13  C   UNL     1       1.957  -0.894  -2.620  0.00  0.00    +0.000 A 
ATOM     14  S   UNL     1       2.469  -1.093  -4.234  0.00  0.00    +0.000 S 
ATOM     15  C   UNL     1       2.984   0.526  -4.328  0.00  0.00    +0.000 A 
ATOM     16  N   UNL     1       3.507   1.027  -5.482  0.00  0.00    +0.000 NA
ATOM     17  C   UNL     1       3.825   2.276  -5.421  0.00  0.00    +0.000 A 
ATOM     18  N   UNL     1       3.679   3.068  -4.311  0.00  0.00    +0.000 N 
ATOM     19  C   UNL     1       3.192   2.595  -3.117  0.00  0.00    +0.000 A 
ATOM     20  O   UNL     1       3.125   3.316  -2.126  0.00  0.00    +0.000 OA
ATOM     21  C   UNL     1       2.798   1.201  -3.137  0.00  0.00    +0.000 A 
ATOM     22  H   UNL     1       3.962   4.037  -4.325  0.00  0.00    +0.000 HD
ENDBRANCH   9  12
ENDBRANCH   7  10
ENDBRANCH   1   7
BRANCH   4  23
ATOM     23  C   UNL     1       5.565   6.444   3.186  0.00  0.00    +0.000 C 
BRANCH  23  24
ATOM     24  C   UNL     1       5.121   6.901   4.592  0.00  0.00    +0.000 C 
BRANCH  24  25
ATOM     25  O   UNL     1       3.766   7.369   4.580  0.00  0.00    +0.000 OA
ATOM     26  H   UNL     1       3.205   6.611   4.331  0.00  0.00    +0.000 HD
ENDBRANCH  24  25
BRANCH  24  27
ATOM     27  C   UNL     1       5.301   5.828   5.696  0.00  0.00    +0.000 C 
BRANCH  27  28
ATOM     28  N   UNL     1       6.670   5.285   5.788  0.00  0.00    +0.000 NA
ATOM     29  C   UNL     1       7.626   6.314   6.231  0.00  0.00    +0.000 C 
ATOM     30  C   UNL     1       9.055   5.779   6.264  0.00  0.00    +0.000 C 
ATOM     31  C   UNL     1       9.156   4.524   7.122  0.00  0.00    +0.000 C 
ATOM     32  C   UNL     1       8.116   3.474   6.702  0.00  0.00    +0.000 C 
ATOM     33  C   UNL     1       6.714   4.110   6.673  0.00  0.00    +0.000 C 
BRANCH  32  34
ATOM     34  C   UNL     1       8.450   2.816   5.354  0.00  0.00    +0.000 C 
BRANCH  34  35
ATOM     35  O   UNL     1       9.734   2.202   5.389  0.00  0.00    +0.000 OA
ATOM     36  H   UNL     1       9.725   1.539   6.099  0.00  0.00    +0.000 HD
ENDBRANCH  34  35
ENDBRANCH  32  34
ENDBRANCH  27  28
ENDBRANCH  24  27
ENDBRANCH  23  24
ENDBRANCH   4  23
TORSDOF 10
