REMARK  Name = 
REMARK  10 active torsions:
REMARK  status: ('A' for Active; 'I' for Inactive)
REMARK    1  A    between atoms: C_2  and  C_23
REMARK    2  A    between atoms: N_3  and  CA_4
REMARK    3  A    between atoms: CA_4  and  C_5
REMARK    4  A    between atoms: CA_4  and  C_7
REMARK    5  A    between atoms: C_5  and  O_6
REMARK    6  A    between atoms: C_10  and  C_11
REMARK    7  A    between atoms: C_11  and  O_12
REMARK    8  A    between atoms: C_11  and  C_13
REMARK    9  A    between atoms: C_13  and  C_14
REMARK   10  A    between atoms: C_14  and  C_15
REMARK                            x       y       z     vdW  Elec       q    Type
REMARK                         _______ _______ _______ _____ _____    ______ ____
ROOT
ATOM      1  CA  UNL     1       2.383  -1.894   1.617  0.00  0.00    +0.000 C 
ENDROOT
BRANCH   1   2
ATOM      2  C   UNL     1       3.223  -2.729   2.571  0.00  0.00    +0.000 A 
ATOM      3  C   UNL     1       2.947  -4.063   2.861  0.00  0.00    +0.000 A 
ATOM      4  N   UNL     1       3.745  -4.839   3.636  0.00  0.00    +0.000 NA
ATOM      5  C   UNL     1       4.857  -4.240   4.131  0.00  0.00    +0.000 A 
ATOM      6  C   UNL     1       5.098  -2.891   3.920  0.00  0.00    +0.000 A 
ATOM      7  N   UNL     1       4.299  -2.119   3.142  0.00  0.00    +0.000 NA
BRANCH   5   8
ATOM      8  C   UNL     1       5.844  -5.119   4.861  0.00  0.00    +0.000 C 
BRANCH   8   9
ATOM      9  O   UNL     1       5.184  -5.717   5.982  0.00  0.00    +0.000 OA
ATOM     10  H   UNL     1       4.295  -5.964   5.657  0.00  0.00    +0.000 HD
ENDBRANCH   8   9
BRANCH   8  11
ATOM     11  C   UNL     1       6.364  -6.261   3.971  0.00  0.00    +0.000 C 
BRANCH  11  12
ATOM     12  C   UNL     1       7.111  -5.771   2.726  0.00  0.00    +0.000 C 
BRANCH  12  13
ATOM     13  C   UNL     1       7.616  -6.918   1.887  0.00  0.00    +0.000 A 
ATOM     14  C   UNL     1       6.845  -7.443   0.847  0.00  0.00    +0.000 A 
ATOM     15  C   UNL     1       7.356  -8.498   0.104  0.00  0.00    +0.000 A 
ATOM     16  N   UNL     1       8.562  -9.060   0.330  0.00  0.00    +0.000 NA
ATOM     17  C   UNL     1       9.286  -8.546   1.346  0.00  0.00    +0.000 A 
ATOM     18  C   UNL     1       8.864  -7.493   2.143  0.00  0.00    +0.000 A 
ENDBRANCH  12  13
ENDBRANCH  11  12
ENDBRANCH   8  11
ENDBRANCH   5   8
ENDBRANCH   1   2
BRANCH   1  21
ATOM     19  O   UNL     1       1.341   0.589   0.839  0.00  0.00    +0.000 OA
ATOM     20  C   UNL     1       0.862   0.045   1.829  0.00  0.00    +0.000 C 
ATOM     21  N   UNL     1       1.365  -1.130   2.331  0.00  0.00    +0.000 N 
ATOM     22  H   UNL     1       0.888  -1.598   3.091  0.00  0.00    +0.000 HD
BRANCH  20  23
ATOM     23  C   UNL     1      -0.285   0.617   2.540  0.00  0.00    +0.000 A 
ATOM     24  C   UNL     1      -0.543   1.979   2.479  0.00  0.00    +0.000 A 
ATOM     25  S   UNL     1      -1.943   2.444   3.338  0.00  0.00    +0.000 S 
ATOM     26  C   UNL     1      -2.272   0.834   3.784  0.00  0.00    +0.000 A 
ATOM     27  N   UNL     1      -3.382   0.518   4.505  0.00  0.00    +0.000 NA
ATOM     28  C   UNL     1      -3.521  -0.744   4.742  0.00  0.00    +0.000 A 
ATOM     29  N   UNL     1      -2.646  -1.719   4.338  0.00  0.00    +0.000 N 
ATOM     30  C   UNL     1      -1.507  -1.444   3.617  0.00  0.00    +0.000 A 
ATOM     31  O   UNL     1      -0.731  -2.335   3.277  0.00  0.00    +0.000 OA
ATOM     32  C   UNL     1      -1.312  -0.040   3.311  0.00  0.00    +0.000 A 
ATOM     33  H   UNL     1      -2.809  -2.686   4.570  0.00  0.00    +0.000 HD
ENDBRANCH  20  23
ENDBRANCH   1  21
BRANCH   1  34
ATOM     34  C   UNL     1       1.755  -2.685   0.442  0.00  0.00    +0.000 C 
BRANCH  34  35
ATOM     35  O   UNL     1       0.744  -3.608   0.860  0.00  0.00    +0.000 OA
ATOM     36  H   UNL     1       0.062  -3.101   1.342  0.00  0.00    +0.000 HD
ENDBRANCH  34  35
ENDBRANCH   1  34
TORSDOF 10
