REMARK  Name = 
REMARK  9 active torsions:
REMARK  status: ('A' for Active; 'I' for Inactive)
REMARK    1  A    between atoms: C_1  and  O_2
REMARK    2  A    between atoms: O_2  and  C_3
REMARK    3  A    between atoms: C_8  and  C_9
REMARK    4  A    between atoms: N_11  and  C_12
REMARK    5  A    between atoms: C_12  and  C_13
REMARK    6  A    between atoms: C_16  and  C_17
REMARK    7  A    between atoms: C_17  and  O_18
REMARK    8  A    between atoms: O_18  and  C_19
REMARK    9  A    between atoms: C_19  and  C_20
REMARK                            x       y       z     vdW  Elec       q    Type
REMARK                         _______ _______ _______ _____ _____    ______ ____
ROOT
ATOM      1  C   UNL     1       7.925  -1.551   5.711  0.00  0.00    +0.000 C 
ENDROOT
BRANCH   1   2
ATOM      2  C   UNL     1       7.684  -2.910   6.308  0.00  0.00    +0.000 A 
ATOM      3  C   UNL     1       7.738  -4.061   5.511  0.00  0.00    +0.000 A 
ATOM      4  C   UNL     1       7.599  -5.329   6.083  0.00  0.00    +0.000 A 
ATOM      5  C   UNL     1       7.392  -5.473   7.462  0.00  0.00    +0.000 A 
ATOM      6  C   UNL     1       7.307  -4.320   8.253  0.00  0.00    +0.000 A 
ATOM      7  C   UNL     1       7.446  -3.052   7.681  0.00  0.00    +0.000 A 
BRANCH   5   8
ATOM      8  C   UNL     1       7.255  -6.843   8.077  0.00  0.00    +0.000 C 
BRANCH   8   9
ATOM      9  O   UNL     1       8.441  -7.594   7.837  0.00  0.00    +0.000 OA
BRANCH   9  10
ATOM     10  C   UNL     1       8.361  -8.895   8.430  0.00  0.00    +0.000 C 
BRANCH  10  11
ATOM     11  C   UNL     1       9.618  -9.697   8.166  0.00  0.00    +0.000 A 
ATOM     12  N   UNL     1      10.620  -9.617   9.069  0.00  0.00    +0.000 NA
ATOM     13  C   UNL     1      11.730 -10.330   8.799  0.00  0.00    +0.000 A 
ATOM     14  C   UNL     1      11.874 -11.118   7.683  0.00  0.00    +0.000 A 
ATOM     15  C   UNL     1      10.795 -11.145   6.833  0.00  0.00    +0.000 A 
ATOM     16  N   UNL     1       9.660 -10.454   7.048  0.00  0.00    +0.000 NA
ENDBRANCH  10  11
ENDBRANCH   9  10
ENDBRANCH   8   9
ENDBRANCH   5   8
ENDBRANCH   1   2
BRANCH   1  19
ATOM     17  C   UNL     1       6.799   0.330   4.650  0.00  0.00    +0.000 C 
ATOM     18  O   UNL     1       7.861   0.941   4.556  0.00  0.00    +0.000 OA
ATOM     19  N   UNL     1       6.726  -0.919   5.223  0.00  0.00    +0.000 N 
ATOM     20  H   UNL     1       5.831  -1.396   5.276  0.00  0.00    +0.000 HD
BRANCH  17  26
ATOM     21  C   UNL     1       1.957   0.716   3.503  0.00  0.00    +0.000 A 
ATOM     22  N   UNL     1       1.625  -0.477   4.034  0.00  0.00    +0.000 NA
ATOM     23  C   UNL     1       2.600  -1.199   4.601  0.00  0.00    +0.000 A 
ATOM     24  N   UNL     1       3.898  -0.884   4.706  0.00  0.00    +0.000 NA
ATOM     25  C   UNL     1       4.228   0.324   4.173  0.00  0.00    +0.000 A 
ATOM     26  C   UNL     1       5.549   0.895   4.147  0.00  0.00    +0.000 A 
ATOM     27  C   UNL     1       5.529   2.140   3.540  0.00  0.00    +0.000 A 
ATOM     28  S   UNL     1       3.983   2.606   3.005  0.00  0.00    +0.000 S 
ATOM     29  C   UNL     1       3.279   1.149   3.572  0.00  0.00    +0.000 A 
BRANCH  21  31
ATOM     30  C   UNL     1      -0.278   0.875   2.818  0.00  0.00    +0.000 C 
ATOM     31  O   UNL     1       0.997   1.502   2.897  0.00  0.00    +0.000 OA
ENDBRANCH  21  31
ENDBRANCH  17  26
ENDBRANCH   1  19
TORSDOF 8
