REMARK  Name = 
REMARK  5 active torsions:
REMARK  status: ('A' for Active; 'I' for Inactive)
REMARK    1  A    between atoms: N_1  and  C_2
REMARK    2  A    between atoms: C_2  and  C_3
REMARK    3  A    between atoms: C_6  and  C_7
REMARK    4  A    between atoms: C_7  and  S_8
REMARK    5  A    between atoms: S_8  and  C_9
REMARK                            x       y       z     vdW  Elec       q    Type
REMARK                         _______ _______ _______ _____ _____    ______ ____
ROOT
ATOM      1  C   UNL     1       2.797   1.407  -0.407  0.00  0.00    +0.000 A 
ATOM      2  N   UNL     1       2.107   2.435   0.124  0.00  0.00    +0.000 NA
ATOM      3  C   UNL     1       2.515   3.674  -0.217  0.00  0.00    +0.000 A 
ATOM      4  C   UNL     1       3.583   3.940  -1.052  0.00  0.00    +0.000 A 
ATOM      5  C   UNL     1       4.218   2.816  -1.538  0.00  0.00    +0.000 A 
ATOM      6  N   UNL     1       3.854   1.549  -1.238  0.00  0.00    +0.000 NA
ENDROOT
BRANCH   1   7
ATOM      7  C   UNL     1       2.375  -0.005  -0.029  0.00  0.00    +0.000 C 
BRANCH   7   8
ATOM      8  N   UNL     1       1.949  -0.832  -1.172  0.00  0.00    +0.000 NA
ATOM      9  H   UNL     1       1.854  -1.795  -0.861  0.00  0.00    +0.000 HD
ATOM     10  H   UNL     1       2.707  -0.814  -1.855  0.00  0.00    +0.000 HD
ENDBRANCH   7   8
ENDBRANCH   1   7
BRANCH   4  11
ATOM     11  C   UNL     1       4.012   5.337  -1.397  0.00  0.00    +0.000 C 
BRANCH  11  12
ATOM     12  S   UNL     1       4.606   6.225   0.077  0.00  0.00    +0.000 S 
BRANCH  12  13
ATOM     13  C   UNL     1       4.835   7.856  -0.582  0.00  0.00    +0.000 A 
ATOM     14  N   UNL     1       4.616   8.870   0.275  0.00  0.00    +0.000 NA
ATOM     15  C   UNL     1       4.899  10.108  -0.168  0.00  0.00    +0.000 A 
ATOM     16  C   UNL     1       5.387  10.367  -1.423  0.00  0.00    +0.000 A 
ATOM     17  C   UNL     1       5.564   9.265  -2.225  0.00  0.00    +0.000 A 
ATOM     18  N   UNL     1       5.294   8.001  -1.835  0.00  0.00    +0.000 NA
ENDBRANCH  12  13
ENDBRANCH  11  12
ENDBRANCH   4  11
TORSDOF 5
