REMARK  Name = 
REMARK  5 active torsions:
REMARK  status: ('A' for Active; 'I' for Inactive)
REMARK    1  A    between atoms: C_2  and  C_4
REMARK    2  A    between atoms: C_8  and  O_9
REMARK    3  A    between atoms: O_9  and  C_10
REMARK    4  A    between atoms: C_10  and  C_11
REMARK    5  A    between atoms: C_15  and  C_16
REMARK                            x       y       z     vdW  Elec       q    Type
REMARK                         _______ _______ _______ _____ _____    ______ ____
ROOT
ATOM      1  C   UNL     1       7.207   3.601  -1.121  0.00  0.00    +0.000 C 
ENDROOT
BRANCH   1   2
ATOM      2  C   UNL     1       8.526   3.306  -1.788  0.00  0.00    +0.000 A 
ATOM      3  C   UNL     1       9.476   2.519  -1.149  0.00  0.00    +0.000 A 
ATOM      4  N   UNL     1      10.690   2.262  -1.683  0.00  0.00    +0.000 NA
ATOM      5  C   UNL     1      10.914   2.810  -2.902  0.00  0.00    +0.000 A 
ATOM      6  C   UNL     1       9.982   3.597  -3.576  0.00  0.00    +0.000 A 
ATOM      7  N   UNL     1       8.770   3.850  -3.013  0.00  0.00    +0.000 NA
BRANCH   6   8
ATOM      8  C   UNL     1      10.221   4.197  -4.888  0.00  0.00    +0.000 A 
ATOM      9  C   UNL     1       9.201   4.454  -5.790  0.00  0.00    +0.000 A 
ATOM     10  N   UNL     1       9.373   5.003  -7.016  0.00  0.00    +0.000 NA
ATOM     11  C   UNL     1      10.635   5.313  -7.341  0.00  0.00    +0.000 A 
ATOM     12  N   UNL     1      11.710   5.127  -6.565  0.00  0.00    +0.000 NA
ATOM     13  C   UNL     1      11.470   4.575  -5.354  0.00  0.00    +0.000 A 
ENDBRANCH   6   8
ENDBRANCH   1   2
BRANCH   1  14
ATOM     14  O   UNL     1       6.273   2.560  -1.409  0.00  0.00    +0.000 OA
BRANCH  14  19
ATOM     15  C   UNL     1       2.816   1.683  -0.689  0.00  0.00    +0.000 A 
ATOM     16  C   UNL     1       2.406   2.719   0.158  0.00  0.00    +0.000 A 
ATOM     17  C   UNL     1       3.297   3.743   0.477  0.00  0.00    +0.000 A 
ATOM     18  C   UNL     1       4.597   3.732  -0.036  0.00  0.00    +0.000 A 
ATOM     19  C   UNL     1       5.022   2.691  -0.866  0.00  0.00    +0.000 A 
ATOM     20  C   UNL     1       4.125   1.668  -1.189  0.00  0.00    +0.000 A 
BRANCH  15  22
ATOM     21  N   UNL     1       0.559   0.822  -1.024  0.00  0.00    +0.000 N 
ATOM     22  C   UNL     1       1.903   0.566  -1.048  0.00  0.00    +0.000 C 
ATOM     23  O   UNL     1       2.328  -0.533  -1.379  0.00  0.00    +0.000 OA
ATOM     24  H   UNL     1      -0.041   0.083  -1.367  0.00  0.00    +0.000 HD
ATOM     25  H   UNL     1       0.185   1.759  -1.007  0.00  0.00    +0.000 HD
ENDBRANCH  15  22
ENDBRANCH  14  19
ENDBRANCH   1  14
TORSDOF 5
