REMARK  Name = 
REMARK  4 active torsions:
REMARK  status: ('A' for Active; 'I' for Inactive)
REMARK    1  A    between atoms: N_1  and  C_2
REMARK    2  A    between atoms: C_2  and  C_3
REMARK    3  A    between atoms: C_6  and  C_7
REMARK    4  A    between atoms: C_7  and  N_8
REMARK                            x       y       z     vdW  Elec       q    Type
REMARK                         _______ _______ _______ _____ _____    ______ ____
ROOT
ATOM      1  C   UNL     1       4.292  -5.508  -0.343  0.00  0.00    +0.000 C 
ENDROOT
BRANCH   1   2
ATOM      2  N   UNL     1       3.419  -6.615   0.024  0.00  0.00    +0.000 N 
ATOM      3  C   UNL     1       3.199  -7.012   1.319  0.00  0.00    +0.000 A 
ATOM      4  C   UNL     1       2.209  -7.964   1.311  0.00  0.00    +0.000 A 
ATOM      5  C   UNL     1       1.839  -8.193  -0.041  0.00  0.00    +0.000 A 
ATOM      6  C   UNL     1       0.885  -9.031  -0.656  0.00  0.00    +0.000 A 
ATOM      7  C   UNL     1       0.779  -9.046  -2.050  0.00  0.00    +0.000 A 
ATOM      8  C   UNL     1       1.625  -8.259  -2.818  0.00  0.00    +0.000 A 
ATOM      9  F   UNL     1       1.521  -8.303  -4.154  0.00  0.00    +0.000 F 
ATOM     10  C   UNL     1       2.574  -7.413  -2.241  0.00  0.00    +0.000 A 
ATOM     11  C   UNL     1       2.652  -7.377  -0.839  0.00  0.00    +0.000 A 
ENDBRANCH   1   2
BRANCH   1  15
ATOM     12  C   UNL     1       2.943  -1.313  -0.364  0.00  0.00    +0.000 C 
ATOM     13  C   UNL     1       1.948  -2.400   0.066  0.00  0.00    +0.000 C 
ATOM     14  C   UNL     1       2.403  -3.793  -0.359  0.00  0.00    +0.000 C 
ATOM     15  C   UNL     1       3.804  -4.134   0.172  0.00  0.00    +0.000 C 
ATOM     16  C   UNL     1       4.811  -3.036  -0.211  0.00  0.00    +0.000 C 
ATOM     17  C   UNL     1       4.340  -1.636   0.191  0.00  0.00    +0.000 C 
BRANCH  12  18
ATOM     18  C   UNL     1       2.429   0.064   0.094  0.00  0.00    +0.000 C 
BRANCH  18  19
ATOM     19  N   UNL     1       3.292   1.155  -0.348  0.00  0.00    +0.000 NA
ATOM     20  H   UNL     1       2.895   2.043  -0.045  0.00  0.00    +0.000 HD
ATOM     21  H   UNL     1       3.309   1.184  -1.368  0.00  0.00    +0.000 HD
ENDBRANCH  18  19
ENDBRANCH  12  18
ENDBRANCH   1  15
TORSDOF 4
