REMARK  Name = 
REMARK  7 active torsions:
REMARK  status: ('A' for Active; 'I' for Inactive)
REMARK    1  A    between atoms: C_1  and  C_2
REMARK    2  A    between atoms: C_2  and  C_3
REMARK    3  A    between atoms: C_7  and  C_8
REMARK    4  A    between atoms: C_8  and  C_9
REMARK    5  A    between atoms: C_9  and  N_10
REMARK    6  A    between atoms: C_14  and  C_15
REMARK    7  A    between atoms: C_23  and  O_24
REMARK                            x       y       z     vdW  Elec       q    Type
REMARK                         _______ _______ _______ _____ _____    ______ ____
ROOT
ATOM      1  C   UNL     1       3.041   0.432   1.368  0.00  0.00    +0.000 A 
ATOM      2  C   UNL     1       2.759   1.707   1.889  0.00  0.00    +0.000 A 
ATOM      3  C   UNL     1       3.057   2.027   3.212  0.00  0.00    +0.000 A 
ATOM      4  C   UNL     1       3.626   1.072   4.061  0.00  0.00    +0.000 A 
ATOM      5  C   UNL     1       3.906  -0.214   3.575  0.00  0.00    +0.000 A 
ATOM      6  C   UNL     1       3.652  -0.485   2.219  0.00  0.00    +0.000 A 
ENDROOT
BRANCH   1   8
ATOM      7  C   UNL     1       1.013   0.162  -0.023  0.00  0.00    +0.000 C 
ATOM      8  C   UNL     1       2.556   0.057  -0.044  0.00  0.00    +0.000 C 
ATOM      9  C   UNL     1       3.157   1.033  -1.092  0.00  0.00    +0.000 C 
ATOM     10  C   UNL     1       2.824   0.661  -2.542  0.00  0.00    +0.000 C 
ATOM     11  C   UNL     1       3.199  -0.779  -2.882  0.00  0.00    +0.000 C 
ATOM     12  C   UNL     1       2.603  -1.767  -1.886  0.00  0.00    +0.000 C 
ATOM     13  C   UNL     1       2.949  -1.402  -0.443  0.00  0.00    +0.000 C 
BRANCH  11  14
ATOM     14  O   UNL     1       4.618  -0.919  -2.923  0.00  0.00    +0.000 OA
ATOM     15  H   UNL     1       4.986  -0.666  -2.058  0.00  0.00    +0.000 HD
ENDBRANCH  11  14
ENDBRANCH   1   8
BRANCH   5  16
ATOM     16  C   UNL     1       4.393  -1.323   4.489  0.00  0.00    +0.000 C 
BRANCH  16  17
ATOM     17  C   UNL     1       4.639  -2.658   3.768  0.00  0.00    +0.000 C 
BRANCH  17  18
ATOM     18  N   UNL     1       5.075  -3.707   4.681  0.00  0.00    +0.000 N 
ATOM     19  C   UNL     1       5.334  -4.886   3.986  0.00  0.00    +0.000 A 
ATOM     20  N   UNL     1       5.713  -4.797   2.697  0.00  0.00    +0.000 NA
ATOM     21  C   UNL     1       5.921  -5.939   2.036  0.00  0.00    +0.000 A 
ATOM     22  C   UNL     1       5.789  -7.194   2.601  0.00  0.00    +0.000 A 
ATOM     23  C   UNL     1       5.396  -7.183   3.916  0.00  0.00    +0.000 A 
ATOM     24  N   UNL     1       5.157  -6.053   4.632  0.00  0.00    +0.000 NA
ATOM     25  H   UNL     1       4.420  -3.934   5.411  0.00  0.00    +0.000 HD
BRANCH  22  26
ATOM     26  C   UNL     1       6.011  -8.388   1.780  0.00  0.00    +0.000 C 
ATOM     27  N   UNL     1       6.456  -9.525   2.392  0.00  0.00    +0.000 N 
ATOM     28  O   UNL     1       5.815  -8.368   0.570  0.00  0.00    +0.000 OA
ATOM     29  H   UNL     1       6.647  -9.636   3.377  0.00  0.00    +0.000 HD
ATOM     30  H   UNL     1       6.599 -10.333   1.794  0.00  0.00    +0.000 HD
ENDBRANCH  22  26
ENDBRANCH  17  18
ENDBRANCH  16  17
ENDBRANCH   5  16
TORSDOF 6
