REMARK  Name = 
REMARK  9 active torsions:
REMARK  status: ('A' for Active; 'I' for Inactive)
REMARK    1  A    between atoms: C_1  and  O_2
REMARK    2  A    between atoms: O_2  and  C_3
REMARK    3  A    between atoms: C_10  and  C_11
REMARK    4  A    between atoms: N_13  and  C_14
REMARK    5  A    between atoms: C_14  and  C_15
REMARK    6  A    between atoms: C_18  and  C_19
REMARK    7  A    between atoms: C_19  and  O_20
REMARK    8  A    between atoms: O_20  and  C_21
REMARK    9  A    between atoms: C_21  and  C_22
REMARK                            x       y       z     vdW  Elec       q    Type
REMARK                         _______ _______ _______ _____ _____    ______ ____
ROOT
ATOM      1  C   UNL     1       2.754   2.780  -2.076  0.00  0.00    +0.000 C 
ENDROOT
BRANCH   1   2
ATOM      2  C   UNL     1       1.580   2.083  -2.704  0.00  0.00    +0.000 A 
ATOM      3  C   UNL     1       1.556   0.696  -2.871  0.00  0.00    +0.000 A 
ATOM      4  C   UNL     1       0.413   0.075  -3.374  0.00  0.00    +0.000 A 
ATOM      5  C   UNL     1      -0.691   0.856  -3.710  0.00  0.00    +0.000 A 
ATOM      6  N   UNL     1      -0.690   2.206  -3.556  0.00  0.00    +0.000 NA
ATOM      7  C   UNL     1       0.431   2.781  -3.057  0.00  0.00    +0.000 A 
BRANCH   5   8
ATOM      8  C   UNL     1      -1.954   0.206  -4.233  0.00  0.00    +0.000 C 
BRANCH   8   9
ATOM      9  O   UNL     1      -2.759  -0.233  -3.137  0.00  0.00    +0.000 OA
BRANCH   9  10
ATOM     10  C   UNL     1      -4.006  -0.773  -3.577  0.00  0.00    +0.000 C 
BRANCH  10  11
ATOM     11  C   UNL     1      -4.867  -1.118  -2.387  0.00  0.00    +0.000 A 
ATOM     12  C   UNL     1      -4.824  -0.355  -1.216  0.00  0.00    +0.000 A 
ATOM     13  C   UNL     1      -5.652  -0.700  -0.160  0.00  0.00    +0.000 A 
ATOM     14  N   UNL     1      -6.522  -1.731  -0.192  0.00  0.00    +0.000 NA
ATOM     15  C   UNL     1      -6.567  -2.445  -1.337  0.00  0.00    +0.000 A 
ATOM     16  C   UNL     1      -5.777  -2.178  -2.447  0.00  0.00    +0.000 A 
ENDBRANCH  10  11
ENDBRANCH   9  10
ENDBRANCH   8   9
ENDBRANCH   5   8
ENDBRANCH   1   2
BRANCH   1  19
ATOM     17  C   UNL     1       3.534   3.383   0.188  0.00  0.00    +0.000 C 
ATOM     18  O   UNL     1       4.524   3.963  -0.260  0.00  0.00    +0.000 OA
ATOM     19  N   UNL     1       2.631   2.779  -0.638  0.00  0.00    +0.000 N 
ATOM     20  H   UNL     1       1.856   2.266  -0.240  0.00  0.00    +0.000 HD
BRANCH  17  28
ATOM     21  C   UNL     1       0.949   2.097   2.066  0.00  0.00    +0.000 A 
ATOM     22  N   UNL     1       0.093   1.686   3.021  0.00  0.00    +0.000 NA
ATOM     23  C   UNL     1       0.411   1.929   4.295  0.00  0.00    +0.000 A 
ATOM     24  N   UNL     1       1.501   2.543   4.745  0.00  0.00    +0.000 NA
ATOM     25  C   UNL     1       2.332   2.929   3.762  0.00  0.00    +0.000 A 
ATOM     26  S   UNL     1       3.777   3.730   4.150  0.00  0.00    +0.000 S 
ATOM     27  C   UNL     1       4.204   3.865   2.512  0.00  0.00    +0.000 A 
ATOM     28  C   UNL     1       3.274   3.310   1.639  0.00  0.00    +0.000 A 
ATOM     29  C   UNL     1       2.151   2.749   2.393  0.00  0.00    +0.000 A 
BRANCH  21  31
ATOM     30  C   UNL     1      -0.758   1.639   0.527  0.00  0.00    +0.000 C 
ATOM     31  O   UNL     1       0.639   1.814   0.752  0.00  0.00    +0.000 OA
ENDBRANCH  21  31
ENDBRANCH  17  28
ENDBRANCH   1  19
TORSDOF 8
