REMARK  Name = 
REMARK  5 active torsions:
REMARK  status: ('A' for Active; 'I' for Inactive)
REMARK    1  A    between atoms: C_2  and  C_5
REMARK    2  A    between atoms: C_9  and  N_10
REMARK    3  A    between atoms: N_10  and  C_11
REMARK    4  A    between atoms: C_11  and  C_12
REMARK    5  A    between atoms: C_16  and  C_17
REMARK                            x       y       z     vdW  Elec       q    Type
REMARK                         _______ _______ _______ _____ _____    ______ ____
ROOT
ATOM      1  C   UNL     1       3.760   3.606   3.553  0.00  0.00    +0.000 C 
ENDROOT
BRANCH   1   2
ATOM      2  C   UNL     1       3.996   4.725   4.540  0.00  0.00    +0.000 A 
ATOM      3  C   UNL     1       4.155   6.043   4.097  0.00  0.00    +0.000 A 
ATOM      4  C   UNL     1       4.277   7.079   5.018  0.00  0.00    +0.000 A 
ATOM      5  C   UNL     1       4.249   6.808   6.389  0.00  0.00    +0.000 A 
ATOM      6  C   UNL     1       4.104   5.498   6.880  0.00  0.00    +0.000 A 
ATOM      7  C   UNL     1       3.997   4.466   5.925  0.00  0.00    +0.000 A 
BRANCH   6   8
ATOM      8  C   UNL     1       4.041   5.222   8.341  0.00  0.00    +0.000 A 
ATOM      9  C   UNL     1       4.565   4.034   8.887  0.00  0.00    +0.000 A 
ATOM     10  C   UNL     1       4.509   3.769  10.260  0.00  0.00    +0.000 A 
ATOM     11  C   UNL     1       3.937   4.700  11.123  0.00  0.00    +0.000 A 
ATOM     12  C   UNL     1       3.411   5.875  10.608  0.00  0.00    +0.000 A 
ATOM     13 CL   UNL     1       2.706   7.035  11.671  0.00  0.00    +0.000 Cl
ATOM     14  C   UNL     1       3.450   6.133   9.234  0.00  0.00    +0.000 A 
ENDBRANCH   6   8
ENDBRANCH   1   2
BRANCH   1  15
ATOM     15  N   UNL     1       5.013   3.044   3.072  0.00  0.00    +0.000 N 
ATOM     16  H   UNL     1       5.743   3.736   2.921  0.00  0.00    +0.000 HD
BRANCH  15  21
ATOM     17  C   UNL     1       3.895   0.275   0.812  0.00  0.00    +0.000 A 
ATOM     18  C   UNL     1       5.140  -0.089   0.322  0.00  0.00    +0.000 A 
ATOM     19  N   UNL     1       6.288   0.524   0.675  0.00  0.00    +0.000 NA
ATOM     20  C   UNL     1       6.189   1.553   1.556  0.00  0.00    +0.000 A 
ATOM     21  C   UNL     1       4.995   2.037   2.102  0.00  0.00    +0.000 A 
ATOM     22  C   UNL     1       3.840   1.346   1.720  0.00  0.00    +0.000 A 
BRANCH  17  24
ATOM     23  F   UNL     1       2.890  -1.490  -0.455  0.00  0.00    +0.000 F 
ATOM     24  C   UNL     1       2.658  -0.447   0.388  0.00  0.00    +0.000 C 
ATOM     25  F   UNL     1       1.780   0.368  -0.260  0.00  0.00    +0.000 F 
ATOM     26  F   UNL     1       1.972  -0.967   1.443  0.00  0.00    +0.000 F 
ENDBRANCH  17  24
ENDBRANCH  15  21
ENDBRANCH   1  15
TORSDOF 5
