REMARK  Name = 
REMARK  7 active torsions:
REMARK  status: ('A' for Active; 'I' for Inactive)
REMARK    1  A    between atoms: C_1  and  O_2
REMARK    2  A    between atoms: O_2  and  C_3
REMARK    3  A    between atoms: C_7  and  C_8
REMARK    4  A    between atoms: C_8  and  N_9
REMARK    5  A    between atoms: C_14  and  C_15
REMARK    6  A    between atoms: C_21  and  O_22
REMARK    7  A    between atoms: O_22  and  C_23
REMARK                            x       y       z     vdW  Elec       q    Type
REMARK                         _______ _______ _______ _____ _____    ______ ____
ROOT
ATOM      1  N   UNL     1       1.997  -4.869   1.428  0.00  0.00    +0.000 N 
ATOM      2  C   UNL     1       2.043  -5.394   0.155  0.00  0.00    +0.000 A 
ATOM      3  C   UNL     1       0.865  -6.072  -0.078  0.00  0.00    +0.000 A 
ATOM      4  C   UNL     1       0.074  -5.961   1.087  0.00  0.00    +0.000 A 
ATOM      5  C   UNL     1      -1.171  -6.483   1.452  0.00  0.00    +0.000 A 
ATOM      6  C   UNL     1      -1.616  -6.172   2.730  0.00  0.00    +0.000 A 
ATOM      7  N   UNL     1      -0.953  -5.380   3.616  0.00  0.00    +0.000 NA
ATOM      8  C   UNL     1       0.243  -4.873   3.258  0.00  0.00    +0.000 A 
ATOM      9  C   UNL     1       0.779  -5.177   2.009  0.00  0.00    +0.000 A 
ENDROOT
BRANCH   6  10
ATOM     10  C   UNL     1      -2.890  -6.788   3.224  0.00  0.00    +0.000 C 
ATOM     11  N   UNL     1      -3.253  -6.460   4.498  0.00  0.00    +0.000 N 
ATOM     12  O   UNL     1      -3.559  -7.551   2.539  0.00  0.00    +0.000 OA
ATOM     13  H   UNL     1      -2.652  -5.860   5.047  0.00  0.00    +0.000 HD
ATOM     14  H   UNL     1      -4.070  -6.894   4.908  0.00  0.00    +0.000 HD
ENDBRANCH   6  10
BRANCH   1  15
ATOM     15  C   UNL     1       3.153  -4.276   2.103  0.00  0.00    +0.000 C 
BRANCH  15  20
ATOM     16  C   UNL     1       2.968  -0.517   2.016  0.00  0.00    +0.000 A 
ATOM     17  N   UNL     1       3.718  -0.250   0.927  0.00  0.00    +0.000 NA
ATOM     18  C   UNL     1       4.285  -1.295   0.322  0.00  0.00    +0.000 A 
ATOM     19  N   UNL     1       4.133  -2.577   0.673  0.00  0.00    +0.000 NA
ATOM     20  C   UNL     1       3.347  -2.819   1.752  0.00  0.00    +0.000 A 
ATOM     21  C   UNL     1       2.753  -1.805   2.501  0.00  0.00    +0.000 A 
BRANCH  16  23
ATOM     22  C   UNL     1       2.684   1.843   2.147  0.00  0.00    +0.000 C 
ATOM     23  O   UNL     1       2.418   0.551   2.689  0.00  0.00    +0.000 OA
ENDBRANCH  16  23
BRANCH  21  24
ATOM     24  O   UNL     1       2.084  -2.210   3.617  0.00  0.00    +0.000 OA
ATOM     25  C   UNL     1       1.339  -1.275   4.386  0.00  0.00    +0.000 C 
ENDBRANCH  21  24
ENDBRANCH  15  20
ENDBRANCH   1  15
TORSDOF 5
