REMARK  Name = 
REMARK  5 active torsions:
REMARK  status: ('A' for Active; 'I' for Inactive)
REMARK    1  A    between atoms: C_2  and  C_4
REMARK    2  A    between atoms: N_8  and  C_9
REMARK    3  A    between atoms: C_9  and  C_10
REMARK    4  A    between atoms: C_14  and  C_15
REMARK    5  A    between atoms: C_18  and  C_19
REMARK                            x       y       z     vdW  Elec       q    Type
REMARK                         _______ _______ _______ _____ _____    ______ ____
ROOT
ATOM      1  C   UNL     1       5.070   2.943   5.147  0.00  0.00    +0.000 C 
ATOM      2  C   UNL     1       4.909   1.794   6.145  0.00  0.00    +0.000 C 
ATOM      3  C   UNL     1       3.762   2.697   5.889  0.00  0.00    +0.000 C 
ATOM      4  F   UNL     1       2.677   2.155   5.230  0.00  0.00    +0.000 F 
ENDROOT
BRANCH   1   9
ATOM      5  C   UNL     1       3.729   3.792   0.187  0.00  0.00    +0.000 A 
ATOM      6  C   UNL     1       2.932   3.797   1.324  0.00  0.00    +0.000 A 
ATOM      7  C   UNL     1       3.472   3.394   2.545  0.00  0.00    +0.000 A 
ATOM      8  C   UNL     1       4.799   2.989   2.608  0.00  0.00    +0.000 A 
ATOM      9  N   UNL     1       5.388   2.500   3.777  0.00  0.00    +0.000 N 
ATOM     10  N   UNL     1       5.585   2.970   1.511  0.00  0.00    +0.000 NA
ATOM     11  C   UNL     1       5.038   3.355   0.323  0.00  0.00    +0.000 A 
ATOM     12  H   UNL     1       6.369   2.336   3.550  0.00  0.00    +0.000 HD
BRANCH   5  14
ATOM     13  N   UNL     1       2.152   5.042  -1.167  0.00  0.00    +0.000 N 
ATOM     14  C   UNL     1       3.210   4.174  -1.144  0.00  0.00    +0.000 C 
ATOM     15  O   UNL     1       3.711   3.752  -2.172  0.00  0.00    +0.000 OA
ATOM     16  H   UNL     1       1.815   5.335  -2.072  0.00  0.00    +0.000 HD
ATOM     17  H   UNL     1       1.852   5.573  -0.359  0.00  0.00    +0.000 HD
ENDBRANCH   5  14
ENDBRANCH   1   9
BRANCH   1  18
ATOM     18  C   UNL     1       5.845   4.177   5.597  0.00  0.00    +0.000 A 
ATOM     19  C   UNL     1       7.114   4.092   6.164  0.00  0.00    +0.000 A 
ATOM     20  N   UNL     1       7.809   5.138   6.666  0.00  0.00    +0.000 NA
ATOM     21  C   UNL     1       7.210   6.350   6.603  0.00  0.00    +0.000 A 
ATOM     22  C   UNL     1       5.960   6.596   6.039  0.00  0.00    +0.000 A 
ATOM     23  C   UNL     1       5.296   5.469   5.522  0.00  0.00    +0.000 A 
BRANCH  22  24
ATOM     24  C   UNL     1       5.343   7.931   6.026  0.00  0.00    +0.000 A 
ATOM     25  C   UNL     1       6.071   9.126   6.002  0.00  0.00    +0.000 A 
ATOM     26  N   UNL     1       5.505  10.362   6.026  0.00  0.00    +0.000 NA
ATOM     27  C   UNL     1       4.145  10.363   6.075  0.00  0.00    +0.000 A 
ATOM     28  C   UNL     1       3.403   9.194   6.092  0.00  0.00    +0.000 A 
ATOM     29  N   UNL     1       3.983   7.963   6.061  0.00  0.00    +0.000 NA
BRANCH  27  30
ATOM     30  C   UNL     1       3.451  11.678   6.104  0.00  0.00    +0.000 C 
ATOM     31  N   UNL     1       4.256  12.785   6.073  0.00  0.00    +0.000 N 
ATOM     32  O   UNL     1       2.231  11.770   6.153  0.00  0.00    +0.000 OA
ATOM     33  H   UNL     1       5.263  12.687   6.026  0.00  0.00    +0.000 HD
ATOM     34  H   UNL     1       3.835  13.705   6.084  0.00  0.00    +0.000 HD
ENDBRANCH  27  30
ENDBRANCH  22  24
ENDBRANCH   1  18
TORSDOF 5
