REMARK  Name = 
REMARK  3 active torsions:
REMARK  status: ('A' for Active; 'I' for Inactive)
REMARK    1  A    between atoms: C_1  and  C_2
REMARK    2  A    between atoms: C_8  and  C_9
REMARK    3  A    between atoms: C_19  and  C_20
REMARK                            x       y       z     vdW  Elec       q    Type
REMARK                         _______ _______ _______ _____ _____    ______ ____
ROOT
ATOM      1  C   UNL     1       0.500  -1.142  -2.970  0.00  0.00    +0.000 C 
ATOM      2  C   UNL     1       0.417  -0.638  -1.561  0.00  0.00    +0.000 A 
ATOM      3  N   UNL     1       0.915   0.610  -1.376  0.00  0.00    +0.000 NA
ATOM      4  C   UNL     1       0.847   1.184  -0.164  0.00  0.00    +0.000 A 
ATOM      5  N   UNL     1       1.231   2.507  -0.048  0.00  0.00    +0.000 N 
ATOM      6  C   UNL     1       1.358   3.076   1.286  0.00  0.00    +0.000 C 
ATOM      7  C   UNL     1       1.135   4.586   1.181  0.00  0.00    +0.000 C 
ATOM      8  C   UNL     1       2.087   5.260   0.168  0.00  0.00    +0.000 C 
ATOM      9  C   UNL     1       2.011   4.516  -1.180  0.00  0.00    +0.000 C 
ATOM     10  C   UNL     1       2.170   3.000  -1.047  0.00  0.00    +0.000 C 
ATOM     11  N   UNL     1       0.333   0.540   0.894  0.00  0.00    +0.000 NA
ATOM     12  C   UNL     1      -0.144  -0.710   0.692  0.00  0.00    +0.000 A 
ATOM     13  C   UNL     1      -0.157  -1.351  -0.527  0.00  0.00    +0.000 A 
ENDROOT
BRANCH   8  14
ATOM     14  C   UNL     1       3.480   5.493   0.732  0.00  0.00    +0.000 A 
ATOM     15  C   UNL     1       4.657   4.996   0.164  0.00  0.00    +0.000 A 
ATOM     16  C   UNL     1       5.892   5.283   0.742  0.00  0.00    +0.000 A 
ATOM     17  C   UNL     1       5.923   6.077   1.873  0.00  0.00    +0.000 A 
ATOM     18  N   UNL     1       4.820   6.596   2.446  0.00  0.00    +0.000 NA
ATOM     19  C   UNL     1       3.636   6.300   1.862  0.00  0.00    +0.000 A 
ENDBRANCH   8  14
BRANCH  13  20
ATOM     20  C   UNL     1      -0.729  -2.702  -0.691  0.00  0.00    +0.000 C 
ATOM     21  N   UNL     1      -1.720  -3.085   0.173  0.00  0.00    +0.000 N 
ATOM     22  O   UNL     1      -0.360  -3.465  -1.573  0.00  0.00    +0.000 OA
ATOM     23  H   UNL     1      -2.223  -2.450   0.777  0.00  0.00    +0.000 HD
ATOM     24  H   UNL     1      -2.156  -3.979  -0.021  0.00  0.00    +0.000 HD
ENDBRANCH  13  20
TORSDOF 2
