REMARK  Name = 
REMARK  9 active torsions:
REMARK  status: ('A' for Active; 'I' for Inactive)
REMARK    1  A    between atoms: C_1  and  O_2
REMARK    2  A    between atoms: O_2  and  C_3
REMARK    3  A    between atoms: C_5  and  C_6
REMARK    4  A    between atoms: C_6  and  N_7
REMARK    5  A    between atoms: C_8  and  C_10
REMARK    6  A    between atoms: C_22  and  C_23
REMARK    7  A    between atoms: C_23  and  N_24
REMARK    8  A    between atoms: N_24  and  C_25
REMARK    9  A    between atoms: C_25  and  C_26
REMARK                            x       y       z     vdW  Elec       q    Type
REMARK                         _______ _______ _______ _____ _____    ______ ____
ROOT
ATOM      1  C   UNL     1       3.229   0.091  -1.094  0.00  0.00    +0.000 A 
ATOM      2  C   UNL     1       2.826   1.172  -1.902  0.00  0.00    +0.000 A 
ATOM      3  C   UNL     1       3.514   1.504  -3.082  0.00  0.00    +0.000 A 
ATOM      4  C   UNL     1       4.613   0.724  -3.450  0.00  0.00    +0.000 A 
ATOM      5  C   UNL     1       4.995  -0.372  -2.673  0.00  0.00    +0.000 A 
ATOM      6  C   UNL     1       4.292  -0.731  -1.506  0.00  0.00    +0.000 A 
ENDROOT
BRANCH   1   8
ATOM      7  C   UNL     1       3.134  -0.304   1.242  0.00  0.00    +0.000 C 
ATOM      8  O   UNL     1       2.438  -0.139   0.005  0.00  0.00    +0.000 OA
ENDBRANCH   1   8
BRANCH   3   9
ATOM      9  C   UNL     1       3.070   2.647  -3.965  0.00  0.00    +0.000 C 
BRANCH   9  10
ATOM     10  N   UNL     1       2.153   2.205  -4.990  0.00  0.00    +0.000 N 
ATOM     11  C   UNL     1       1.780   3.038  -6.021  0.00  0.00    +0.000 C 
ATOM     12  O   UNL     1       2.250   4.164  -6.141  0.00  0.00    +0.000 OA
ATOM     13  H   UNL     1       1.605   1.376  -4.794  0.00  0.00    +0.000 HD
BRANCH  11  14
ATOM     14  C   UNL     1       0.832   2.497  -7.005  0.00  0.00    +0.000 A 
ATOM     15  C   UNL     1       0.730   3.094  -8.259  0.00  0.00    +0.000 A 
ATOM     16  S   UNL     1      -0.383   2.326  -9.298  0.00  0.00    +0.000 S 
ATOM     17  C   UNL     1      -0.804   1.194  -8.101  0.00  0.00    +0.000 A 
ATOM     18  N   UNL     1      -1.742   0.242  -8.342  0.00  0.00    +0.000 NA
ATOM     19  C   UNL     1      -1.984  -0.536  -7.336  0.00  0.00    +0.000 A 
ATOM     20  N   UNL     1      -1.372  -0.445  -6.115  0.00  0.00    +0.000 N 
ATOM     21  C   UNL     1      -0.401   0.489  -5.835  0.00  0.00    +0.000 A 
ATOM     22  O   UNL     1       0.151   0.517  -4.738  0.00  0.00    +0.000 OA
ATOM     23  C   UNL     1      -0.089   1.392  -6.929  0.00  0.00    +0.000 A 
ATOM     24  H   UNL     1      -1.607  -1.086  -5.371  0.00  0.00    +0.000 HD
ENDBRANCH  11  14
ENDBRANCH   9  10
ENDBRANCH   3   9
BRANCH   6  25
ATOM     25  C   UNL     1       4.702  -2.013  -0.816  0.00  0.00    +0.000 C 
BRANCH  25  26
ATOM     26  N   UNL     1       3.627  -2.993  -0.650  0.00  0.00    +0.000 NA
ATOM     27  H   UNL     1       2.847  -2.544  -0.172  0.00  0.00    +0.000 HD
BRANCH  26  28
ATOM     28  C   UNL     1       3.117  -3.508  -1.916  0.00  0.00    +0.000 C 
BRANCH  28  29
ATOM     29  C   UNL     1       2.015  -4.500  -1.641  0.00  0.00    +0.000 A 
ATOM     30  C   UNL     1       0.690  -4.084  -1.504  0.00  0.00    +0.000 A 
ATOM     31  C   UNL     1      -0.270  -5.039  -1.217  0.00  0.00    +0.000 A 
ATOM     32  N   UNL     1      -0.004  -6.354  -1.054  0.00  0.00    +0.000 NA
ATOM     33  C   UNL     1       1.278  -6.738  -1.165  0.00  0.00    +0.000 A 
ATOM     34  N   UNL     1       1.537  -8.100  -1.024  0.00  0.00    +0.000 N 
ATOM     35  C   UNL     1       2.308  -5.855  -1.455  0.00  0.00    +0.000 A 
ATOM     36  H   UNL     1       0.660  -8.538  -0.755  0.00  0.00    +0.000 HD
ATOM     37  H   UNL     1       2.273  -8.270  -0.350  0.00  0.00    +0.000 HD
ENDBRANCH  28  29
ENDBRANCH  26  28
ENDBRANCH  25  26
ENDBRANCH   6  25
TORSDOF 8
