REMARK  Name = 
REMARK  6 active torsions:
REMARK  status: ('A' for Active; 'I' for Inactive)
REMARK    1  A    between atoms: C_1  and  C_2
REMARK    2  A    between atoms: C_2  and  C_3
REMARK    3  A    between atoms: C_2  and  C_14
REMARK    4  A    between atoms: C_3  and  O_4
REMARK    5  A    between atoms: O_4  and  C_5
REMARK    6  A    between atoms: C_8  and  C_9
REMARK                            x       y       z     vdW  Elec       q    Type
REMARK                         _______ _______ _______ _____ _____    ______ ____
ROOT
ATOM      1  C   UNL     1       3.146   3.433  -1.293  0.00  0.00    +0.000 A 
ATOM      2  C   UNL     1       4.101   4.087  -0.510  0.00  0.00    +0.000 A 
ATOM      3  C   UNL     1       4.601   5.333  -0.896  0.00  0.00    +0.000 A 
ATOM      4  C   UNL     1       4.160   5.938  -2.076  0.00  0.00    +0.000 A 
ATOM      5  C   UNL     1       3.204   5.289  -2.866  0.00  0.00    +0.000 A 
ATOM      6  C   UNL     1       2.702   4.041  -2.471  0.00  0.00    +0.000 A 
ENDROOT
BRANCH   4   7
ATOM      7  C   UNL     1       4.718   7.273  -2.417  0.00  0.00    +0.000 C 
ATOM      8  N   UNL     1       4.722   7.641  -3.731  0.00  0.00    +0.000 N 
ATOM      9  O   UNL     1       5.197   8.006  -1.560  0.00  0.00    +0.000 OA
ATOM     10  H   UNL     1       4.568   6.983  -4.481  0.00  0.00    +0.000 HD
ATOM     11  H   UNL     1       5.211   8.500  -3.949  0.00  0.00    +0.000 HD
ENDBRANCH   4   7
BRANCH   1  12
ATOM     12  O   UNL     1       2.575   2.218  -1.000  0.00  0.00    +0.000 OA
BRANCH  12  13
ATOM     13  C   UNL     1       3.106   1.557   0.156  0.00  0.00    +0.000 C 
BRANCH  13  15
ATOM     14  C   UNL     1       0.968   0.139   0.440  0.00  0.00    +0.000 C 
ATOM     15  C   UNL     1       2.457   0.224   0.353  0.00  0.00    +0.000 C 
BRANCH  15  16
ATOM     16  C   UNL     1       3.272  -0.849   0.921  0.00  0.00    +0.000 A 
ATOM     17  N   UNL     1       2.697  -2.051   1.099  0.00  0.00    +0.000 NA
ATOM     18  C   UNL     1       3.482  -3.015   1.620  0.00  0.00    +0.000 A 
ATOM     19  C   UNL     1       4.797  -2.822   1.972  0.00  0.00    +0.000 A 
ATOM     20  C   UNL     1       5.284  -1.556   1.761  0.00  0.00    +0.000 A 
ATOM     21  N   UNL     1       4.545  -0.558   1.243  0.00  0.00    +0.000 NA
ENDBRANCH  15  16
ENDBRANCH  13  15
ENDBRANCH  12  13
ENDBRANCH   1  12
TORSDOF 5
