REMARK  Name = 
REMARK  8 active torsions:
REMARK  status: ('A' for Active; 'I' for Inactive)
REMARK    1  A    between atoms: C_1  and  S_2
REMARK    2  A    between atoms: S_2  and  C_3
REMARK    3  A    between atoms: C_6  and  C_7
REMARK    4  A    between atoms: C_7  and  C_8
REMARK    5  A    between atoms: C_8  and  N_9
REMARK    6  A    between atoms: C_14  and  O_15
REMARK    7  A    between atoms: O_15  and  C_16
REMARK    8  A    between atoms: C_18  and  O_19
REMARK                            x       y       z     vdW  Elec       q    Type
REMARK                         _______ _______ _______ _____ _____    ______ ____
ROOT
ATOM      1  N   UNL     1       4.347   8.101  -0.663  0.00  0.00    +0.000 N 
ATOM      2  C   UNL     1       3.505   9.176  -0.378  0.00  0.00    +0.000 A 
ATOM      3  C   UNL     1       2.495   9.102   0.581  0.00  0.00    +0.000 A 
ATOM      4  C   UNL     1       1.686  10.205   0.831  0.00  0.00    +0.000 A 
ATOM      5  C   UNL     1       1.924  11.378   0.140  0.00  0.00    +0.000 A 
ATOM      6  C   UNL     1       2.976  11.389  -0.760  0.00  0.00    +0.000 A 
ATOM      7  N   UNL     1       3.762  10.323  -1.044  0.00  0.00    +0.000 NA
ATOM      8  H   UNL     1       4.855   8.340  -1.513  0.00  0.00    +0.000 HD
ENDROOT
BRANCH   1   9
ATOM      9  C   UNL     1       3.792   6.754  -0.594  0.00  0.00    +0.000 C 
BRANCH   9  10
ATOM     10  C   UNL     1       4.843   5.695  -0.945  0.00  0.00    +0.000 C 
BRANCH  10  14
ATOM     11  C   UNL     1       3.260   1.783  -0.307  0.00  0.00    +0.000 A 
ATOM     12  C   UNL     1       3.125   2.353  -1.566  0.00  0.00    +0.000 A 
ATOM     13  C   UNL     1       3.648   3.627  -1.794  0.00  0.00    +0.000 A 
ATOM     14  C   UNL     1       4.298   4.302  -0.760  0.00  0.00    +0.000 A 
ATOM     15  C   UNL     1       4.374   3.653   0.469  0.00  0.00    +0.000 A 
ATOM     16  N   UNL     1       3.872   2.420   0.715  0.00  0.00    +0.000 NA
BRANCH  11  18
ATOM     17  C   UNL     1       3.057  -0.111   1.704  0.00  0.00    +0.000 C 
ATOM     18  S   UNL     1       2.585   0.154  -0.025  0.00  0.00    +0.000 S 
ENDBRANCH  11  18
ENDBRANCH  10  14
ENDBRANCH   9  10
ENDBRANCH   1   9
BRANCH   6  19
ATOM     19  O   UNL     1       3.223  12.606  -1.373  0.00  0.00    +0.000 OA
BRANCH  19  20
ATOM     20  C   UNL     1       4.586  12.842  -1.791  0.00  0.00    +0.000 C 
ATOM     21  C   UNL     1       5.649  12.992  -0.672  0.00  0.00    +0.000 C 
ATOM     22  C   UNL     1       5.430  14.518  -0.737  0.00  0.00    +0.000 C 
ATOM     23  C   UNL     1       4.891  14.315  -2.167  0.00  0.00    +0.000 C 
BRANCH  22  24
ATOM     24  O   UNL     1       6.600  15.345  -0.599  0.00  0.00    +0.000 OA
ATOM     25  H   UNL     1       7.269  14.960  -1.190  0.00  0.00    +0.000 HD
ENDBRANCH  22  24
ENDBRANCH  19  20
ENDBRANCH   6  19
TORSDOF 7
