REMARK  Name = 
REMARK  5 active torsions:
REMARK  status: ('A' for Active; 'I' for Inactive)
REMARK    1  A    between atoms: N_1  and  C_2
REMARK    2  A    between atoms: C_2  and  C_3
REMARK    3  A    between atoms: C_3  and  C_4
REMARK    4  A    between atoms: C_7  and  C_8
REMARK    5  A    between atoms: C_8  and  N_9
REMARK                            x       y       z     vdW  Elec       q    Type
REMARK                         _______ _______ _______ _____ _____    ______ ____
ROOT
ATOM      1  C   UNL     1       4.369   0.749  -1.210  0.00  0.00    +0.000 A 
ATOM      2  C   UNL     1       5.007  -0.280  -1.896  0.00  0.00    +0.000 A 
ATOM      3  C   UNL     1       6.399  -0.323  -1.908  0.00  0.00    +0.000 A 
ATOM      4  C   UNL     1       7.130   0.666  -1.246  0.00  0.00    +0.000 A 
ATOM      5  C   UNL     1       6.408   1.659  -0.595  0.00  0.00    +0.000 A 
ATOM      6  N   UNL     1       5.056   1.717  -0.559  0.00  0.00    +0.000 NA
ENDROOT
BRANCH   1   7
ATOM      7  C   UNL     1       2.865   0.853  -1.204  0.00  0.00    +0.000 C 
BRANCH   7   8
ATOM      8  C   UNL     1       2.368   1.675  -2.395  0.00  0.00    +0.000 C 
BRANCH   8   9
ATOM      9  N   UNL     1       0.906   1.765  -2.407  0.00  0.00    +0.000 NA
ATOM     10  H   UNL     1       0.616   2.331  -3.204  0.00  0.00    +0.000 HD
ATOM     11  H   UNL     1       0.596   2.275  -1.579  0.00  0.00    +0.000 HD
ENDBRANCH   8   9
ENDBRANCH   7   8
ENDBRANCH   1   7
BRANCH   4  12
ATOM     12  C   UNL     1       8.631   0.682  -1.238  0.00  0.00    +0.000 C 
BRANCH  12  13
ATOM     13  N   UNL     1       9.180   1.457  -2.342  0.00  0.00    +0.000 N 
ATOM     14  N   UNL     1       9.405   2.779  -2.171  0.00  0.00    +0.000 NA
ATOM     15  C   UNL     1      10.014   3.148  -3.301  0.00  0.00    +0.000 A 
ATOM     16  C   UNL     1      10.203   2.073  -4.195  0.00  0.00    +0.000 A 
ATOM     17  C   UNL     1      10.792   1.909  -5.461  0.00  0.00    +0.000 A 
ATOM     18  C   UNL     1      10.790   0.636  -6.029  0.00  0.00    +0.000 A 
ATOM     19  F   UNL     1      11.363   0.456  -7.227  0.00  0.00    +0.000 F 
ATOM     20  C   UNL     1      10.216  -0.454  -5.385  0.00  0.00    +0.000 A 
ATOM     21  C   UNL     1       9.622  -0.308  -4.127  0.00  0.00    +0.000 A 
ATOM     22  C   UNL     1       9.637   0.974  -3.550  0.00  0.00    +0.000 A 
ENDBRANCH  12  13
ENDBRANCH   4  12
TORSDOF 5
