REMARK  Name = 
REMARK  5 active torsions:
REMARK  status: ('A' for Active; 'I' for Inactive)
REMARK    1  A    between atoms: N_1  and  C_2
REMARK    2  A    between atoms: C_2  and  C_3
REMARK    3  A    between atoms: C_7  and  C_8
REMARK    4  A    between atoms: C_8  and  C_9
REMARK    5  A    between atoms: C_9  and  N_10
REMARK                            x       y       z     vdW  Elec       q    Type
REMARK                         _______ _______ _______ _____ _____    ______ ____
ROOT
ATOM      1  C   UNL     1       2.519  -0.548  -1.525  0.00  0.00    +0.000 A 
ATOM      2  C   UNL     1       3.043  -1.834  -1.662  0.00  0.00    +0.000 A 
ATOM      3  C   UNL     1       3.954  -2.069  -2.675  0.00  0.00    +0.000 A 
ATOM      4  N   UNL     1       4.379  -1.124  -3.543  0.00  0.00    +0.000 NA
ATOM      5  C   UNL     1       3.871   0.127  -3.414  0.00  0.00    +0.000 A 
ATOM      6  C   UNL     1       2.932   0.437  -2.430  0.00  0.00    +0.000 A 
ENDROOT
BRANCH   1   7
ATOM      7  C   UNL     1       1.519  -0.231  -0.444  0.00  0.00    +0.000 C 
BRANCH   7   8
ATOM      8  N   UNL     1       2.061  -0.500   0.883  0.00  0.00    +0.000 NA
ATOM      9  H   UNL     1       1.398  -0.178   1.585  0.00  0.00    +0.000 HD
ATOM     10  H   UNL     1       2.906   0.056   1.012  0.00  0.00    +0.000 HD
ENDBRANCH   7   8
ENDBRANCH   1   7
BRANCH   5  11
ATOM     11  C   UNL     1       4.336   1.137  -4.441  0.00  0.00    +0.000 C 
BRANCH  11  12
ATOM     12  C   UNL     1       4.423   2.577  -3.922  0.00  0.00    +0.000 C 
BRANCH  12  13
ATOM     13  N   UNL     1       4.927   3.523  -4.909  0.00  0.00    +0.000 N 
ATOM     14  C   UNL     1       6.335   3.755  -4.939  0.00  0.00    +0.000 C 
ATOM     15  C   UNL     1       6.879   4.672  -5.902  0.00  0.00    +0.000 C 
ATOM     16  C   UNL     1       6.114   5.120  -6.899  0.00  0.00    +0.000 C 
ATOM     17  C   UNL     1       4.754   4.551  -6.929  0.00  0.00    +0.000 C 
ATOM     18  N   UNL     1       4.208   3.804  -6.021  0.00  0.00    +0.000 NA
ENDBRANCH  12  13
ENDBRANCH  11  12
ENDBRANCH   5  11
TORSDOF 5
