REMARK  Name = 
REMARK  8 active torsions:
REMARK  status: ('A' for Active; 'I' for Inactive)
REMARK    1  A    between atoms: N_1  and  C_2
REMARK    2  A    between atoms: C_2  and  C_3
REMARK    3  A    between atoms: C_2  and  C_17
REMARK    4  A    between atoms: C_3  and  N_4
REMARK    5  A    between atoms: C_5  and  C_7
REMARK    6  A    between atoms: C_20  and  C_21
REMARK    7  A    between atoms: C_21  and  N_22
REMARK    8  A    between atoms: C_23  and  C_25
REMARK                            x       y       z     vdW  Elec       q    Type
REMARK                         _______ _______ _______ _____ _____    ______ ____
ROOT
ATOM      1  C   UNL     1       2.560  -0.038  -0.076  0.00  0.00    +0.000 C 
ENDROOT
BRANCH   1   2
ATOM      2  C   UNL     1       3.178   1.342   0.128  0.00  0.00    +0.000 A 
ATOM      3  C   UNL     1       2.752   2.388  -0.689  0.00  0.00    +0.000 A 
ATOM      4  C   UNL     1       3.092   3.706  -0.415  0.00  0.00    +0.000 A 
ATOM      5  C   UNL     1       3.894   4.031   0.679  0.00  0.00    +0.000 A 
ATOM      6  C   UNL     1       4.417   2.980   1.444  0.00  0.00    +0.000 A 
ATOM      7  C   UNL     1       4.069   1.651   1.166  0.00  0.00    +0.000 A 
BRANCH   5   8
ATOM      8  C   UNL     1       4.229   5.472   0.990  0.00  0.00    +0.000 C 
BRANCH   8   9
ATOM      9  N   UNL     1       3.289   6.144   1.874  0.00  0.00    +0.000 N 
ATOM     10  C   UNL     1       3.489   7.459   2.235  0.00  0.00    +0.000 C 
ATOM     11  O   UNL     1       4.462   8.102   1.843  0.00  0.00    +0.000 OA
ATOM     12  H   UNL     1       2.400   5.714   2.073  0.00  0.00    +0.000 HD
BRANCH  10  13
ATOM     13  C   UNL     1       2.449   8.029   3.213  0.00  0.00    +0.000 C 
ATOM     14  C   UNL     1       1.022   7.998   2.650  0.00  0.00    +0.000 C 
ATOM     15  C   UNL     1       0.053   8.784   3.529  0.00  0.00    +0.000 C 
ATOM     16  O   UNL     1       0.516  10.113   3.743  0.00  0.00    +0.000 OA
ATOM     17  C   UNL     1       1.766  10.142   4.427  0.00  0.00    +0.000 C 
ATOM     18  C   UNL     1       2.840   9.465   3.595  0.00  0.00    +0.000 C 
ENDBRANCH  10  13
ENDBRANCH   8   9
ENDBRANCH   5   8
ENDBRANCH   1   2
BRANCH   1  19
ATOM     19  N   UNL     1       3.467  -1.083   0.415  0.00  0.00    +0.000 NA
ATOM     20  H   UNL     1       3.764  -0.841   1.358  0.00  0.00    +0.000 HD
ATOM     21  H   UNL     1       4.307  -1.058  -0.160  0.00  0.00    +0.000 HD
ENDBRANCH   1  19
BRANCH   1  22
ATOM     22  C   UNL     1       2.098  -0.306  -1.559  0.00  0.00    +0.000 C 
BRANCH  22  23
ATOM     23  N   UNL     1       3.138  -0.252  -2.578  0.00  0.00    +0.000 N 
ATOM     24  C   UNL     1       2.928  -0.468  -3.908  0.00  0.00    +0.000 C 
ATOM     25  O   UNL     1       1.789  -0.712  -4.369  0.00  0.00    +0.000 OA
ATOM     26  H   UNL     1       4.089  -0.170  -2.256  0.00  0.00    +0.000 HD
BRANCH  24  27
ATOM     27  C   UNL     1       4.095  -0.364  -4.788  0.00  0.00    +0.000 A 
ATOM     28  C   UNL     1       4.004  -0.527  -6.163  0.00  0.00    +0.000 A 
ATOM     29  S   UNL     1       5.486  -0.266  -6.979  0.00  0.00    +0.000 S 
ATOM     30  C   UNL     1       6.305   0.025  -5.517  0.00  0.00    +0.000 A 
ATOM     31  N   UNL     1       7.633   0.312  -5.483  0.00  0.00    +0.000 NA
ATOM     32  C   UNL     1       8.114   0.483  -4.295  0.00  0.00    +0.000 A 
ATOM     33  N   UNL     1       7.391   0.381  -3.137  0.00  0.00    +0.000 N 
ATOM     34  C   UNL     1       6.103  -0.064  -3.129  0.00  0.00    +0.000 A 
ATOM     35  O   UNL     1       5.579  -0.437  -2.076  0.00  0.00    +0.000 OA
ATOM     36  C   UNL     1       5.472  -0.128  -4.424  0.00  0.00    +0.000 A 
ATOM     37  H   UNL     1       7.849   0.414  -2.240  0.00  0.00    +0.000 HD
ENDBRANCH  24  27
ENDBRANCH  22  23
ENDBRANCH   1  22
TORSDOF 8
