REMARK  Name = 
REMARK  8 active torsions:
REMARK  status: ('A' for Active; 'I' for Inactive)
REMARK    1  A    between atoms: C_1  and  C_2
REMARK    2  A    between atoms: C_2  and  C_3
REMARK    3  A    between atoms: C_3  and  N_4
REMARK    4  A    between atoms: C_3  and  C_18
REMARK    5  A    between atoms: C_5  and  C_7
REMARK    6  A    between atoms: N_13  and  C_14
REMARK    7  A    between atoms: C_21  and  O_22
REMARK    8  A    between atoms: O_22  and  C_23
REMARK                            x       y       z     vdW  Elec       q    Type
REMARK                         _______ _______ _______ _____ _____    ______ ____
ROOT
ATOM      1  C   UNL     1       3.025  -0.691  -1.111  0.00  0.00    +0.000 C 
ENDROOT
BRANCH   1   2
ATOM      2  C   UNL     1       4.547  -0.672  -1.203  0.00  0.00    +0.000 A 
ATOM      3  C   UNL     1       5.289  -1.586  -0.442  0.00  0.00    +0.000 A 
ATOM      4  C   UNL     1       6.686  -1.551  -0.442  0.00  0.00    +0.000 A 
ATOM      5  C   UNL     1       7.367  -0.618  -1.228  0.00  0.00    +0.000 A 
ATOM      6  C   UNL     1       6.642   0.316  -1.964  0.00  0.00    +0.000 A 
ATOM      7  C   UNL     1       5.245   0.297  -1.945  0.00  0.00    +0.000 A 
BRANCH   5   8
ATOM      8  O   UNL     1       8.735  -0.476  -1.258  0.00  0.00    +0.000 OA
BRANCH   8   9
ATOM      9  C   UNL     1       9.530  -1.608  -1.143  0.00  0.00    +0.000 A 
ATOM     10  C   UNL     1      10.802  -1.413  -0.626  0.00  0.00    +0.000 A 
ATOM     11  C   UNL     1      11.630  -2.522  -0.485  0.00  0.00    +0.000 A 
ATOM     12  C   UNL     1      11.163  -3.773  -0.874  0.00  0.00    +0.000 A 
ATOM     13  C   UNL     1       9.887  -3.864  -1.405  0.00  0.00    +0.000 A 
ATOM     14  N   UNL     1       9.066  -2.807  -1.563  0.00  0.00    +0.000 NA
ENDBRANCH   8   9
ENDBRANCH   5   8
ENDBRANCH   1   2
BRANCH   1  15
ATOM     15  N   UNL     1       2.660   0.240  -0.062  0.00  0.00    +0.000 N 
ATOM     16  C   UNL     1       1.558   0.141   0.739  0.00  0.00    +0.000 C 
ATOM     17  O   UNL     1       0.796  -0.822   0.715  0.00  0.00    +0.000 OA
ATOM     18  H   UNL     1       3.135   1.130  -0.120  0.00  0.00    +0.000 HD
BRANCH  16  19
ATOM     19  C   UNL     1       1.399   1.241   1.702  0.00  0.00    +0.000 A 
ATOM     20  C   UNL     1       0.699   1.054   2.885  0.00  0.00    +0.000 A 
ATOM     21  S   UNL     1       0.765   2.405   3.930  0.00  0.00    +0.000 S 
ATOM     22  C   UNL     1       1.686   3.300   2.812  0.00  0.00    +0.000 A 
ATOM     23  N   UNL     1       2.130   4.550   3.102  0.00  0.00    +0.000 NA
ATOM     24  C   UNL     1       2.804   5.114   2.152  0.00  0.00    +0.000 A 
ATOM     25  N   UNL     1       3.060   4.562   0.915  0.00  0.00    +0.000 N 
ATOM     26  C   UNL     1       3.811   5.288  -0.087  0.00  0.00    +0.000 C 
ATOM     27  C   UNL     1       2.604   3.294   0.581  0.00  0.00    +0.000 A 
ATOM     28  O   UNL     1       2.801   2.790  -0.522  0.00  0.00    +0.000 OA
ATOM     29  C   UNL     1       1.900   2.597   1.644  0.00  0.00    +0.000 A 
ENDBRANCH  16  19
ENDBRANCH   1  15
BRANCH   1  31
ATOM     30  C   UNL     1       2.589  -1.285  -3.556  0.00  0.00    +0.000 C 
ATOM     31  C   UNL     1       2.303  -0.314  -2.419  0.00  0.00    +0.000 C 
ENDBRANCH   1  31
TORSDOF 6
