REMARK  Name = 
REMARK  7 active torsions:
REMARK  status: ('A' for Active; 'I' for Inactive)
REMARK    1  A    between atoms: C_2  and  C_19
REMARK    2  A    between atoms: N_3  and  C_4
REMARK    3  A    between atoms: C_4  and  C_5
REMARK    4  A    between atoms: C_8  and  C_9
REMARK    5  A    between atoms: C_9  and  O_10
REMARK    6  A    between atoms: C_9  and  C_11
REMARK    7  A    between atoms: C_11  and  C_12
REMARK                            x       y       z     vdW  Elec       q    Type
REMARK                         _______ _______ _______ _____ _____    ______ ____
ROOT
ATOM      1  C   UNL     1       3.650  -2.697 -11.339  0.00  0.00    +0.000 C 
ENDROOT
BRANCH   1   2
ATOM      2  C   UNL     1       4.133  -1.863 -10.186  0.00  0.00    +0.000 A 
ATOM      3  C   UNL     1       4.604  -0.563 -10.383  0.00  0.00    +0.000 A 
ATOM      4  C   UNL     1       5.126   0.164  -9.311  0.00  0.00    +0.000 A 
ATOM      5  C   UNL     1       5.195  -0.441  -8.060  0.00  0.00    +0.000 A 
ATOM      6  N   UNL     1       4.716  -1.697  -7.833  0.00  0.00    +0.000 NA
ATOM      7  C   UNL     1       4.197  -2.368  -8.893  0.00  0.00    +0.000 A 
BRANCH   5   8
ATOM      8  C   UNL     1       5.917   0.244  -6.902  0.00  0.00    +0.000 C 
BRANCH   8   9
ATOM      9  O   UNL     1       6.430  -0.768  -6.019  0.00  0.00    +0.000 OA
ATOM     10  H   UNL     1       6.030  -1.603  -6.340  0.00  0.00    +0.000 HD
ENDBRANCH   8   9
BRANCH   8  11
ATOM     11  C   UNL     1       5.002   1.170  -6.097  0.00  0.00    +0.000 C 
BRANCH  11  12
ATOM     12  C   UNL     1       5.752   1.943  -5.005  0.00  0.00    +0.000 C 
ATOM     13  C   UNL     1       4.824   2.825  -4.181  0.00  0.00    +0.000 C 
ATOM     14  C   UNL     1       5.721   3.957  -3.751  0.00  0.00    +0.000 C 
ATOM     15  C   UNL     1       6.675   4.092  -4.917  0.00  0.00    +0.000 C 
ATOM     16  O   UNL     1       6.716   2.832  -5.599  0.00  0.00    +0.000 OA
ENDBRANCH  11  12
ENDBRANCH   8  11
ENDBRANCH   5   8
ENDBRANCH   1   2
BRANCH   1  19
ATOM     17  O   UNL     1       5.141  -1.773 -13.537  0.00  0.00    +0.000 OA
ATOM     18  C   UNL     1       5.446  -2.843 -13.026  0.00  0.00    +0.000 C 
ATOM     19  N   UNL     1       4.740  -3.402 -11.980  0.00  0.00    +0.000 N 
ATOM     20  H   UNL     1       5.123  -4.212 -11.514  0.00  0.00    +0.000 HD
BRANCH  18  21
ATOM     21  C   UNL     1       6.569  -3.651 -13.510  0.00  0.00    +0.000 A 
ATOM     22  C   UNL     1       6.538  -5.035 -13.586  0.00  0.00    +0.000 A 
ATOM     23  S   UNL     1       7.942  -5.701 -14.299  0.00  0.00    +0.000 S 
ATOM     24  C   UNL     1       8.628  -4.162 -14.532  0.00  0.00    +0.000 A 
ATOM     25  N   UNL     1       9.839  -4.013 -15.133  0.00  0.00    +0.000 NA
ATOM     26  C   UNL     1      10.224  -2.784 -15.250  0.00  0.00    +0.000 A 
ATOM     27  N   UNL     1       9.517  -1.696 -14.805  0.00  0.00    +0.000 N 
ATOM     28  C   UNL     1       8.328  -1.801 -14.114  0.00  0.00    +0.000 A 
ATOM     29  O   UNL     1       7.826  -0.821 -13.575  0.00  0.00    +0.000 OA
ATOM     30  C   UNL     1       7.816  -3.156 -14.036  0.00  0.00    +0.000 A 
ATOM     31  H   UNL     1       9.902  -0.766 -14.872  0.00  0.00    +0.000 HD
ENDBRANCH  18  21
ENDBRANCH   1  19
TORSDOF 7
