REMARK  Name = 
REMARK  7 active torsions:
REMARK  status: ('A' for Active; 'I' for Inactive)
REMARK    1  A    between atoms: C_2  and  C_20
REMARK    2  A    between atoms: N_3  and  C_4
REMARK    3  A    between atoms: C_4  and  C_5
REMARK    4  A    between atoms: C_8  and  C_9
REMARK    5  A    between atoms: C_9  and  N_10
REMARK    6  A    between atoms: N_10  and  C_11
REMARK    7  A    between atoms: C_11  and  C_12
REMARK                            x       y       z     vdW  Elec       q    Type
REMARK                         _______ _______ _______ _____ _____    ______ ____
ROOT
ATOM      1  C   UNL     1       3.246   3.869  -0.404  0.00  0.00    +0.000 C 
ATOM      2  C   UNL     1       4.324   3.516   0.638  0.00  0.00    +0.000 C 
ATOM      3  C   UNL     1       5.338   4.640   0.844  0.00  0.00    +0.000 C 
ATOM      4  C   UNL     1       4.667   5.979   1.197  0.00  0.00    +0.000 C 
ATOM      5  C   UNL     1       3.590   6.340   0.163  0.00  0.00    +0.000 C 
ATOM      6  C   UNL     1       2.582   5.211  -0.061  0.00  0.00    +0.000 C 
ENDROOT
BRANCH   1   7
ATOM      7  C   UNL     1       3.795   3.888  -1.839  0.00  0.00    +0.000 C 
BRANCH   7  10
ATOM      8  O   UNL     1       2.404   1.631  -2.923  0.00  0.00    +0.000 OA
ATOM      9  C   UNL     1       3.616   1.584  -2.764  0.00  0.00    +0.000 C 
ATOM     10  N   UNL     1       4.344   2.616  -2.233  0.00  0.00    +0.000 N 
ATOM     11  H   UNL     1       5.356   2.549  -2.204  0.00  0.00    +0.000 HD
BRANCH   9  12
ATOM     12  C   UNL     1       4.399   0.388  -3.089  0.00  0.00    +0.000 A 
ATOM     13  C   UNL     1       3.797  -0.868  -3.115  0.00  0.00    +0.000 A 
ATOM     14  S   UNL     1       4.877  -2.132  -3.501  0.00  0.00    +0.000 S 
ATOM     15  C   UNL     1       6.176  -1.046  -3.690  0.00  0.00    +0.000 A 
ATOM     16  N   UNL     1       7.408  -1.485  -4.062  0.00  0.00    +0.000 NA
ATOM     17  C   UNL     1       8.289  -0.546  -4.194  0.00  0.00    +0.000 A 
ATOM     18  N   UNL     1       8.051   0.787  -3.984  0.00  0.00    +0.000 N 
ATOM     19  C   UNL     1       6.843   1.265  -3.542  0.00  0.00    +0.000 A 
ATOM     20  O   UNL     1       6.715   2.448  -3.235  0.00  0.00    +0.000 OA
ATOM     21  C   UNL     1       5.802   0.258  -3.426  0.00  0.00    +0.000 A 
ATOM     22  H   UNL     1       8.793   1.467  -4.066  0.00  0.00    +0.000 HD
ENDBRANCH   9  12
ENDBRANCH   7  10
ENDBRANCH   1   7
BRANCH   4  23
ATOM     23  C   UNL     1       4.056   5.977   2.609  0.00  0.00    +0.000 C 
BRANCH  23  24
ATOM     24  N   UNL     1       5.092   5.715   3.604  0.00  0.00    +0.000 NA
ATOM     25  H   UNL     1       5.795   6.449   3.538  0.00  0.00    +0.000 HD
BRANCH  24  26
ATOM     26  C   UNL     1       4.508   5.689   4.939  0.00  0.00    +0.000 C 
BRANCH  26  27
ATOM     27  C   UNL     1       5.571   5.422   6.020  0.00  0.00    +0.000 C 
ATOM     28  C   UNL     1       4.899   5.412   7.403  0.00  0.00    +0.000 C 
ATOM     29  C   UNL     1       4.478   6.818   7.839  0.00  0.00    +0.000 C 
ATOM     30  N   UNL     1       5.597   7.763   7.809  0.00  0.00    +0.000 NA
ATOM     31  C   UNL     1       6.221   7.827   6.485  0.00  0.00    +0.000 C 
ATOM     32  C   UNL     1       6.713   6.453   6.037  0.00  0.00    +0.000 C 
ATOM     33  H   UNL     1       6.300   7.454   8.482  0.00  0.00    +0.000 HD
ENDBRANCH  26  27
ENDBRANCH  24  26
ENDBRANCH  23  24
ENDBRANCH   4  23
TORSDOF 7
