REMARK  Name = 
REMARK  4 active torsions:
REMARK  status: ('A' for Active; 'I' for Inactive)
REMARK    1  A    between atoms: C_2  and  C_4
REMARK    2  A    between atoms: C_7  and  C_8
REMARK    3  A    between atoms: C_8  and  N_9
REMARK    4  A    between atoms: C_14  and  C_15
REMARK                            x       y       z     vdW  Elec       q    Type
REMARK                         _______ _______ _______ _____ _____    ______ ____
ROOT
ATOM      1  N   UNL     1       4.786  -0.105  -6.024  0.00  0.00    +0.000 N 
ATOM      2  C   UNL     1       5.451  -0.208  -7.236  0.00  0.00    +0.000 A 
ATOM      3  C   UNL     1       6.169  -1.330  -7.648  0.00  0.00    +0.000 A 
ATOM      4  N   UNL     1       6.766  -1.445  -8.858  0.00  0.00    +0.000 NA
ATOM      5  C   UNL     1       6.591  -0.385  -9.677  0.00  0.00    +0.000 A 
ATOM      6  C   UNL     1       5.859   0.746  -9.319  0.00  0.00    +0.000 A 
ATOM      7  N   UNL     1       5.302   0.841  -8.078  0.00  0.00    +0.000 NA
ATOM      8  H   UNL     1       4.524   0.869  -5.888  0.00  0.00    +0.000 HD
ENDROOT
BRANCH   6   9
ATOM      9  C   UNL     1       5.633   1.880 -10.230  0.00  0.00    +0.000 A 
ATOM     10  C   UNL     1       5.562   1.724 -11.618  0.00  0.00    +0.000 A 
ATOM     11  N   UNL     1       5.377   2.730 -12.511  0.00  0.00    +0.000 NA
ATOM     12  C   UNL     1       5.238   3.972 -11.996  0.00  0.00    +0.000 A 
ATOM     13  C   UNL     1       5.270   4.246 -10.639  0.00  0.00    +0.000 A 
ATOM     14 CL   UNL     1       5.082   5.851 -10.062  0.00  0.00    +0.000 Cl
ATOM     15  C   UNL     1       5.466   3.190  -9.752  0.00  0.00    +0.000 A 
ENDBRANCH   6   9
BRANCH   1  16
ATOM     16  C   UNL     1       5.358  -0.752  -4.850  0.00  0.00    +0.000 C 
BRANCH  16  20
ATOM     17  C   UNL     1       3.056  -0.142  -1.299  0.00  0.00    +0.000 A 
ATOM     18  C   UNL     1       2.445  -0.743  -2.398  0.00  0.00    +0.000 A 
ATOM     19  C   UNL     1       3.180  -0.929  -3.570  0.00  0.00    +0.000 A 
ATOM     20  C   UNL     1       4.511  -0.507  -3.614  0.00  0.00    +0.000 A 
ATOM     21  N   UNL     1       5.113   0.095  -2.558  0.00  0.00    +0.000 NA
ATOM     22  C   UNL     1       4.373   0.273  -1.433  0.00  0.00    +0.000 A 
BRANCH  17  24
ATOM     23  N   UNL     1       1.339  -0.750   0.312  0.00  0.00    +0.000 N 
ATOM     24  C   UNL     1       2.370   0.088  -0.010  0.00  0.00    +0.000 C 
ATOM     25  O   UNL     1       2.733   0.967   0.759  0.00  0.00    +0.000 OA
ATOM     26  H   UNL     1       0.953  -0.646   1.243  0.00  0.00    +0.000 HD
ATOM     27  H   UNL     1       1.176  -1.626  -0.163  0.00  0.00    +0.000 HD
ENDBRANCH  17  24
ENDBRANCH  16  20
ENDBRANCH   1  16
TORSDOF 4
