REMARK  Name = 
REMARK  7 active torsions:
REMARK  status: ('A' for Active; 'I' for Inactive)
REMARK    1  A    between atoms: C_1  and  C_2
REMARK    2  A    between atoms: C_2  and  C_3
REMARK    3  A    between atoms: C_2  and  C_14
REMARK    4  A    between atoms: C_3  and  O_4
REMARK    5  A    between atoms: O_4  and  C_5
REMARK    6  A    between atoms: C_8  and  C_9
REMARK    7  A    between atoms: C_18  and  C_19
REMARK                            x       y       z     vdW  Elec       q    Type
REMARK                         _______ _______ _______ _____ _____    ______ ____
ROOT
ATOM      1  O   UNL     1       2.756   2.287   0.735  0.00  0.00    +0.000 OA
ENDROOT
BRANCH   1   2
ATOM      2  C   UNL     1       3.295   3.224   1.600  0.00  0.00    +0.000 A 
ATOM      3  C   UNL     1       3.178   4.577   1.294  0.00  0.00    +0.000 A 
ATOM      4  N   UNL     1       3.675   5.563   2.095  0.00  0.00    +0.000 NA
ATOM      5  C   UNL     1       4.297   5.117   3.225  0.00  0.00    +0.000 A 
ATOM      6  C   UNL     1       4.412   3.771   3.531  0.00  0.00    +0.000 A 
ATOM      7  N   UNL     1       3.915   2.802   2.727  0.00  0.00    +0.000 NA
BRANCH   5   8
ATOM      8  C   UNL     1       4.880   6.112   4.167  0.00  0.00    +0.000 C 
ATOM      9  N   UNL     1       4.754   7.427   3.814  0.00  0.00    +0.000 N 
ATOM     10  O   UNL     1       5.445   5.775   5.200  0.00  0.00    +0.000 OA
ATOM     11  H   UNL     1       4.289   7.684   2.952  0.00  0.00    +0.000 HD
ATOM     12  H   UNL     1       5.144   8.137   4.419  0.00  0.00    +0.000 HD
ENDBRANCH   5   8
ENDBRANCH   1   2
BRANCH   1  13
ATOM     13  C   UNL     1       3.018   0.960   1.210  0.00  0.00    +0.000 C 
BRANCH  13  15
ATOM     14  C   UNL     1       0.915   0.046   0.052  0.00  0.00    +0.000 C 
ATOM     15  C   UNL     1       2.383  -0.095   0.340  0.00  0.00    +0.000 C 
BRANCH  15  16
ATOM     16  C   UNL     1       2.920  -1.478   0.406  0.00  0.00    +0.000 A 
ATOM     17  C   UNL     1       3.670  -1.919   1.509  0.00  0.00    +0.000 A 
ATOM     18  C   UNL     1       4.082  -3.249   1.622  0.00  0.00    +0.000 A 
ATOM     19  C   UNL     1       3.754  -4.165   0.627  0.00  0.00    +0.000 A 
ATOM     20  C   UNL     1       3.036  -3.742  -0.494  0.00  0.00    +0.000 A 
ATOM     21  C   UNL     1       2.635  -2.403  -0.608  0.00  0.00    +0.000 A 
BRANCH  20  22
ATOM     22  C   UNL     1       2.689  -4.683  -1.516  0.00  0.00    +0.000 C 
ATOM     23  N   UNL     1       2.390  -5.451  -2.334  0.00  0.00    +0.000 NA
ENDBRANCH  20  22
ENDBRANCH  15  16
ENDBRANCH  13  15
ENDBRANCH   1  13
TORSDOF 6
