REMARK  Name = 
REMARK  7 active torsions:
REMARK  status: ('A' for Active; 'I' for Inactive)
REMARK    1  A    between atoms: C_1  and  C_2
REMARK    2  A    between atoms: C_5  and  O_6
REMARK    3  A    between atoms: O_6  and  C_7
REMARK    4  A    between atoms: C_11  and  C_12
REMARK    5  A    between atoms: C_13  and  C_14
REMARK    6  A    between atoms: C_14  and  C_15
REMARK    7  A    between atoms: C_18  and  C_19
REMARK                            x       y       z     vdW  Elec       q    Type
REMARK                         _______ _______ _______ _____ _____    ______ ____
ROOT
ATOM      1  C   UNL     1       5.401   5.119  -2.860  0.00  0.00    +0.000 C 
ATOM      2  C   UNL     1       4.927   6.190  -2.198  0.00  0.00    +0.000 C 
ENDROOT
BRANCH   1   7
ATOM      3  C   UNL     1       4.359   2.342  -0.752  0.00  0.00    +0.000 A 
ATOM      4  C   UNL     1       4.792   1.207  -1.412  0.00  0.00    +0.000 A 
ATOM      5  C   UNL     1       5.472   1.371  -2.614  0.00  0.00    +0.000 A 
ATOM      6  C   UNL     1       5.679   2.657  -3.113  0.00  0.00    +0.000 A 
ATOM      7  C   UNL     1       5.199   3.740  -2.385  0.00  0.00    +0.000 A 
ATOM      8  N   UNL     1       4.548   3.594  -1.208  0.00  0.00    +0.000 NA
BRANCH   3   9
ATOM      9  O   UNL     1       3.693   2.166   0.445  0.00  0.00    +0.000 OA
BRANCH   9  14
ATOM     10  C   UNL     1       1.679   3.625   3.046  0.00  0.00    +0.000 C 
ATOM     11  C   UNL     1       3.064   3.098   2.722  0.00  0.00    +0.000 C 
ATOM     12  N   UNL     1       4.120   3.995   3.243  0.00  0.00    +0.000 NA
ATOM     13  C   UNL     1       4.898   3.784   2.007  0.00  0.00    +0.000 C 
ATOM     14  C   UNL     1       3.601   3.346   1.284  0.00  0.00    +0.000 C 
ATOM     15  H   UNL     1       4.576   3.669   4.094  0.00  0.00    +0.000 HD
ENDBRANCH   9  14
ENDBRANCH   3   9
ENDBRANCH   1   7
BRANCH   2  16
ATOM     16  C   UNL     1       5.123   7.619  -2.603  0.00  0.00    +0.000 C 
BRANCH  16  17
ATOM     17  C   UNL     1       5.816   8.412  -1.525  0.00  0.00    +0.000 A 
ATOM     18  C   UNL     1       7.206   8.512  -1.486  0.00  0.00    +0.000 A 
ATOM     19  N   UNL     1       7.895   9.189  -0.538  0.00  0.00    +0.000 NA
ATOM     20  C   UNL     1       7.150   9.790   0.444  0.00  0.00    +0.000 A 
ATOM     21  C   UNL     1       5.766   9.730   0.498  0.00  0.00    +0.000 A 
ATOM     22  F   UNL     1       5.053  10.318   1.467  0.00  0.00    +0.000 F 
ATOM     23  C   UNL     1       5.093   9.030  -0.497  0.00  0.00    +0.000 A 
BRANCH  20  24
ATOM     24  C   UNL     1       7.928  10.539   1.482  0.00  0.00    +0.000 C 
ATOM     25  N   UNL     1       9.289  10.509   1.318  0.00  0.00    +0.000 N 
ATOM     26  O   UNL     1       7.422  11.145   2.416  0.00  0.00    +0.000 OA
ATOM     27  H   UNL     1       9.691   9.998   0.540  0.00  0.00    +0.000 HD
ATOM     28  H   UNL     1       9.879  10.988   1.983  0.00  0.00    +0.000 HD
ENDBRANCH  20  24
ENDBRANCH  16  17
ENDBRANCH   2  16
TORSDOF 6
