REMARK  Name = 
REMARK  7 active torsions:
REMARK  status: ('A' for Active; 'I' for Inactive)
REMARK    1  A    between atoms: C_1  and  N_2
REMARK    2  A    between atoms: N_2  and  C_3
REMARK    3  A    between atoms: N_2  and  C_4
REMARK    4  A    between atoms: C_4  and  C_5
REMARK    5  A    between atoms: C_5  and  C_6
REMARK    6  A    between atoms: N_8  and  C_9
REMARK    7  A    between atoms: C_9  and  C_10
REMARK                            x       y       z     vdW  Elec       q    Type
REMARK                         _______ _______ _______ _____ _____    ______ ____
ROOT
ATOM      1  C   UNL     1       4.940  -2.471   1.450  0.00  0.00    +0.000 A 
ATOM      2  C   UNL     1       5.715  -2.485   2.593  0.00  0.00    +0.000 A 
ATOM      3  N   UNL     1       5.799  -3.778   3.052  0.00  0.00    +0.000 N 
ATOM      4  C   UNL     1       5.138  -4.626   2.186  0.00  0.00    +0.000 A 
ATOM      5  C   UNL     1       4.948  -6.018   2.222  0.00  0.00    +0.000 A 
ATOM      6  C   UNL     1       4.206  -6.611   1.197  0.00  0.00    +0.000 A 
ATOM      7  C   UNL     1       3.673  -5.847   0.165  0.00  0.00    +0.000 A 
ATOM      8  C   UNL     1       3.864  -4.462   0.138  0.00  0.00    +0.000 A 
ATOM      9  C   UNL     1       4.601  -3.834   1.166  0.00  0.00    +0.000 A 
ENDROOT
BRANCH   1  10
ATOM     10  C   UNL     1       4.499  -1.262   0.681  0.00  0.00    +0.000 C 
BRANCH  10  11
ATOM     11  C   UNL     1       5.664  -0.452   0.091  0.00  0.00    +0.000 C 
BRANCH  11  13
ATOM     12  C   UNL     1       6.437   1.483  -1.112  0.00  0.00    +0.000 C 
ATOM     13  N   UNL     1       5.248   0.764  -0.644  0.00  0.00    +0.000 NA
ATOM     14  C   UNL     1       4.380   0.456  -1.782  0.00  0.00    +0.000 C 
ENDBRANCH  11  13
ENDBRANCH  10  11
ENDBRANCH   1  10
BRANCH   3  15
ATOM     15  C   UNL     1       6.535  -4.178   4.241  0.00  0.00    +0.000 C 
BRANCH  15  16
ATOM     16  C   UNL     1       5.669  -4.168   5.472  0.00  0.00    +0.000 A 
ATOM     17  N   UNL     1       4.976  -5.288   5.770  0.00  0.00    +0.000 NA
ATOM     18  C   UNL     1       4.240  -5.261   6.897  0.00  0.00    +0.000 A 
ATOM     19  C   UNL     1       4.186  -4.181   7.747  0.00  0.00    +0.000 A 
ATOM     20  C   UNL     1       4.939  -3.097   7.369  0.00  0.00    +0.000 A 
ATOM     21  N   UNL     1       5.685  -3.062   6.247  0.00  0.00    +0.000 NA
ENDBRANCH  15  16
ENDBRANCH   3  15
TORSDOF 5
