REMARK  Name = 
REMARK  5 active torsions:
REMARK  status: ('A' for Active; 'I' for Inactive)
REMARK    1  A    between atoms: C_1  and  N_2
REMARK    2  A    between atoms: C_3  and  C_5
REMARK    3  A    between atoms: C_8  and  N_9
REMARK    4  A    between atoms: N_9  and  C_10
REMARK    5  A    between atoms: C_10  and  C_11
REMARK                            x       y       z     vdW  Elec       q    Type
REMARK                         _______ _______ _______ _____ _____    ______ ____
ROOT
ATOM      1  C   UNL     1       4.709  -1.272  -0.374  0.00  0.00    +0.000 A 
ATOM      2  C   UNL     1       5.375  -0.726   0.717  0.00  0.00    +0.000 A 
ATOM      3  C   UNL     1       6.771  -0.668   0.686  0.00  0.00    +0.000 A 
ATOM      4  C   UNL     1       7.476  -1.182  -0.407  0.00  0.00    +0.000 A 
ATOM      5  C   UNL     1       6.700  -1.691  -1.455  0.00  0.00    +0.000 A 
ATOM      6  N   UNL     1       5.347  -1.764  -1.470  0.00  0.00    +0.000 NA
ENDROOT
BRANCH   1   9
ATOM      7  C   UNL     1       1.213  -1.966  -1.671  0.00  0.00    +0.000 C 
ATOM      8  N   UNL     1       2.643  -1.891  -1.514  0.00  0.00    +0.000 N 
ATOM      9  C   UNL     1       3.211  -1.308  -0.401  0.00  0.00    +0.000 C 
ATOM     10  O   UNL     1       2.551  -0.837   0.527  0.00  0.00    +0.000 OA
ATOM     11  H   UNL     1       3.268  -2.350  -2.169  0.00  0.00    +0.000 HD
ENDBRANCH   1   9
BRANCH   4  12
ATOM     12  N   UNL     1       8.871  -1.060  -0.435  0.00  0.00    +0.000 N 
ATOM     13  H   UNL     1       9.139  -0.123  -0.746  0.00  0.00    +0.000 HD
BRANCH  12  14
ATOM     14  C   UNL     1       9.627  -2.062  -1.204  0.00  0.00    +0.000 C 
BRANCH  14  15
ATOM     15  C   UNL     1      11.043  -2.177  -0.672  0.00  0.00    +0.000 A 
ATOM     16  C   UNL     1      11.257  -2.526   0.662  0.00  0.00    +0.000 A 
ATOM     17  C   UNL     1      12.562  -2.646   1.130  0.00  0.00    +0.000 A 
ATOM     18  C   UNL     1      13.618  -2.420   0.257  0.00  0.00    +0.000 A 
ATOM     19  C   UNL     1      13.323  -2.078  -1.052  0.00  0.00    +0.000 A 
ATOM     20  N   UNL     1      12.067  -1.951  -1.536  0.00  0.00    +0.000 NA
ENDBRANCH  14  15
ENDBRANCH  12  14
ENDBRANCH   4  12
TORSDOF 4
