REMARK  Name = 
REMARK  5 active torsions:
REMARK  status: ('A' for Active; 'I' for Inactive)
REMARK    1  A    between atoms: C_2  and  C_5
REMARK    2  A    between atoms: C_9  and  N_10
REMARK    3  A    between atoms: N_10  and  C_11
REMARK    4  A    between atoms: C_11  and  C_12
REMARK    5  A    between atoms: C_16  and  C_17
REMARK                            x       y       z     vdW  Elec       q    Type
REMARK                         _______ _______ _______ _____ _____    ______ ____
ROOT
ATOM      1  C   UNL     1       2.228   4.716  -1.792  0.00  0.00    +0.000 C 
ENDROOT
BRANCH   1   2
ATOM      2  C   UNL     1       2.185   6.163  -2.200  0.00  0.00    +0.000 A 
ATOM      3  C   UNL     1       2.692   7.152  -1.365  0.00  0.00    +0.000 A 
ATOM      4  N   UNL     1       2.698   8.467  -1.674  0.00  0.00    +0.000 NA
ATOM      5  C   UNL     1       2.160   8.814  -2.868  0.00  0.00    +0.000 A 
ATOM      6  C   UNL     1       1.608   7.925  -3.791  0.00  0.00    +0.000 A 
ATOM      7  C   UNL     1       1.621   6.572  -3.417  0.00  0.00    +0.000 A 
BRANCH   6   8
ATOM      8  C   UNL     1       1.037   8.374  -5.071  0.00  0.00    +0.000 A 
ATOM      9  C   UNL     1       1.545   9.464  -5.786  0.00  0.00    +0.000 A 
ATOM     10  C   UNL     1       0.930   9.855  -6.977  0.00  0.00    +0.000 A 
ATOM     11  C   UNL     1      -0.174   9.150  -7.430  0.00  0.00    +0.000 A 
ATOM     12 CL   UNL     1      -0.972   9.608  -8.878  0.00  0.00    +0.000 Cl
ATOM     13  C   UNL     1      -0.612   8.071  -6.682  0.00  0.00    +0.000 A 
ATOM     14  N   UNL     1      -0.031   7.666  -5.524  0.00  0.00    +0.000 NA
ENDBRANCH   6   8
ENDBRANCH   1   2
BRANCH   1  15
ATOM     15  N   UNL     1       1.022   4.391  -1.043  0.00  0.00    +0.000 N 
ATOM     16  H   UNL     1       0.180   4.636  -1.558  0.00  0.00    +0.000 HD
BRANCH  15  21
ATOM     17  C   UNL     1       1.870   0.950  -0.270  0.00  0.00    +0.000 A 
ATOM     18  C   UNL     1       0.719   0.550   0.394  0.00  0.00    +0.000 A 
ATOM     19  N   UNL     1      -0.334   1.374   0.589  0.00  0.00    +0.000 NA
ATOM     20  C   UNL     1      -0.184   2.627   0.093  0.00  0.00    +0.000 A 
ATOM     21  C   UNL     1       0.948   3.062  -0.600  0.00  0.00    +0.000 A 
ATOM     22  N   UNL     1       1.988   2.219  -0.776  0.00  0.00    +0.000 NA
BRANCH  17  24
ATOM     23  F   UNL     1       2.767  -1.240   0.167  0.00  0.00    +0.000 F 
ATOM     24  C   UNL     1       3.007  -0.033  -0.429  0.00  0.00    +0.000 C 
ATOM     25  F   UNL     1       4.177   0.409   0.113  0.00  0.00    +0.000 F 
ATOM     26  F   UNL     1       3.283  -0.325  -1.732  0.00  0.00    +0.000 F 
ENDBRANCH  17  24
ENDBRANCH  15  21
ENDBRANCH   1  15
TORSDOF 5
