REMARK  Name = 
REMARK  8 active torsions:
REMARK  status: ('A' for Active; 'I' for Inactive)
REMARK    1  A    between atoms: C_1  and  C_2
REMARK    2  A    between atoms: C_2  and  C_3
REMARK    3  A    between atoms: C_2  and  N_4
REMARK    4  A    between atoms: C_2  and  C_5
REMARK    5  A    between atoms: C_5  and  C_6
REMARK    6  A    between atoms: C_9  and  C_10
REMARK    7  A    between atoms: C_10  and  N_11
REMARK    8  A    between atoms: C_18  and  C_19
REMARK                            x       y       z     vdW  Elec       q    Type
REMARK                         _______ _______ _______ _____ _____    ______ ____
ROOT
ATOM      1  C   UNL     1       8.842   1.660   0.973  0.00  0.00    +0.000 C 
ENDROOT
BRANCH   1   2
ATOM      2  N   UNL     1       9.074   1.522   2.406  0.00  0.00    +0.000 N 
ATOM      3  C   UNL     1       9.232   0.283   2.985  0.00  0.00    +0.000 A 
ATOM      4  N   UNL     1       9.375   0.356   4.283  0.00  0.00    +0.000 NA
ATOM      5  C   UNL     1       9.323   1.688   4.560  0.00  0.00    +0.000 A 
ATOM      6  N   UNL     1       9.427   2.179   5.808  0.00  0.00    +0.000 NA
ATOM      7  C   UNL     1       9.378   3.506   5.864  0.00  0.00    +0.000 A 
ATOM      8  N   UNL     1       9.263   4.353   4.833  0.00  0.00    +0.000 NA
ATOM      9  C   UNL     1       9.157   3.843   3.570  0.00  0.00    +0.000 A 
ATOM     10  C   UNL     1       9.170   2.463   3.411  0.00  0.00    +0.000 A 
BRANCH   9  11
ATOM     11  C   UNL     1       9.080   4.868   2.489  0.00  0.00    +0.000 C 
ATOM     12  N   UNL     1       9.116   6.173   2.908  0.00  0.00    +0.000 N 
ATOM     13  O   UNL     1       9.014   4.615   1.297  0.00  0.00    +0.000 OA
ATOM     14  H   UNL     1       9.291   6.387   3.882  0.00  0.00    +0.000 HD
ATOM     15  H   UNL     1       9.122   6.908   2.215  0.00  0.00    +0.000 HD
ENDBRANCH   9  11
ENDBRANCH   1   2
BRANCH   1  19
ATOM     16  C   UNL     1       4.583   1.288   0.256  0.00  0.00    +0.000 A 
ATOM     17  C   UNL     1       5.176   2.548   0.380  0.00  0.00    +0.000 A 
ATOM     18  C   UNL     1       6.554   2.671   0.564  0.00  0.00    +0.000 A 
ATOM     19  C   UNL     1       7.373   1.539   0.640  0.00  0.00    +0.000 A 
ATOM     20  C   UNL     1       6.783   0.279   0.459  0.00  0.00    +0.000 A 
ATOM     21  C   UNL     1       5.404   0.155   0.268  0.00  0.00    +0.000 A 
BRANCH  16  22
ATOM     22  C   UNL     1       3.079   1.151   0.194  0.00  0.00    +0.000 C 
BRANCH  22  24
ATOM     23  C   UNL     1       2.849   0.053  -2.101  0.00  0.00    +0.000 C 
ATOM     24  C   UNL     1       2.404   1.209  -1.200  0.00  0.00    +0.000 C 
ATOM     25  C   UNL     1       2.655   2.547  -1.913  0.00  0.00    +0.000 C 
BRANCH  24  26
ATOM     26  N   UNL     1       0.946   1.059  -0.993  0.00  0.00    +0.000 NA
ATOM     27  H   UNL     1       0.442   1.335  -1.835  0.00  0.00    +0.000 HD
ATOM     28  H   UNL     1       0.628   1.685  -0.254  0.00  0.00    +0.000 HD
ENDBRANCH  24  26
ENDBRANCH  22  24
ENDBRANCH  16  22
ENDBRANCH   1  19
TORSDOF 6
