REMARK  Name = 
REMARK  4 active torsions:
REMARK  status: ('A' for Active; 'I' for Inactive)
REMARK    1  A    between atoms: C_2  and  C_4
REMARK    2  A    between atoms: C_7  and  C_8
REMARK    3  A    between atoms: C_8  and  C_9
REMARK    4  A    between atoms: C_9  and  C_10
REMARK                            x       y       z     vdW  Elec       q    Type
REMARK                         _______ _______ _______ _____ _____    ______ ____
ROOT
ATOM      1  C   UNL     1       9.406   1.844   2.320  0.00  0.00    +0.000 A 
ATOM      2  N   UNL     1       8.979   1.339   3.504  0.00  0.00    +0.000 NA
ATOM      3  C   UNL     1       7.706   1.666   3.821  0.00  0.00    +0.000 A 
ATOM      4  C   UNL     1       6.895   2.472   3.042  0.00  0.00    +0.000 A 
ATOM      5  N   UNL     1       7.375   2.910   1.857  0.00  0.00    +0.000 NA
ATOM      6  N   UNL     1       8.658   2.595   1.488  0.00  0.00    +0.000 NA
ENDROOT
BRANCH   1   8
ATOM      7  N   UNL     1      11.569   0.871   2.874  0.00  0.00    +0.000 N 
ATOM      8  C   UNL     1      10.840   1.590   1.954  0.00  0.00    +0.000 C 
ATOM      9  O   UNL     1      11.367   1.994   0.921  0.00  0.00    +0.000 OA
ATOM     10  H   UNL     1      12.563   0.748   2.732  0.00  0.00    +0.000 HD
ATOM     11  H   UNL     1      11.143   0.594   3.752  0.00  0.00    +0.000 HD
ENDBRANCH   1   8
BRANCH   4  12
ATOM     12  C   UNL     1       5.469   2.832   3.380  0.00  0.00    +0.000 C 
BRANCH  12  13
ATOM     13  C   UNL     1       5.197   3.096   4.861  0.00  0.00    +0.000 C 
ATOM     14  C   UNL     1       4.749   1.911   5.708  0.00  0.00    +0.000 C 
ATOM     15  C   UNL     1       3.756   2.974   5.365  0.00  0.00    +0.000 C 
BRANCH  13  16
ATOM     16  C   UNL     1       5.986   4.230   5.509  0.00  0.00    +0.000 A 
ATOM     17  C   UNL     1       5.590   5.572   5.369  0.00  0.00    +0.000 A 
ATOM     18  C   UNL     1       6.259   6.607   6.035  0.00  0.00    +0.000 A 
ATOM     19  C   UNL     1       7.355   6.314   6.843  0.00  0.00    +0.000 A 
ATOM     20  C   UNL     1       7.773   4.996   6.971  0.00  0.00    +0.000 A 
ATOM     21  F   UNL     1       8.822   4.705   7.747  0.00  0.00    +0.000 F 
ATOM     22  C   UNL     1       7.101   3.968   6.321  0.00  0.00    +0.000 A 
ENDBRANCH  13  16
ENDBRANCH  12  13
ENDBRANCH   4  12
TORSDOF 4
