REMARK  Name = 
REMARK  4 active torsions:
REMARK  status: ('A' for Active; 'I' for Inactive)
REMARK    1  A    between atoms: C_1  and  S_2
REMARK    2  A    between atoms: S_2  and  C_5
REMARK    3  A    between atoms: C_9  and  C_10
REMARK    4  A    between atoms: C_11  and  C_12
REMARK                            x       y       z     vdW  Elec       q    Type
REMARK                         _______ _______ _______ _____ _____    ______ ____
ROOT
ATOM      1  C   UNL     1       3.251   1.121   1.265  0.00  0.00    +0.000 A 
ATOM      2  C   UNL     1       3.941   0.704   2.383  0.00  0.00    +0.000 A 
ATOM      3  N   UNL     1       4.305   1.584   3.347  0.00  0.00    +0.000 NA
ATOM      4  C   UNL     1       3.943   2.874   3.124  0.00  0.00    +0.000 A 
ATOM      5  C   UNL     1       3.250   3.288   1.985  0.00  0.00    +0.000 A 
ATOM      6  N   UNL     1       2.888   2.406   1.025  0.00  0.00    +0.000 NA
ENDROOT
BRANCH   1   8
ATOM      7  C   UNL     1       1.921   0.902  -1.195  0.00  0.00    +0.000 C 
ATOM      8  S   UNL     1       2.762  -0.050   0.045  0.00  0.00    +0.000 S 
ATOM      9  O   UNL     1       1.789  -0.930   0.666  0.00  0.00    +0.000 OA
ATOM     10  O   UNL     1       3.975  -0.581  -0.549  0.00  0.00    +0.000 OA
ENDBRANCH   1   8
BRANCH   5  11
ATOM     11  C   UNL     1       2.885   4.694   1.787  0.00  0.00    +0.000 C 
ATOM     12  C   UNL     1       2.228   5.149   0.708  0.00  0.00    +0.000 C 
BRANCH  12  13
ATOM     13  C   UNL     1       1.852   6.556   0.521  0.00  0.00    +0.000 A 
ATOM     14  C   UNL     1       2.594   7.618   1.042  0.00  0.00    +0.000 A 
ATOM     15  C   UNL     1       2.185   8.931   0.818  0.00  0.00    +0.000 A 
ATOM     16  C   UNL     1       1.047   9.143   0.057  0.00  0.00    +0.000 A 
ATOM     17  N   UNL     1       0.313   8.149  -0.483  0.00  0.00    +0.000 NA
ATOM     18  C   UNL     1       0.734   6.885  -0.243  0.00  0.00    +0.000 A 
ENDBRANCH  12  13
ENDBRANCH   5  11
TORSDOF 3
