REMARK  Name = 
REMARK  6 active torsions:
REMARK  status: ('A' for Active; 'I' for Inactive)
REMARK    1  A    between atoms: C_2  and  C_25
REMARK    2  A    between atoms: N_3  and  C_4
REMARK    3  A    between atoms: C_4  and  C_5
REMARK    4  A    between atoms: C_8  and  C_9
REMARK    5  A    between atoms: C_9  and  N_10
REMARK    6  A    between atoms: C_11  and  C_13
REMARK                            x       y       z     vdW  Elec       q    Type
REMARK                         _______ _______ _______ _____ _____    ______ ____
ROOT
ATOM      1  C   UNL     1       3.289   0.327  -3.490  0.00  0.00    +0.000 C 
ATOM      2  C   UNL     1       4.239  -0.874  -3.492  0.00  0.00    +0.000 C 
ATOM      3  C   UNL     1       5.275  -0.785  -4.604  0.00  0.00    +0.000 C 
ATOM      4  C   UNL     1       6.090   0.514  -4.540  0.00  0.00    +0.000 C 
ATOM      5  C   UNL     1       5.133   1.715  -4.581  0.00  0.00    +0.000 C 
ATOM      6  C   UNL     1       4.079   1.645  -3.474  0.00  0.00    +0.000 C 
ENDROOT
BRANCH   1   7
ATOM      7  C   UNL     1       2.333   0.265  -2.287  0.00  0.00    +0.000 C 
BRANCH   7  10
ATOM      8  O   UNL     1       1.302  -1.157  -0.065  0.00  0.00    +0.000 OA
ATOM      9  C   UNL     1       1.009  -1.525  -1.201  0.00  0.00    +0.000 C 
ATOM     10  N   UNL     1       1.484  -0.906  -2.335  0.00  0.00    +0.000 N 
ATOM     11  H   UNL     1       1.039  -1.134  -3.213  0.00  0.00    +0.000 HD
BRANCH   9  12
ATOM     12  C   UNL     1       0.127  -2.644  -1.445  0.00  0.00    +0.000 A 
ATOM     13  C   UNL     1      -0.246  -3.299  -2.611  0.00  0.00    +0.000 A 
ATOM     14  C   UNL     1      -1.143  -4.341  -2.268  0.00  0.00    +0.000 A 
ATOM     15  C   UNL     1      -1.296  -4.313  -0.902  0.00  0.00    +0.000 A 
ATOM     16  N   UNL     1      -0.523  -3.293  -0.414  0.00  0.00    +0.000 N 
ATOM     17  H   UNL     1      -0.423  -3.035   0.562  0.00  0.00    +0.000 HD
ENDBRANCH   9  12
ENDBRANCH   7  10
ENDBRANCH   1   7
BRANCH   4  18
ATOM     18  C   UNL     1       7.121   0.604  -5.680  0.00  0.00    +0.000 C 
BRANCH  18  19
ATOM     19  N   UNL     1       8.119  -0.448  -5.620  0.00  0.00    +0.000 N 
ATOM     20  C   UNL     1       9.173  -0.486  -6.502  0.00  0.00    +0.000 C 
ATOM     21  O   UNL     1       9.370   0.405  -7.324  0.00  0.00    +0.000 OA
ATOM     22  H   UNL     1       7.869  -1.313  -5.154  0.00  0.00    +0.000 HD
BRANCH  20  23
ATOM     23  C   UNL     1      10.100  -1.620  -6.366  0.00  0.00    +0.000 A 
ATOM     24  C   UNL     1      11.413  -1.486  -6.797  0.00  0.00    +0.000 A 
ATOM     25  S   UNL     1      12.373  -2.866  -6.509  0.00  0.00    +0.000 S 
ATOM     26  C   UNL     1      11.055  -3.713  -5.846  0.00  0.00    +0.000 A 
ATOM     27  N   UNL     1      11.196  -4.992  -5.406  0.00  0.00    +0.000 NA
ATOM     28  C   UNL     1      10.108  -5.525  -4.953  0.00  0.00    +0.000 A 
ATOM     29  N   UNL     1       8.894  -4.892  -4.904  0.00  0.00    +0.000 N 
ATOM     30  C   UNL     1       8.712  -3.600  -5.330  0.00  0.00    +0.000 A 
ATOM     31  O   UNL     1       7.615  -3.058  -5.261  0.00  0.00    +0.000 OA
ATOM     32  C   UNL     1       9.901  -2.951  -5.838  0.00  0.00    +0.000 A 
ATOM     33  H   UNL     1       8.079  -5.364  -4.541  0.00  0.00    +0.000 HD
ENDBRANCH  20  23
ENDBRANCH  18  19
ENDBRANCH   4  18
TORSDOF 6
