REMARK  Name = 
REMARK  7 active torsions:
REMARK  status: ('A' for Active; 'I' for Inactive)
REMARK    1  A    between atoms: N_1  and  C_2
REMARK    2  A    between atoms: C_2  and  C_3
REMARK    3  A    between atoms: C_2  and  C_19
REMARK    4  A    between atoms: C_3  and  C_4
REMARK    5  A    between atoms: C_7  and  S_8
REMARK    6  A    between atoms: S_8  and  N_11
REMARK    7  A    between atoms: N_11  and  C_12
REMARK                            x       y       z     vdW  Elec       q    Type
REMARK                         _______ _______ _______ _____ _____    ______ ____
ROOT
ATOM      1  C   UNL     1       0.521  -1.698  -0.085  0.00  0.00    +0.000 A 
ATOM      2  C   UNL     1       1.366  -2.815  -0.162  0.00  0.00    +0.000 A 
ATOM      3  C   UNL     1       0.840  -4.105  -0.271  0.00  0.00    +0.000 A 
ATOM      4  C   UNL     1      -0.543  -4.287  -0.271  0.00  0.00    +0.000 A 
ATOM      5  C   UNL     1      -1.402  -3.198  -0.128  0.00  0.00    +0.000 A 
ATOM      6  C   UNL     1      -0.869  -1.912  -0.031  0.00  0.00    +0.000 A 
ENDROOT
BRANCH   4   7
ATOM      7  S   UNL     1      -1.226  -5.901  -0.519  0.00  0.00    +0.000 S 
ATOM      8  O   UNL     1      -2.272  -5.780  -1.514  0.00  0.00    +0.000 OA
ATOM      9  O   UNL     1      -0.152  -6.860  -0.656  0.00  0.00    +0.000 OA
BRANCH   7  10
ATOM     10  N   UNL     1      -2.016  -6.209   0.941  0.00  0.00    +0.000 NA
ATOM     11  H   UNL     1      -2.974  -6.504   0.754  0.00  0.00    +0.000 HD
BRANCH  10  12
ATOM     12  C   UNL     1      -1.280  -6.944   1.985  0.00  0.00    +0.000 C 
ATOM     13  C   UNL     1      -2.168  -7.143   3.215  0.00  0.00    +0.000 C 
ATOM     14  C   UNL     1      -1.461  -6.404   4.339  0.00  0.00    +0.000 C 
ATOM     15  N   UNL     1      -0.043  -6.431   3.972  0.00  0.00    +0.000 NA
ATOM     16  C   UNL     1      -0.062  -6.185   2.523  0.00  0.00    +0.000 C 
ATOM     17  H   UNL     1       0.325  -7.368   4.139  0.00  0.00    +0.000 HD
ENDBRANCH  10  12
ENDBRANCH   7  10
ENDBRANCH   4   7
BRANCH   1  18
ATOM     18  C   UNL     1       1.018  -0.261  -0.112  0.00  0.00    +0.000 C 
BRANCH  18  19
ATOM     19  C   UNL     1       2.527   0.000  -0.352  0.00  0.00    +0.000 C 
BRANCH  19  20
ATOM     20  C   UNL     1       2.896   1.473  -0.330  0.00  0.00    +0.000 A 
ATOM     21  C   UNL     1       3.762   2.007   0.613  0.00  0.00    +0.000 A 
ATOM     22  S   UNL     1       4.032   3.681   0.419  0.00  0.00    +0.000 S 
ATOM     23  C   UNL     1       3.003   3.751  -0.935  0.00  0.00    +0.000 A 
ATOM     24  N   UNL     1       2.786   4.924  -1.589  0.00  0.00    +0.000 NA
ATOM     25  C   UNL     1       1.983   4.830  -2.596  0.00  0.00    +0.000 A 
ATOM     26  N   UNL     1       1.385   3.669  -3.015  0.00  0.00    +0.000 N 
ATOM     27  C   UNL     1       1.619   2.449  -2.421  0.00  0.00    +0.000 A 
ATOM     28  O   UNL     1       1.155   1.414  -2.887  0.00  0.00    +0.000 OA
ATOM     29  C   UNL     1       2.475   2.511  -1.248  0.00  0.00    +0.000 A 
ATOM     30  H   UNL     1       0.789   3.660  -3.829  0.00  0.00    +0.000 HD
ENDBRANCH  19  20
BRANCH  19  31
ATOM     31  N   UNL     1       3.040  -0.560  -1.602  0.00  0.00    +0.000 NA
ATOM     32  H   UNL     1       4.004  -0.266  -1.746  0.00  0.00    +0.000 HD
ATOM     33  H   UNL     1       2.489  -0.192  -2.382  0.00  0.00    +0.000 HD
ENDBRANCH  19  31
ENDBRANCH  18  19
ENDBRANCH   1  18
TORSDOF 7
