REMARK  Name = 
REMARK  7 active torsions:
REMARK  status: ('A' for Active; 'I' for Inactive)
REMARK    1  A    between atoms: C_2  and  C_20
REMARK    2  A    between atoms: N_3  and  C_4
REMARK    3  A    between atoms: C_4  and  C_5
REMARK    4  A    between atoms: C_8  and  C_9
REMARK    5  A    between atoms: C_9  and  N_10
REMARK    6  A    between atoms: N_10  and  C_11
REMARK    7  A    between atoms: C_11  and  C_12
REMARK                            x       y       z     vdW  Elec       q    Type
REMARK                         _______ _______ _______ _____ _____    ______ ____
ROOT
ATOM      1  C   UNL     1       3.798   3.801  -1.508  0.00  0.00    +0.000 C 
ENDROOT
BRANCH   1   2
ATOM      2  C   UNL     1       3.186   3.769  -0.096  0.00  0.00    +0.000 C 
ATOM      3  C   UNL     1       4.207   3.444   1.008  0.00  0.00    +0.000 C 
ATOM      4  C   UNL     1       5.238   4.554   1.211  0.00  0.00    +0.000 C 
ATOM      5  C   UNL     1       4.584   5.919   1.484  0.00  0.00    +0.000 C 
ATOM      6  C   UNL     1       3.483   6.245   0.455  0.00  0.00    +0.000 C 
ATOM      7  C   UNL     1       2.498   5.099   0.234  0.00  0.00    +0.000 C 
BRANCH   5   8
ATOM      8  C   UNL     1       5.662   7.027   1.515  0.00  0.00    +0.000 C 
BRANCH   8   9
ATOM      9  N   UNL     1       5.053   8.319   1.815  0.00  0.00    +0.000 NA
ATOM     10  H   UNL     1       4.618   8.297   2.737  0.00  0.00    +0.000 HD
BRANCH   9  11
ATOM     11  C   UNL     1       6.006   9.421   1.756  0.00  0.00    +0.000 C 
BRANCH  11  12
ATOM     12  C   UNL     1       5.303  10.731   2.017  0.00  0.00    +0.000 A 
ATOM     13  C   UNL     1       5.628  11.521   3.123  0.00  0.00    +0.000 A 
ATOM     14  C   UNL     1       4.936  12.707   3.319  0.00  0.00    +0.000 A 
ATOM     15  N   UNL     1       3.957  13.154   2.503  0.00  0.00    +0.000 NA
ATOM     16  C   UNL     1       3.656  12.377   1.441  0.00  0.00    +0.000 A 
ATOM     17  C   UNL     1       4.292  11.179   1.158  0.00  0.00    +0.000 A 
ENDBRANCH  11  12
ENDBRANCH   9  11
ENDBRANCH   8   9
ENDBRANCH   5   8
ENDBRANCH   1   2
BRANCH   1  20
ATOM     18  O   UNL     1       2.516   1.509  -2.619  0.00  0.00    +0.000 OA
ATOM     19  C   UNL     1       3.727   1.488  -2.421  0.00  0.00    +0.000 C 
ATOM     20  N   UNL     1       4.407   2.549  -1.879  0.00  0.00    +0.000 N 
ATOM     21  H   UNL     1       5.419   2.511  -1.831  0.00  0.00    +0.000 HD
BRANCH  19  22
ATOM     22  C   UNL     1       4.539   0.299  -2.720  0.00  0.00    +0.000 A 
ATOM     23  C   UNL     1       3.937  -0.949  -2.810  0.00  0.00    +0.000 A 
ATOM     24  S   UNL     1       5.035  -2.214  -3.135  0.00  0.00    +0.000 S 
ATOM     25  C   UNL     1       6.346  -1.133  -3.216  0.00  0.00    +0.000 A 
ATOM     26  N   UNL     1       7.601  -1.575  -3.497  0.00  0.00    +0.000 NA
ATOM     27  C   UNL     1       8.494  -0.644  -3.564  0.00  0.00    +0.000 A 
ATOM     28  N   UNL     1       8.248   0.688  -3.362  0.00  0.00    +0.000 N 
ATOM     29  C   UNL     1       7.012   1.170  -3.013  0.00  0.00    +0.000 A 
ATOM     30  O   UNL     1       6.859   2.352  -2.722  0.00  0.00    +0.000 OA
ATOM     31  C   UNL     1       5.959   0.172  -2.969  0.00  0.00    +0.000 A 
ATOM     32  H   UNL     1       8.995   1.366  -3.397  0.00  0.00    +0.000 HD
ENDBRANCH  19  22
ENDBRANCH   1  20
TORSDOF 7
