REMARK  Name = 
REMARK  12 active torsions:
REMARK  status: ('A' for Active; 'I' for Inactive)
REMARK    1  A    between atoms: C_1  and  O_2
REMARK    2  A    between atoms: O_2  and  C_3
REMARK    3  A    between atoms: C_10  and  C_11
REMARK    4  A    between atoms: N_13  and  C_14
REMARK    5  A    between atoms: C_14  and  C_15
REMARK    6  A    between atoms: C_18  and  C_19
REMARK    7  A    between atoms: C_19  and  N_20
REMARK    8  A    between atoms: N_20  and  C_21
REMARK    9  A    between atoms: N_20  and  C_22
REMARK   10  A    between atoms: C_22  and  C_23
REMARK   11  A    between atoms: C_26  and  S_27
REMARK   12  A    between atoms: S_27  and  C_28
REMARK                            x       y       z     vdW  Elec       q    Type
REMARK                         _______ _______ _______ _____ _____    ______ ____
ROOT
ATOM      1  C   UNL     1       2.292  -3.161   1.019  0.00  0.00    +0.000 A 
ATOM      2  C   UNL     1       1.470  -4.261   1.274  0.00  0.00    +0.000 A 
ATOM      3  C   UNL     1       0.474  -4.169   2.241  0.00  0.00    +0.000 A 
ATOM      4  C   UNL     1       0.337  -2.982   2.958  0.00  0.00    +0.000 A 
ATOM      5  N   UNL     1       1.143  -1.909   2.751  0.00  0.00    +0.000 NA
ATOM      6  C   UNL     1       2.089  -2.022   1.790  0.00  0.00    +0.000 A 
ENDROOT
BRANCH   1   7
ATOM      7  C   UNL     1       3.381  -3.226  -0.010  0.00  0.00    +0.000 C 
BRANCH   7  10
ATOM      8  C   UNL     1       5.572  -4.350  -0.162  0.00  0.00    +0.000 C 
ATOM      9  O   UNL     1       5.426  -4.569  -1.362  0.00  0.00    +0.000 OA
ATOM     10  N   UNL     1       4.604  -3.721   0.571  0.00  0.00    +0.000 N 
ATOM     11  H   UNL     1       4.812  -3.437   1.518  0.00  0.00    +0.000 HD
BRANCH   8  19
ATOM     12  C   UNL     1       6.693  -3.922   3.066  0.00  0.00    +0.000 A 
ATOM     13  N   UNL     1       7.320  -3.985   4.260  0.00  0.00    +0.000 NA
ATOM     14  C   UNL     1       8.449  -4.691   4.343  0.00  0.00    +0.000 A 
ATOM     15  N   UNL     1       9.059  -5.345   3.359  0.00  0.00    +0.000 NA
ATOM     16  C   UNL     1       8.400  -5.267   2.190  0.00  0.00    +0.000 A 
ATOM     17  S   UNL     1       9.045  -6.028   0.815  0.00  0.00    +0.000 S 
ATOM     18  C   UNL     1       7.732  -5.525  -0.138  0.00  0.00    +0.000 A 
ATOM     19  C   UNL     1       6.783  -4.783   0.555  0.00  0.00    +0.000 A 
ATOM     20  C   UNL     1       7.204  -4.599   1.943  0.00  0.00    +0.000 A 
BRANCH  12  22
ATOM     21  C   UNL     1       5.122  -2.585   4.199  0.00  0.00    +0.000 C 
ATOM     22  O   UNL     1       5.552  -3.151   2.963  0.00  0.00    +0.000 OA
ENDBRANCH  12  22
ENDBRANCH   8  19
ENDBRANCH   7  10
ENDBRANCH   1   7
BRANCH   4  23
ATOM     23  C   UNL     1      -0.721  -2.868   4.045  0.00  0.00    +0.000 C 
BRANCH  23  24
ATOM     24  N   UNL     1      -0.567  -3.865   5.133  0.00  0.00    +0.000 NA
ATOM     25  C   UNL     1       0.702  -3.654   5.842  0.00  0.00    +0.000 C 
BRANCH  24  26
ATOM     26  C   UNL     1      -1.679  -3.768   6.096  0.00  0.00    +0.000 C 
BRANCH  26  27
ATOM     27  C   UNL     1      -3.025  -4.159   5.519  0.00  0.00    +0.000 A 
ATOM     28  C   UNL     1      -3.214  -5.428   4.946  0.00  0.00    +0.000 A 
ATOM     29  C   UNL     1      -4.461  -5.802   4.442  0.00  0.00    +0.000 A 
ATOM     30  C   UNL     1      -5.530  -4.907   4.522  0.00  0.00    +0.000 A 
ATOM     31  C   UNL     1      -5.355  -3.631   5.061  0.00  0.00    +0.000 A 
ATOM     32  C   UNL     1      -4.105  -3.263   5.564  0.00  0.00    +0.000 A 
BRANCH  30  33
ATOM     33  S   UNL     1      -7.120  -5.384   3.889  0.00  0.00    +0.000 S 
ATOM     34  C   UNL     1      -7.898  -6.163   5.281  0.00  0.00    +0.000 C 
ATOM     35  O   UNL     1      -7.855  -4.170   3.588  0.00  0.00    +0.000 OA
ATOM     36  O   UNL     1      -6.901  -6.393   2.872  0.00  0.00    +0.000 OA
ENDBRANCH  30  33
ENDBRANCH  26  27
ENDBRANCH  24  26
ENDBRANCH  23  24
ENDBRANCH   4  23
TORSDOF 9
