REMARK  Name = 
REMARK  8 active torsions:
REMARK  status: ('A' for Active; 'I' for Inactive)
REMARK    1  A    between atoms: C_1  and  C_2
REMARK    2  A    between atoms: C_2  and  N_3
REMARK    3  A    between atoms: C_2  and  C_25
REMARK    4  A    between atoms: N_3  and  C_4
REMARK    5  A    between atoms: C_4  and  C_5
REMARK    6  A    between atoms: C_8  and  C_9
REMARK    7  A    between atoms: C_9  and  N_10
REMARK    8  A    between atoms: C_11  and  C_13
REMARK                            x       y       z     vdW  Elec       q    Type
REMARK                         _______ _______ _______ _____ _____    ______ ____
ROOT
ATOM      1  C   UNL     1      -0.994  -0.419  -1.436  0.00  0.00    +0.000 A 
ATOM      2  N   UNL     1      -1.526  -1.271  -0.535  0.00  0.00    +0.000 NA
ATOM      3  C   UNL     1      -2.865  -1.398  -0.538  0.00  0.00    +0.000 A 
ATOM      4  C   UNL     1      -3.700  -0.712  -1.393  0.00  0.00    +0.000 A 
ATOM      5  C   UNL     1      -3.060   0.164  -2.246  0.00  0.00    +0.000 A 
ATOM      6  N   UNL     1      -1.720   0.324  -2.297  0.00  0.00    +0.000 NA
ENDROOT
BRANCH   1   7
ATOM      7  C   UNL     1       0.525  -0.288  -1.476  0.00  0.00    +0.000 C 
BRANCH   7   8
ATOM      8  N   UNL     1       1.206  -1.562  -1.761  0.00  0.00    +0.000 NA
ATOM      9  H   UNL     1       0.879  -1.901  -2.667  0.00  0.00    +0.000 HD
BRANCH   8  11
ATOM     10  C   UNL     1       3.289  -0.940  -0.507  0.00  0.00    +0.000 C 
ATOM     11  C   UNL     1       2.674  -1.463  -1.813  0.00  0.00    +0.000 C 
BRANCH  11  12
ATOM     12  C   UNL     1       3.284  -2.830  -2.153  0.00  0.00    +0.000 A 
ATOM     13  C   UNL     1       3.041  -3.933  -1.332  0.00  0.00    +0.000 A 
ATOM     14  C   UNL     1       3.593  -5.164  -1.673  0.00  0.00    +0.000 A 
ATOM     15  C   UNL     1       4.368  -5.263  -2.819  0.00  0.00    +0.000 A 
ATOM     16  C   UNL     1       4.550  -4.126  -3.584  0.00  0.00    +0.000 A 
ATOM     17  N   UNL     1       4.031  -2.914  -3.277  0.00  0.00    +0.000 NA
ENDBRANCH  11  12
ENDBRANCH   8  11
ENDBRANCH   7   8
ENDBRANCH   1   7
BRANCH   4  18
ATOM     18  C   UNL     1      -5.177  -0.905  -1.376  0.00  0.00    +0.000 C 
BRANCH  18  19
ATOM     19  N   UNL     1      -5.829  -0.059  -0.410  0.00  0.00    +0.000 N 
ATOM     20  C   UNL     1      -7.197  -0.057  -0.292  0.00  0.00    +0.000 C 
ATOM     21  O   UNL     1      -7.901  -0.754  -1.019  0.00  0.00    +0.000 OA
ATOM     22  H   UNL     1      -5.264   0.328   0.342  0.00  0.00    +0.000 HD
BRANCH  20  23
ATOM     23  C   UNL     1      -7.785   0.866   0.689  0.00  0.00    +0.000 A 
ATOM     24  C   UNL     1      -9.166   0.970   0.801  0.00  0.00    +0.000 A 
ATOM     25  S   UNL     1      -9.672   2.259   1.798  0.00  0.00    +0.000 S 
ATOM     26  C   UNL     1      -8.064   2.687   2.150  0.00  0.00    +0.000 A 
ATOM     27  N   UNL     1      -7.772   3.788   2.893  0.00  0.00    +0.000 NA
ATOM     28  C   UNL     1      -6.510   3.964   3.111  0.00  0.00    +0.000 A 
ATOM     29  N   UNL     1      -5.519   3.118   2.686  0.00  0.00    +0.000 N 
ATOM     30  C   UNL     1      -5.774   1.976   1.968  0.00  0.00    +0.000 A 
ATOM     31  O   UNL     1      -4.883   1.174   1.699  0.00  0.00    +0.000 OA
ATOM     32  C   UNL     1      -7.162   1.793   1.602  0.00  0.00    +0.000 A 
ATOM     33  H   UNL     1      -4.557   3.275   2.953  0.00  0.00    +0.000 HD
ENDBRANCH  20  23
ENDBRANCH  18  19
ENDBRANCH   4  18
TORSDOF 7
