REMARK  Name = 
REMARK  5 active torsions:
REMARK  status: ('A' for Active; 'I' for Inactive)
REMARK    1  A    between atoms: N_1  and  C_2
REMARK    2  A    between atoms: C_2  and  C_3
REMARK    3  A    between atoms: C_6  and  C_7
REMARK    4  A    between atoms: C_7  and  O_8
REMARK    5  A    between atoms: O_8  and  C_9
REMARK                            x       y       z     vdW  Elec       q    Type
REMARK                         _______ _______ _______ _____ _____    ______ ____
ROOT
ATOM      1  C   UNL     1       2.859   0.997  -1.102  0.00  0.00    +0.000 A 
ATOM      2  C   UNL     1       2.620   2.370  -1.011  0.00  0.00    +0.000 A 
ATOM      3  C   UNL     1       3.021   3.218  -2.041  0.00  0.00    +0.000 A 
ATOM      4  C   UNL     1       3.648   2.669  -3.156  0.00  0.00    +0.000 A 
ATOM      5  N   UNL     1       3.921   1.342  -3.255  0.00  0.00    +0.000 NA
ATOM      6  C   UNL     1       3.528   0.546  -2.234  0.00  0.00    +0.000 A 
ENDROOT
BRANCH   1   7
ATOM      7  C   UNL     1       2.415   0.049  -0.028  0.00  0.00    +0.000 C 
BRANCH   7   8
ATOM      8  N   UNL     1       0.965   0.073   0.140  0.00  0.00    +0.000 NA
ATOM      9  H   UNL     1       0.693  -0.635   0.819  0.00  0.00    +0.000 HD
ATOM     10  H   UNL     1       0.523  -0.188  -0.740  0.00  0.00    +0.000 HD
ENDBRANCH   7   8
ENDBRANCH   1   7
BRANCH   4  11
ATOM     11  C   UNL     1       3.983   3.539  -4.346  0.00  0.00    +0.000 C 
BRANCH  11  12
ATOM     12  O   UNL     1       5.269   4.147  -4.193  0.00  0.00    +0.000 OA
BRANCH  12  13
ATOM     13  C   UNL     1       5.663   4.805  -5.343  0.00  0.00    +0.000 A 
ATOM     14  N   UNL     1       4.754   4.966  -6.337  0.00  0.00    +0.000 NA
ATOM     15  C   UNL     1       5.173   5.587  -7.464  0.00  0.00    +0.000 A 
ATOM     16  C   UNL     1       6.459   6.071  -7.640  0.00  0.00    +0.000 A 
ATOM     17 CL   UNL     1       6.914   6.830  -9.110  0.00  0.00    +0.000 Cl
ATOM     18  C   UNL     1       7.373   5.924  -6.603  0.00  0.00    +0.000 A 
ATOM     19  C   UNL     1       6.974   5.282  -5.430  0.00  0.00    +0.000 A 
ATOM     20 CL   UNL     1       8.113   5.098  -4.152  0.00  0.00    +0.000 Cl
ENDBRANCH  12  13
ENDBRANCH  11  12
ENDBRANCH   4  11
TORSDOF 5
