REMARK  Name = 
REMARK  7 active torsions:
REMARK  status: ('A' for Active; 'I' for Inactive)
REMARK    1  A    between atoms: C_1  and  C_2
REMARK    2  A    between atoms: C_2  and  C_3
REMARK    3  A    between atoms: C_2  and  C_17
REMARK    4  A    between atoms: C_3  and  N_4
REMARK    5  A    between atoms: N_4  and  C_5
REMARK    6  A    between atoms: C_8  and  C_9
REMARK    7  A    between atoms: C_13  and  N_14
REMARK                            x       y       z     vdW  Elec       q    Type
REMARK                         _______ _______ _______ _____ _____    ______ ____
ROOT
ATOM      1  C   UNL     1       3.314   3.635   0.468  0.00  0.00    +0.000 A 
ATOM      2  N   UNL     1       4.406   3.513   1.265  0.00  0.00    +0.000 NA
ATOM      3  C   UNL     1       5.073   4.619   1.668  0.00  0.00    +0.000 A 
ATOM      4  C   UNL     1       4.710   5.906   1.326  0.00  0.00    +0.000 A 
ATOM      5  C   UNL     1       3.592   6.050   0.503  0.00  0.00    +0.000 A 
ATOM      6  C   UNL     1       2.894   4.910   0.061  0.00  0.00    +0.000 A 
ENDROOT
BRANCH   4   7
ATOM      7  C   UNL     1       5.435   7.110   1.794  0.00  0.00    +0.000 C 
ATOM      8  N   UNL     1       6.525   6.958   2.598  0.00  0.00    +0.000 N 
ATOM      9  O   UNL     1       5.061   8.231   1.471  0.00  0.00    +0.000 OA
ATOM     10  H   UNL     1       6.922   6.091   2.928  0.00  0.00    +0.000 HD
ATOM     11  H   UNL     1       6.983   7.812   2.894  0.00  0.00    +0.000 HD
ENDBRANCH   4   7
BRANCH   6  12
ATOM     12  N   UNL     1       1.698   5.104  -0.761  0.00  0.00    +0.000 N 
ATOM     13  O   UNL     1       0.982   4.125  -1.014  0.00  0.00    +0.000 OA
ATOM     14  O   UNL     1       1.439   6.260  -1.130  0.00  0.00    +0.000 OA
ENDBRANCH   6  12
BRANCH   1  15
ATOM     15  N   UNL     1       2.757   2.443  -0.002  0.00  0.00    +0.000 N 
ATOM     16  H   UNL     1       1.757   2.549  -0.193  0.00  0.00    +0.000 HD
BRANCH  15  17
ATOM     17  C   UNL     1       3.012   1.281   0.846  0.00  0.00    +0.000 C 
BRANCH  17  19
ATOM     18  C   UNL     1       2.986  -0.508  -0.991  0.00  0.00    +0.000 C 
ATOM     19  C   UNL     1       2.337   0.103   0.209  0.00  0.00    +0.000 C 
BRANCH  19  20
ATOM     20  C   UNL     1       0.908  -0.113   0.475  0.00  0.00    +0.000 A 
ATOM     21  C   UNL     1       0.433  -0.247   1.787  0.00  0.00    +0.000 A 
ATOM     22  C   UNL     1      -0.937  -0.345   2.038  0.00  0.00    +0.000 A 
ATOM     23  C   UNL     1      -1.845  -0.309   0.982  0.00  0.00    +0.000 A 
ATOM     24  C   UNL     1      -1.381  -0.207  -0.328  0.00  0.00    +0.000 A 
ATOM     25  C   UNL     1      -0.012  -0.121  -0.580  0.00  0.00    +0.000 A 
ENDBRANCH  19  20
ENDBRANCH  17  19
ENDBRANCH  15  17
ENDBRANCH   1  15
TORSDOF 6
