REMARK  Name = 
REMARK  11 active torsions:
REMARK  status: ('A' for Active; 'I' for Inactive)
REMARK    1  A    between atoms: C_1  and  C_2
REMARK    2  A    between atoms: C_2  and  O_3
REMARK    3  A    between atoms: C_5  and  O_6
REMARK    4  A    between atoms: O_6  and  C_7
REMARK    5  A    between atoms: C_9  and  C_10
REMARK    6  A    between atoms: C_15  and  C_16
REMARK    7  A    between atoms: C_16  and  C_19
REMARK    8  A    between atoms: C_19  and  N_20
REMARK    9  A    between atoms: N_20  and  C_21
REMARK   10  A    between atoms: C_24  and  S_25
REMARK   11  A    between atoms: S_25  and  N_26
REMARK                            x       y       z     vdW  Elec       q    Type
REMARK                         _______ _______ _______ _____ _____    ______ ____
ROOT
ATOM      1  C   UNL     1       6.398  -1.003   0.680  0.00  0.00    +0.000 A 
ATOM      2  C   UNL     1       6.112  -2.362   0.629  0.00  0.00    +0.000 A 
ATOM      3  C   UNL     1       7.147  -3.308   0.695  0.00  0.00    +0.000 A 
ATOM      4  C   UNL     1       8.481  -2.863   0.804  0.00  0.00    +0.000 A 
ATOM      5  C   UNL     1       8.789  -1.492   0.820  0.00  0.00    +0.000 A 
ATOM      6  C   UNL     1       7.720  -0.579   0.769  0.00  0.00    +0.000 A 
ENDROOT
BRANCH   3   7
ATOM      7  C   UNL     1       6.841  -4.786   0.631  0.00  0.00    +0.000 C 
ATOM      8  F   UNL     1       5.523  -5.065   0.437  0.00  0.00    +0.000 F 
ATOM      9  F   UNL     1       7.506  -5.407  -0.382  0.00  0.00    +0.000 F 
ATOM     10  F   UNL     1       7.198  -5.440   1.770  0.00  0.00    +0.000 F 
ENDBRANCH   3   7
BRANCH   5  11
ATOM     11  C   UNL     1      10.250  -1.039   0.856  0.00  0.00    +0.000 C 
ATOM     12  F   UNL     1      10.894  -1.542   1.950  0.00  0.00    +0.000 F 
ATOM     13  F   UNL     1      10.940  -1.517  -0.224  0.00  0.00    +0.000 F 
BRANCH  11  14
ATOM     14  C   UNL     1      10.397   0.508   0.864  0.00  0.00    +0.000 C 
BRANCH  14  15
ATOM     15  N   UNL     1      11.772   1.046   0.804  0.00  0.00    +0.000 N 
ATOM     16  H   UNL     1      12.332   0.574   0.091  0.00  0.00    +0.000 HD
BRANCH  15  17
ATOM     17  C   UNL     1      11.877   2.450   0.738  0.00  0.00    +0.000 A 
ATOM     18  C   UNL     1      10.959   3.314   1.358  0.00  0.00    +0.000 A 
ATOM     19  C   UNL     1      11.147   4.694   1.343  0.00  0.00    +0.000 A 
ATOM     20  C   UNL     1      12.283   5.169   0.714  0.00  0.00    +0.000 A 
ATOM     21  N   UNL     1      13.230   4.399   0.112  0.00  0.00    +0.000 NA
ATOM     22  C   UNL     1      13.003   3.062   0.168  0.00  0.00    +0.000 A 
BRANCH  20  23
ATOM     23  S   UNL     1      12.614   6.924   0.724  0.00  0.00    +0.000 S 
ATOM     24  O   UNL     1      11.572   7.563  -0.049  0.00  0.00    +0.000 OA
ATOM     25  O   UNL     1      12.931   7.306   2.081  0.00  0.00    +0.000 OA
BRANCH  23  26
ATOM     26  N   UNL     1      14.046   7.041  -0.170  0.00  0.00    +0.000 NA
ATOM     27  H   UNL     1      13.963   6.484  -1.021  0.00  0.00    +0.000 HD
ATOM     28  H   UNL     1      14.822   6.715   0.408  0.00  0.00    +0.000 HD
ENDBRANCH  23  26
ENDBRANCH  20  23
ENDBRANCH  15  17
ENDBRANCH  14  15
ENDBRANCH  11  14
ENDBRANCH   5  11
BRANCH   1  29
ATOM     29  O   UNL     1       5.336  -0.137   0.594  0.00  0.00    +0.000 OA
BRANCH  29  33
ATOM     30  C   UNL     1       3.571   2.533   3.761  0.00  0.00    +0.000 C 
ATOM     31  C   UNL     1       4.022   1.495   2.748  0.00  0.00    +0.000 C 
ATOM     32  C   UNL     1       5.550   1.231   2.737  0.00  0.00    +0.000 C 
ATOM     33  C   UNL     1       5.475   1.179   1.190  0.00  0.00    +0.000 C 
ATOM     34  C   UNL     1       4.176   2.009   1.294  0.00  0.00    +0.000 C 
BRANCH  31  35
ATOM     35  O   UNL     1       3.189   0.322   2.875  0.00  0.00    +0.000 OA
ATOM     36  H   UNL     1       3.408  -0.064   3.740  0.00  0.00    +0.000 HD
ENDBRANCH  31  35
ENDBRANCH  29  33
ENDBRANCH   1  29
TORSDOF 10
