REMARK  Name = 
REMARK  5 active torsions:
REMARK  status: ('A' for Active; 'I' for Inactive)
REMARK    1  A    between atoms: C_2  and  C_3
REMARK    2  A    between atoms: N_8  and  C_9
REMARK    3  A    between atoms: C_9  and  C_10
REMARK    4  A    between atoms: C_14  and  C_15
REMARK    5  A    between atoms: C_15  and  N_16
REMARK                            x       y       z     vdW  Elec       q    Type
REMARK                         _______ _______ _______ _____ _____    ______ ____
ROOT
ATOM      1  C   UNL     1       5.482  -2.596   2.492  0.00  0.00    +0.000 A 
ATOM      2  C   UNL     1       5.435  -2.622   1.092  0.00  0.00    +0.000 A 
ATOM      3  C   UNL     1       6.261  -1.753   0.342  0.00  0.00    +0.000 A 
ATOM      4  C   UNL     1       6.425  -1.548  -1.051  0.00  0.00    +0.000 A 
ATOM      5  C   UNL     1       7.397  -0.595  -1.222  0.00  0.00    +0.000 A 
ATOM      6  N   UNL     1       7.848  -0.199   0.018  0.00  0.00    +0.000 N 
ATOM      7  C   UNL     1       7.127  -0.865   1.003  0.00  0.00    +0.000 A 
ATOM      8  C   UNL     1       7.142  -0.798   2.409  0.00  0.00    +0.000 A 
ATOM      9  C   UNL     1       6.325  -1.688   3.125  0.00  0.00    +0.000 A 
ATOM     10  F   UNL     1       6.380  -1.657   4.467  0.00  0.00    +0.000 F 
ENDROOT
BRANCH   1  12
ATOM     11  N   UNL     1       4.010  -4.249   3.853  0.00  0.00    +0.000 NA
ATOM     12  C   UNL     1       4.673  -3.497   3.257  0.00  0.00    +0.000 C 
ENDBRANCH   1  12
BRANCH   6  13
ATOM     13  C   UNL     1       9.018   0.674   0.175  0.00  0.00    +0.000 C 
BRANCH  13  14
ATOM     14  C   UNL     1       8.640   2.134   0.182  0.00  0.00    +0.000 A 
ATOM     15  C   UNL     1       8.403   2.797   1.392  0.00  0.00    +0.000 A 
ATOM     16  C   UNL     1       7.857   4.079   1.394  0.00  0.00    +0.000 A 
ATOM     17  C   UNL     1       7.570   4.721   0.189  0.00  0.00    +0.000 A 
ATOM     18  C   UNL     1       7.887   4.122  -1.039  0.00  0.00    +0.000 A 
ATOM     19  C   UNL     1       8.428   2.826  -1.026  0.00  0.00    +0.000 A 
BRANCH  18  20
ATOM     20  C   UNL     1       7.496   4.814  -2.324  0.00  0.00    +0.000 C 
BRANCH  20  21
ATOM     21  N   UNL     1       8.405   4.549  -3.436  0.00  0.00    +0.000 NA
ATOM     22  H   UNL     1       9.320   4.935  -3.209  0.00  0.00    +0.000 HD
ATOM     23  H   UNL     1       8.077   5.062  -4.253  0.00  0.00    +0.000 HD
ENDBRANCH  20  21
ENDBRANCH  18  20
ENDBRANCH  13  14
ENDBRANCH   6  13
TORSDOF 5
