REMARK  Name = 
REMARK  10 active torsions:
REMARK  status: ('A' for Active; 'I' for Inactive)
REMARK    1  A    between atoms: C_1  and  O_2
REMARK    2  A    between atoms: O_2  and  C_3
REMARK    3  A    between atoms: C_5  and  N_6
REMARK    4  A    between atoms: N_6  and  C_7
REMARK    5  A    between atoms: C_7  and  C_8
REMARK    6  A    between atoms: C_8  and  C_9
REMARK    7  A    between atoms: C_8  and  C_10
REMARK    8  A    between atoms: C_8  and  C_11
REMARK    9  A    between atoms: C_15  and  C_16
REMARK   10  A    between atoms: C_19  and  O_20
REMARK                            x       y       z     vdW  Elec       q    Type
REMARK                         _______ _______ _______ _____ _____    ______ ____
ROOT
ATOM      1  C   UNL     1       1.927   3.237   5.881  0.00  0.00    +0.000 C 
ATOM      2  C   UNL     1       3.230   3.201   6.707  0.00  0.00    +0.000 C 
ATOM      3  C   UNL     1       1.588   4.716   5.556  0.00  0.00    +0.000 C 
ENDROOT
BRANCH   1   4
ATOM      4  C   UNL     1       0.826   2.577   6.736  0.00  0.00    +0.000 A 
ATOM      5  C   UNL     1       0.569   1.206   6.701  0.00  0.00    +0.000 A 
ATOM      6  N   UNL     1      -0.391   0.579   7.415  0.00  0.00    +0.000 NA
ATOM      7  C   UNL     1      -1.144   1.350   8.234  0.00  0.00    +0.000 A 
ATOM      8  C   UNL     1      -0.980   2.720   8.415  0.00  0.00    +0.000 A 
ATOM      9  C   UNL     1       0.040   3.313   7.642  0.00  0.00    +0.000 A 
BRANCH   8  10
ATOM     10  C   UNL     1      -1.810   3.506   9.351  0.00  0.00    +0.000 A 
ATOM     11  C   UNL     1      -2.287   2.950  10.555  0.00  0.00    +0.000 A 
ATOM     12  C   UNL     1      -3.065   3.695  11.450  0.00  0.00    +0.000 A 
ATOM     13  C   UNL     1      -3.368   5.016  11.156  0.00  0.00    +0.000 A 
ATOM     14  C   UNL     1      -2.916   5.598   9.982  0.00  0.00    +0.000 A 
ATOM     15  C   UNL     1      -2.150   4.847   9.085  0.00  0.00    +0.000 A 
BRANCH  13  16
ATOM     16  O   UNL     1      -4.111   5.783  12.002  0.00  0.00    +0.000 OA
ATOM     17  H   UNL     1      -4.353   5.248  12.775  0.00  0.00    +0.000 HD
ENDBRANCH  13  16
ENDBRANCH   8  10
ENDBRANCH   1   4
BRANCH   1  18
ATOM     18  C   UNL     1       2.124   2.469   4.527  0.00  0.00    +0.000 C 
BRANCH  18  19
ATOM     19  N   UNL     1       3.070   3.123   3.623  0.00  0.00    +0.000 N 
ATOM     20  H   UNL     1       3.802   3.668   4.069  0.00  0.00    +0.000 HD
BRANCH  19  23
ATOM     21  C   UNL     1       3.279   0.968   0.619  0.00  0.00    +0.000 A 
ATOM     22  C   UNL     1       2.855   1.411   1.863  0.00  0.00    +0.000 A 
ATOM     23  C   UNL     1       3.473   2.519   2.431  0.00  0.00    +0.000 A 
ATOM     24  C   UNL     1       4.467   3.115   1.656  0.00  0.00    +0.000 A 
ATOM     25  N   UNL     1       4.866   2.667   0.444  0.00  0.00    +0.000 NA
ATOM     26  N   UNL     1       4.261   1.578  -0.079  0.00  0.00    +0.000 NA
BRANCH  21  28
ATOM     27  C   UNL     1       3.103  -0.485  -1.203  0.00  0.00    +0.000 C 
ATOM     28  O   UNL     1       2.654  -0.154   0.109  0.00  0.00    +0.000 OA
ENDBRANCH  21  28
ENDBRANCH  19  23
ENDBRANCH  18  19
ENDBRANCH   1  18
TORSDOF 7
