REMARK  Name = 
REMARK  3 active torsions:
REMARK  status: ('A' for Active; 'I' for Inactive)
REMARK    1  A    between atoms: C_2  and  C_4
REMARK    2  A    between atoms: N_11  and  C_12
REMARK    3  A    between atoms: C_12  and  C_13
REMARK                            x       y       z     vdW  Elec       q    Type
REMARK                         _______ _______ _______ _____ _____    ______ ____
ROOT
ATOM      1  C   UNL     1       3.189  -1.180  -0.377  0.00  0.00    +0.000 A 
ATOM      2  C   UNL     1       2.853  -1.932  -1.498  0.00  0.00    +0.000 A 
ATOM      3  N   UNL     1       3.506  -3.042  -1.935  0.00  0.00    +0.000 NA
ATOM      4  C   UNL     1       4.541  -3.391  -1.141  0.00  0.00    +0.000 A 
ATOM      5  C   UNL     1       4.955  -2.749   0.024  0.00  0.00    +0.000 A 
ATOM      6  C   UNL     1       6.060  -3.475   0.537  0.00  0.00    +0.000 A 
ATOM      7  C   UNL     1       6.311  -4.516  -0.329  0.00  0.00    +0.000 A 
ATOM      8  N   UNL     1       5.399  -4.444  -1.357  0.00  0.00    +0.000 N 
ATOM      9  C   UNL     1       4.254  -1.599   0.425  0.00  0.00    +0.000 A 
ENDROOT
BRANCH   1  11
ATOM     10  N   UNL     1       3.042   1.028   0.623  0.00  0.00    +0.000 N 
ATOM     11  C   UNL     1       2.404   0.032  -0.065  0.00  0.00    +0.000 C 
ATOM     12  O   UNL     1       1.246   0.160  -0.439  0.00  0.00    +0.000 OA
ATOM     13  H   UNL     1       2.530   1.892   0.751  0.00  0.00    +0.000 HD
ATOM     14  H   UNL     1       4.046   1.060   0.733  0.00  0.00    +0.000 HD
ENDBRANCH   1  11
BRANCH   8  15
ATOM     15  C   UNL     1       5.366  -5.341  -2.503  0.00  0.00    +0.000 C 
BRANCH  15  16
ATOM     16  C   UNL     1       6.292  -4.855  -3.592  0.00  0.00    +0.000 A 
ATOM     17  C   UNL     1       5.991  -3.702  -4.317  0.00  0.00    +0.000 A 
ATOM     18  C   UNL     1       6.900  -3.240  -5.264  0.00  0.00    +0.000 A 
ATOM     19  C   UNL     1       8.075  -3.946  -5.480  0.00  0.00    +0.000 A 
ATOM     20  C   UNL     1       8.289  -5.098  -4.742  0.00  0.00    +0.000 A 
ATOM     21  N   UNL     1       7.431  -5.565  -3.807  0.00  0.00    +0.000 NA
ENDBRANCH  15  16
ENDBRANCH   8  15
TORSDOF 3
