REMARK  Name = 
REMARK  4 active torsions:
REMARK  status: ('A' for Active; 'I' for Inactive)
REMARK    1  A    between atoms: C_2  and  C_4
REMARK    2  A    between atoms: C_7  and  N_8
REMARK    3  A    between atoms: N_8  and  C_9
REMARK    4  A    between atoms: C_9  and  C_10
REMARK                            x       y       z     vdW  Elec       q    Type
REMARK                         _______ _______ _______ _____ _____    ______ ____
ROOT
ATOM      1  N   UNL     1       5.356   5.164  -4.691  0.00  0.00    +0.000 N 
ATOM      2  H   UNL     1       4.771   4.754  -5.414  0.00  0.00    +0.000 HD
ENDROOT
BRANCH   1   6
ATOM      3  C   UNL     1       9.436   4.883  -5.433  0.00  0.00    +0.000 A 
ATOM      4  C   UNL     1       8.551   4.389  -6.378  0.00  0.00    +0.000 A 
ATOM      5  C   UNL     1       7.187   4.474  -6.106  0.00  0.00    +0.000 A 
ATOM      6  C   UNL     1       6.737   5.035  -4.906  0.00  0.00    +0.000 A 
ATOM      7  C   UNL     1       7.711   5.489  -4.022  0.00  0.00    +0.000 A 
ATOM      8  N   UNL     1       9.051   5.430  -4.246  0.00  0.00    +0.000 NA
BRANCH   3  10
ATOM      9  N   UNL     1      11.702   5.358  -4.724  0.00  0.00    +0.000 N 
ATOM     10  C   UNL     1      10.909   4.859  -5.717  0.00  0.00    +0.000 C 
ATOM     11  O   UNL     1      11.368   4.434  -6.771  0.00  0.00    +0.000 OA
ATOM     12  H   UNL     1      12.698   5.420  -4.866  0.00  0.00    +0.000 HD
ATOM     13  H   UNL     1      11.274   5.720  -3.880  0.00  0.00    +0.000 HD
ENDBRANCH   3  10
ENDBRANCH   1   6
BRANCH   1  14
ATOM     14  C   UNL     1       4.731   5.294  -3.355  0.00  0.00    +0.000 C 
ATOM     15  C   UNL     1       4.538   6.666  -2.725  0.00  0.00    +0.000 C 
ATOM     16  C   UNL     1       3.374   5.992  -3.358  0.00  0.00    +0.000 C 
ATOM     17  F   UNL     1       2.923   6.540  -4.549  0.00  0.00    +0.000 F 
BRANCH  14  18
ATOM     18  C   UNL     1       4.888   4.059  -2.450  0.00  0.00    +0.000 A 
ATOM     19  C   UNL     1       5.208   4.159  -1.080  0.00  0.00    +0.000 A 
ATOM     20  C   UNL     1       5.292   3.033  -0.256  0.00  0.00    +0.000 A 
ATOM     21  C   UNL     1       5.095   1.774  -0.800  0.00  0.00    +0.000 A 
ATOM     22  F   UNL     1       5.156   0.695  -0.009  0.00  0.00    +0.000 F 
ATOM     23  C   UNL     1       4.836   1.622  -2.153  0.00  0.00    +0.000 A 
ATOM     24  C   UNL     1       4.730   2.755  -2.966  0.00  0.00    +0.000 A 
ENDBRANCH  14  18
ENDBRANCH   1  14
TORSDOF 4
