REMARK  Name = 
REMARK  7 active torsions:
REMARK  status: ('A' for Active; 'I' for Inactive)
REMARK    1  A    between atoms: C_2  and  C_3
REMARK    2  A    between atoms: C_2  and  C_25
REMARK    3  A    between atoms: C_3  and  N_4
REMARK    4  A    between atoms: N_4  and  C_5
REMARK    5  A    between atoms: C_8  and  C_9
REMARK    6  A    between atoms: C_9  and  N_10
REMARK    7  A    between atoms: C_11  and  C_13
REMARK                            x       y       z     vdW  Elec       q    Type
REMARK                         _______ _______ _______ _____ _____    ______ ____
ROOT
ATOM      1  C   UNL     1       2.484   1.694   3.401  0.00  0.00    +0.000 A 
ATOM      2  C   UNL     1       3.598   2.534   3.350  0.00  0.00    +0.000 A 
ATOM      3  C   UNL     1       4.003   3.256   4.473  0.00  0.00    +0.000 A 
ATOM      4  C   UNL     1       3.279   3.122   5.652  0.00  0.00    +0.000 A 
ATOM      5  N   UNL     1       2.210   2.295   5.754  0.00  0.00    +0.000 NA
ATOM      6  C   UNL     1       1.841   1.620   4.635  0.00  0.00    +0.000 A 
ENDROOT
BRANCH   1   7
ATOM      7  N   UNL     1       2.074   1.061   2.238  0.00  0.00    +0.000 N 
ATOM      8  H   UNL     1       2.802   0.521   1.767  0.00  0.00    +0.000 HD
BRANCH   7   9
ATOM      9  C   UNL     1       0.729   0.498   2.088  0.00  0.00    +0.000 C 
BRANCH   9  11
ATOM     10  O   UNL     1       1.650  -0.648   0.155  0.00  0.00    +0.000 OA
ATOM     11  C   UNL     1       0.659  -0.357   0.827  0.00  0.00    +0.000 C 
BRANCH  11  12
ATOM     12  C   UNL     1      -0.683  -0.888   0.460  0.00  0.00    +0.000 A 
ATOM     13  C   UNL     1      -0.813  -1.738  -0.633  0.00  0.00    +0.000 A 
ATOM     14  C   UNL     1      -2.078  -2.229  -0.941  0.00  0.00    +0.000 A 
ATOM     15  C   UNL     1      -3.164  -1.854  -0.157  0.00  0.00    +0.000 A 
ATOM     16  C   UNL     1      -2.941  -1.002   0.913  0.00  0.00    +0.000 A 
ATOM     17  N   UNL     1      -1.725  -0.513   1.246  0.00  0.00    +0.000 NA
ENDBRANCH  11  12
ENDBRANCH   9  11
ENDBRANCH   7   9
ENDBRANCH   1   7
BRANCH   4  18
ATOM     18  C   UNL     1       3.675   3.893   6.886  0.00  0.00    +0.000 C 
BRANCH  18  19
ATOM     19  N   UNL     1       4.605   3.159   7.711  0.00  0.00    +0.000 N 
ATOM     20  C   UNL     1       5.954   3.388   7.688  0.00  0.00    +0.000 C 
ATOM     21  O   UNL     1       6.458   4.242   6.962  0.00  0.00    +0.000 OA
ATOM     22  H   UNL     1       4.243   2.307   8.128  0.00  0.00    +0.000 HD
BRANCH  20  23
ATOM     23  C   UNL     1       6.765   2.612   8.633  0.00  0.00    +0.000 A 
ATOM     24  C   UNL     1       8.009   3.091   9.023  0.00  0.00    +0.000 A 
ATOM     25  S   UNL     1       8.799   2.100  10.164  0.00  0.00    +0.000 S 
ATOM     26  C   UNL     1       7.529   0.969  10.142  0.00  0.00    +0.000 A 
ATOM     27  N   UNL     1       7.589  -0.162  10.898  0.00  0.00    +0.000 NA
ATOM     28  C   UNL     1       6.574  -0.947  10.759  0.00  0.00    +0.000 A 
ATOM     29  N   UNL     1       5.502  -0.704   9.942  0.00  0.00    +0.000 N 
ATOM     30  C   UNL     1       5.372   0.451   9.204  0.00  0.00    +0.000 A 
ATOM     31  O   UNL     1       4.358   0.679   8.560  0.00  0.00    +0.000 OA
ATOM     32  C   UNL     1       6.503   1.353   9.295  0.00  0.00    +0.000 A 
ATOM     33  H   UNL     1       4.728  -1.349   9.895  0.00  0.00    +0.000 HD
ENDBRANCH  20  23
ENDBRANCH  18  19
ENDBRANCH   4  18
TORSDOF 7
