REMARK  Name = 
REMARK  6 active torsions:
REMARK  status: ('A' for Active; 'I' for Inactive)
REMARK    1  A    between atoms: C_2  and  C_19
REMARK    2  A    between atoms: N_3  and  C_4
REMARK    3  A    between atoms: C_4  and  C_5
REMARK    4  A    between atoms: C_8  and  C_9
REMARK    5  A    between atoms: C_9  and  C_10
REMARK    6  A    between atoms: C_10  and  N_11
REMARK                            x       y       z     vdW  Elec       q    Type
REMARK                         _______ _______ _______ _____ _____    ______ ____
ROOT
ATOM      1  O   UNL     1       3.848  -0.902  -1.063  0.00  0.00    +0.000 OA
ATOM      2  C   UNL     1       3.601   0.034  -0.309  0.00  0.00    +0.000 C 
ATOM      3  N   UNL     1       2.861   1.112  -0.706  0.00  0.00    +0.000 N 
ATOM      4  H   UNL     1       2.674   1.873  -0.063  0.00  0.00    +0.000 HD
ENDROOT
BRANCH   2   5
ATOM      5  C   UNL     1       4.125   0.092   1.058  0.00  0.00    +0.000 A 
ATOM      6  C   UNL     1       5.270  -0.615   1.397  0.00  0.00    +0.000 A 
ATOM      7  S   UNL     1       5.738  -0.403   3.025  0.00  0.00    +0.000 S 
ATOM      8  C   UNL     1       4.404   0.607   3.338  0.00  0.00    +0.000 A 
ATOM      9  N   UNL     1       4.200   1.136   4.574  0.00  0.00    +0.000 NA
ATOM     10  C   UNL     1       3.136   1.858   4.678  0.00  0.00    +0.000 A 
ATOM     11  N   UNL     1       2.254   2.101   3.655  0.00  0.00    +0.000 N 
ATOM     12  C   UNL     1       2.439   1.623   2.380  0.00  0.00    +0.000 A 
ATOM     13  O   UNL     1       1.670   1.926   1.474  0.00  0.00    +0.000 OA
ATOM     14  C   UNL     1       3.617   0.791   2.215  0.00  0.00    +0.000 A 
ATOM     15  H   UNL     1       1.446   2.689   3.795  0.00  0.00    +0.000 HD
ENDBRANCH   2   5
BRANCH   3  16
ATOM     16  C   UNL     1       2.261   1.215  -2.012  0.00  0.00    +0.000 C 
BRANCH  16  17
ATOM     17  C   UNL     1       3.191   1.845  -3.010  0.00  0.00    +0.000 A 
ATOM     18  C   UNL     1       4.061   1.066  -3.765  0.00  0.00    +0.000 A 
ATOM     19  N   UNL     1       4.917   1.589  -4.679  0.00  0.00    +0.000 NA
ATOM     20  C   UNL     1       4.893   2.938  -4.804  0.00  0.00    +0.000 A 
ATOM     21  C   UNL     1       4.051   3.717  -4.015  0.00  0.00    +0.000 A 
ATOM     22  N   UNL     1       3.183   3.199  -3.118  0.00  0.00    +0.000 NA
BRANCH  20  23
ATOM     23  C   UNL     1       5.848   3.612  -5.756  0.00  0.00    +0.000 C 
BRANCH  23  24
ATOM     24  C   UNL     1       6.143   2.811  -7.034  0.00  0.00    +0.000 C 
BRANCH  24  25
ATOM     25  N   UNL     1       7.070   3.513  -7.948  0.00  0.00    +0.000 NA
ATOM     26  C   UNL     1       6.535   4.767  -8.522  0.00  0.00    +0.000 C 
ATOM     27  C   UNL     1       5.480   4.570  -9.623  0.00  0.00    +0.000 C 
ATOM     28  O   UNL     1       5.964   3.724 -10.672  0.00  0.00    +0.000 OA
ATOM     29  C   UNL     1       6.390   2.460 -10.148  0.00  0.00    +0.000 C 
ATOM     30  C   UNL     1       7.478   2.640  -9.075  0.00  0.00    +0.000 C 
ENDBRANCH  24  25
ENDBRANCH  23  24
ENDBRANCH  20  23
ENDBRANCH  16  17
ENDBRANCH   3  16
TORSDOF 6
