REMARK  Name = 
REMARK  7 active torsions:
REMARK  status: ('A' for Active; 'I' for Inactive)
REMARK    1  A    between atoms: C_1  and  C_2
REMARK    2  A    between atoms: C_2  and  C_3
REMARK    3  A    between atoms: C_3  and  N_4
REMARK    4  A    between atoms: C_3  and  C_17
REMARK    5  A    between atoms: C_5  and  C_7
REMARK    6  A    between atoms: C_20  and  O_21
REMARK    7  A    between atoms: O_21  and  C_22
REMARK                            x       y       z     vdW  Elec       q    Type
REMARK                         _______ _______ _______ _____ _____    ______ ____
ROOT
ATOM      1  C   UNL     1       2.995   0.834   1.124  0.00  0.00    +0.000 C 
ENDROOT
BRANCH   1   2
ATOM      2  C   UNL     1       4.513   0.869   1.218  0.00  0.00    +0.000 A 
ATOM      3  C   UNL     1       5.182   2.098   1.173  0.00  0.00    +0.000 A 
ATOM      4  C   UNL     1       6.575   2.147   1.237  0.00  0.00    +0.000 A 
ATOM      5  C   UNL     1       7.316   0.975   1.402  0.00  0.00    +0.000 A 
ATOM      6  C   UNL     1       6.664  -0.257   1.433  0.00  0.00    +0.000 A 
ATOM      7  C   UNL     1       5.271  -0.310   1.343  0.00  0.00    +0.000 A 
BRANCH   5   8
ATOM      8  O   UNL     1       8.690   0.944   1.463  0.00  0.00    +0.000 OA
BRANCH   8   9
ATOM      9  C   UNL     1       9.339   1.960   2.155  0.00  0.00    +0.000 A 
ATOM     10  C   UNL     1      10.648   2.222   1.779  0.00  0.00    +0.000 A 
ATOM     11  C   UNL     1      11.326   3.243   2.437  0.00  0.00    +0.000 A 
ATOM     12  C   UNL     1      10.683   3.958   3.440  0.00  0.00    +0.000 A 
ATOM     13  C   UNL     1       9.383   3.608   3.762  0.00  0.00    +0.000 A 
ATOM     14  N   UNL     1       8.705   2.615   3.154  0.00  0.00    +0.000 NA
ENDBRANCH   8   9
ENDBRANCH   5   8
ENDBRANCH   1   2
BRANCH   1  15
ATOM     15  N   UNL     1       2.463   0.264   2.351  0.00  0.00    +0.000 N 
ATOM     16  C   UNL     1       1.205   0.508   2.828  0.00  0.00    +0.000 C 
ATOM     17  O   UNL     1       0.397   1.215   2.234  0.00  0.00    +0.000 OA
ATOM     18  H   UNL     1       3.139  -0.183   2.960  0.00  0.00    +0.000 HD
BRANCH  16  19
ATOM     19  C   UNL     1       0.853  -0.178   4.081  0.00  0.00    +0.000 A 
ATOM     20  C   UNL     1      -0.480  -0.394   4.406  0.00  0.00    +0.000 A 
ATOM     21  S   UNL     1      -0.695  -1.244   5.872  0.00  0.00    +0.000 S 
ATOM     22  C   UNL     1       0.981  -1.300   6.147  0.00  0.00    +0.000 A 
ATOM     23  N   UNL     1       1.508  -1.869   7.261  0.00  0.00    +0.000 NA
ATOM     24  N   UNL     1       2.753  -1.848   7.436  0.00  0.00    +0.000 NA
ATOM     25  N   UNL     1       3.549  -1.276   6.487  0.00  0.00    +0.000 N 
ATOM     26  C   UNL     1       3.124  -0.721   5.304  0.00  0.00    +0.000 A 
ATOM     27  O   UNL     1       3.914  -0.294   4.472  0.00  0.00    +0.000 OA
ATOM     28  C   UNL     1       1.692  -0.711   5.127  0.00  0.00    +0.000 A 
ATOM     29  H   UNL     1       4.545  -1.300   6.664  0.00  0.00    +0.000 HD
ENDBRANCH  16  19
ENDBRANCH   1  15
BRANCH   1  31
ATOM     30  C   UNL     1       3.024   0.619  -1.426  0.00  0.00    +0.000 C 
ATOM     31  C   UNL     1       2.522   0.038  -0.108  0.00  0.00    +0.000 C 
ENDBRANCH   1  31
TORSDOF 6
