REMARK  Name = 
REMARK  8 active torsions:
REMARK  status: ('A' for Active; 'I' for Inactive)
REMARK    1  A    between atoms: C_2  and  C_21
REMARK    2  A    between atoms: N_3  and  C_4
REMARK    3  A    between atoms: C_4  and  C_5
REMARK    4  A    between atoms: C_8  and  C_9
REMARK    5  A    between atoms: C_9  and  C_10
REMARK    6  A    between atoms: C_9  and  C_12
REMARK    7  A    between atoms: C_10  and  O_11
REMARK    8  A    between atoms: C_12  and  C_13
REMARK                            x       y       z     vdW  Elec       q    Type
REMARK                         _______ _______ _______ _____ _____    ______ ____
ROOT
ATOM      1  C   UNL     1       3.118   2.694   2.471  0.00  0.00    +0.000 A 
ATOM      2  C   UNL     1       2.915   4.067   2.414  0.00  0.00    +0.000 A 
ATOM      3  C   UNL     1       3.770   4.902   3.119  0.00  0.00    +0.000 A 
ATOM      4  C   UNL     1       4.816   4.363   3.874  0.00  0.00    +0.000 A 
ATOM      5  C   UNL     1       4.942   2.976   3.867  0.00  0.00    +0.000 A 
ATOM      6  N   UNL     1       4.137   2.137   3.174  0.00  0.00    +0.000 NA
ENDROOT
BRANCH   1   7
ATOM      7  C   UNL     1       2.194   1.773   1.716  0.00  0.00    +0.000 C 
BRANCH   7  10
ATOM      8  O   UNL     1       1.450   3.334  -0.497  0.00  0.00    +0.000 OA
ATOM      9  C   UNL     1       2.175   2.362  -0.674  0.00  0.00    +0.000 C 
ATOM     10  N   UNL     1       2.628   1.577   0.359  0.00  0.00    +0.000 N 
ATOM     11  H   UNL     1       3.159   0.735   0.185  0.00  0.00    +0.000 HD
BRANCH   9  12
ATOM     12  C   UNL     1       2.656   1.984  -1.995  0.00  0.00    +0.000 A 
ATOM     13  C   UNL     1       2.807   2.923  -3.005  0.00  0.00    +0.000 A 
ATOM     14  S   UNL     1       3.437   2.256  -4.448  0.00  0.00    +0.000 S 
ATOM     15  C   UNL     1       3.488   0.693  -3.770  0.00  0.00    +0.000 A 
ATOM     16  N   UNL     1       3.953  -0.372  -4.479  0.00  0.00    +0.000 NA
ATOM     17  C   UNL     1       3.948  -1.488  -3.827  0.00  0.00    +0.000 A 
ATOM     18  N   UNL     1       3.507  -1.645  -2.539  0.00  0.00    +0.000 N 
ATOM     19  C   UNL     1       2.975  -0.613  -1.809  0.00  0.00    +0.000 A 
ATOM     20  O   UNL     1       2.531  -0.805  -0.685  0.00  0.00    +0.000 OA
ATOM     21  C   UNL     1       3.021   0.674  -2.470  0.00  0.00    +0.000 A 
ATOM     22  H   UNL     1       3.513  -2.547  -2.090  0.00  0.00    +0.000 HD
ENDBRANCH   9  12
ENDBRANCH   7  10
ENDBRANCH   1   7
BRANCH   4  23
ATOM     23  C   UNL     1       5.802   5.226   4.650  0.00  0.00    +0.000 C 
BRANCH  23  24
ATOM     24  C   UNL     1       7.017   5.579   3.759  0.00  0.00    +0.000 C 
BRANCH  24  25
ATOM     25  O   UNL     1       6.635   6.347   2.619  0.00  0.00    +0.000 OA
ATOM     26  H   UNL     1       6.070   5.771   2.071  0.00  0.00    +0.000 HD
ENDBRANCH  24  25
ENDBRANCH  23  24
BRANCH  23  27
ATOM     27  C   UNL     1       5.184   6.521   5.229  0.00  0.00    +0.000 C 
BRANCH  27  28
ATOM     28  C   UNL     1       4.038   6.330   6.200  0.00  0.00    +0.000 A 
ATOM     29  C   UNL     1       3.047   7.311   6.278  0.00  0.00    +0.000 A 
ATOM     30  C   UNL     1       2.024   7.170   7.210  0.00  0.00    +0.000 A 
ATOM     31  C   UNL     1       2.020   6.064   8.048  0.00  0.00    +0.000 A 
ATOM     32  C   UNL     1       3.042   5.139   7.912  0.00  0.00    +0.000 A 
ATOM     33  N   UNL     1       4.052   5.251   7.018  0.00  0.00    +0.000 NA
ENDBRANCH  27  28
ENDBRANCH  23  27
ENDBRANCH   4  23
TORSDOF 8
