REMARK  Name = 
REMARK  5 active torsions:
REMARK  status: ('A' for Active; 'I' for Inactive)
REMARK    1  A    between atoms: C_2  and  C_4
REMARK    2  A    between atoms: C_7  and  O_8
REMARK    3  A    between atoms: O_8  and  C_9
REMARK    4  A    between atoms: C_9  and  C_10
REMARK    5  A    between atoms: C_14  and  C_15
REMARK                            x       y       z     vdW  Elec       q    Type
REMARK                         _______ _______ _______ _____ _____    ______ ____
ROOT
ATOM      1  C   UNL     1       4.790   3.759  -4.683  0.00  0.00    +0.000 C 
ENDROOT
BRANCH   1   2
ATOM      2  C   UNL     1       5.611   4.248  -5.846  0.00  0.00    +0.000 A 
ATOM      3  C   UNL     1       6.320   3.351  -6.634  0.00  0.00    +0.000 A 
ATOM      4  N   UNL     1       7.046   3.705  -7.715  0.00  0.00    +0.000 NA
ATOM      5  C   UNL     1       7.058   5.023  -8.031  0.00  0.00    +0.000 A 
ATOM      6  C   UNL     1       6.364   6.024  -7.345  0.00  0.00    +0.000 A 
ATOM      7  C   UNL     1       5.624   5.592  -6.235  0.00  0.00    +0.000 A 
BRANCH   6   8
ATOM      8  C   UNL     1       6.400   7.442  -7.757  0.00  0.00    +0.000 A 
ATOM      9  C   UNL     1       6.523   7.813  -9.111  0.00  0.00    +0.000 A 
ATOM     10  C   UNL     1       6.558   9.157  -9.501  0.00  0.00    +0.000 A 
ATOM     11  C   UNL     1       6.461  10.160  -8.544  0.00  0.00    +0.000 A 
ATOM     12  C   UNL     1       6.331   9.813  -7.208  0.00  0.00    +0.000 A 
ATOM     13  F   UNL     1       6.231  10.775  -6.282  0.00  0.00    +0.000 F 
ATOM     14  C   UNL     1       6.306   8.479  -6.812  0.00  0.00    +0.000 A 
ENDBRANCH   6   8
ENDBRANCH   1   2
BRANCH   1  15
ATOM     15  O   UNL     1       4.745   4.746  -3.641  0.00  0.00    +0.000 OA
BRANCH  15  19
ATOM     16  C   UNL     1       2.450   3.548  -0.438  0.00  0.00    +0.000 A 
ATOM     17  C   UNL     1       3.058   4.805  -0.418  0.00  0.00    +0.000 A 
ATOM     18  C   UNL     1       3.837   5.203  -1.506  0.00  0.00    +0.000 A 
ATOM     19  C   UNL     1       3.977   4.327  -2.573  0.00  0.00    +0.000 A 
ATOM     20  N   UNL     1       3.410   3.104  -2.611  0.00  0.00    +0.000 NA
ATOM     21  C   UNL     1       2.667   2.734  -1.541  0.00  0.00    +0.000 A 
BRANCH  16  23
ATOM     22  N   UNL     1       0.926   3.973   1.399  0.00  0.00    +0.000 N 
ATOM     23  C   UNL     1       1.599   3.042   0.657  0.00  0.00    +0.000 C 
ATOM     24  O   UNL     1       1.469   1.846   0.863  0.00  0.00    +0.000 OA
ATOM     25  H   UNL     1       0.264   3.616   2.076  0.00  0.00    +0.000 HD
ATOM     26  H   UNL     1       0.816   4.932   1.100  0.00  0.00    +0.000 HD
ENDBRANCH  16  23
ENDBRANCH  15  19
ENDBRANCH   1  15
TORSDOF 5
