REMARK  Name = 
REMARK  7 active torsions:
REMARK  status: ('A' for Active; 'I' for Inactive)
REMARK    1  A    between atoms: C_1  and  C_2
REMARK    2  A    between atoms: C_7  and  N_8
REMARK    3  A    between atoms: N_8  and  C_9
REMARK    4  A    between atoms: C_9  and  C_10
REMARK    5  A    between atoms: C_15  and  C_16
REMARK    6  A    between atoms: C_20  and  C_21
REMARK    7  A    between atoms: C_21  and  O_22
REMARK                            x       y       z     vdW  Elec       q    Type
REMARK                         _______ _______ _______ _____ _____    ______ ____
ROOT
ATOM      1  C   UNL     1       2.766  -4.117   0.116  0.00  0.00    +0.000 A 
ATOM      2  C   UNL     1       4.114  -4.418   0.307  0.00  0.00    +0.000 A 
ATOM      3  C   UNL     1       4.525  -5.743   0.346  0.00  0.00    +0.000 A 
ATOM      4  F   UNL     1       5.828  -6.021   0.497  0.00  0.00    +0.000 F 
ATOM      5  C   UNL     1       3.617  -6.791   0.214  0.00  0.00    +0.000 A 
ATOM      6  C   UNL     1       2.251  -6.534   0.025  0.00  0.00    +0.000 A 
ATOM      7  C   UNL     1       1.848  -5.183  -0.013  0.00  0.00    +0.000 A 
ENDROOT
BRANCH   6   8
ATOM      8  C   UNL     1       1.272  -7.629  -0.154  0.00  0.00    +0.000 A 
ATOM      9  C   UNL     1      -0.052  -7.523   0.281  0.00  0.00    +0.000 A 
ATOM     10  N   UNL     1      -1.008  -8.471   0.122  0.00  0.00    +0.000 NA
ATOM     11  C   UNL     1      -0.636  -9.605  -0.505  0.00  0.00    +0.000 A 
ATOM     12  C   UNL     1       0.642  -9.840  -0.994  0.00  0.00    +0.000 A 
ATOM     13  C   UNL     1       1.601  -8.838  -0.791  0.00  0.00    +0.000 A 
BRANCH  12  14
ATOM     14  C   UNL     1       0.970 -11.152  -1.644  0.00  0.00    +0.000 C 
BRANCH  14  15
ATOM     15  O   UNL     1       1.990 -11.012  -2.625  0.00  0.00    +0.000 OA
ATOM     16  H   UNL     1       1.666 -10.370  -3.280  0.00  0.00    +0.000 HD
ENDBRANCH  14  15
ENDBRANCH  12  14
ENDBRANCH   6   8
BRANCH   1  17
ATOM     17  C   UNL     1       2.292  -2.684   0.008  0.00  0.00    +0.000 C 
BRANCH  17  18
ATOM     18  N   UNL     1       1.930  -2.160   1.318  0.00  0.00    +0.000 N 
ATOM     19  H   UNL     1       2.624  -2.427   2.015  0.00  0.00    +0.000 HD
BRANCH  18  26
ATOM     20  C   UNL     1       0.296  -0.488  -0.748  0.00  0.00    +0.000 C 
ATOM     21  C   UNL     1       0.798  -0.020   0.583  0.00  0.00    +0.000 A 
ATOM     22  N   UNL     1       0.415   1.262   0.861  0.00  0.00    +0.000 NA
ATOM     23  C   UNL     1       0.754   1.789   2.050  0.00  0.00    +0.000 A 
ATOM     24  C   UNL     1       1.478   1.102   2.998  0.00  0.00    +0.000 A 
ATOM     25  C   UNL     1       1.867  -0.204   2.704  0.00  0.00    +0.000 A 
ATOM     26  C   UNL     1       1.562  -0.809   1.468  0.00  0.00    +0.000 A 
ENDBRANCH  18  26
ENDBRANCH  17  18
ENDBRANCH   1  17
TORSDOF 6
