REMARK  Name = 
REMARK  6 active torsions:
REMARK  status: ('A' for Active; 'I' for Inactive)
REMARK    1  A    between atoms: N_1  and  C_2
REMARK    2  A    between atoms: C_2  and  C_3
REMARK    3  A    between atoms: C_3  and  C_4
REMARK    4  A    between atoms: C_4  and  C_5
REMARK    5  A    between atoms: N_11  and  C_12
REMARK    6  A    between atoms: C_12  and  C_13
REMARK                            x       y       z     vdW  Elec       q    Type
REMARK                         _______ _______ _______ _____ _____    ______ ____
ROOT
ATOM      1  C   UNL     1       5.002  -2.402   1.543  0.00  0.00    +0.000 A 
ATOM      2  C   UNL     1       5.763  -2.385   2.717  0.00  0.00    +0.000 A 
ATOM      3  N   UNL     1       6.160  -3.463   3.428  0.00  0.00    +0.000 NA
ATOM      4  C   UNL     1       5.735  -4.642   2.931  0.00  0.00    +0.000 A 
ATOM      5  N   UNL     1       5.989  -5.871   3.480  0.00  0.00    +0.000 NA
ATOM      6  C   UNL     1       5.375  -6.727   2.696  0.00  0.00    +0.000 A 
ATOM      7  N   UNL     1       4.728  -6.100   1.668  0.00  0.00    +0.000 N 
ATOM      8  C   UNL     1       4.961  -4.755   1.779  0.00  0.00    +0.000 A 
ATOM      9  C   UNL     1       4.579  -3.636   1.041  0.00  0.00    +0.000 A 
ENDROOT
BRANCH   1  10
ATOM     10  C   UNL     1       4.608  -1.123   0.849  0.00  0.00    +0.000 C 
BRANCH  10  11
ATOM     11  C   UNL     1       5.817  -0.301   0.400  0.00  0.00    +0.000 C 
BRANCH  11  12
ATOM     12  C   UNL     1       5.381   0.970  -0.324  0.00  0.00    +0.000 C 
BRANCH  12  13
ATOM     13  N   UNL     1       6.553   1.742  -0.715  0.00  0.00    +0.000 NA
ATOM     14  H   UNL     1       6.264   2.561  -1.245  0.00  0.00    +0.000 HD
ATOM     15  H   UNL     1       7.143   1.189  -1.337  0.00  0.00    +0.000 HD
ENDBRANCH  12  13
ENDBRANCH  11  12
ENDBRANCH  10  11
ENDBRANCH   1  10
BRANCH   7  16
ATOM     16  C   UNL     1       3.896  -6.753   0.670  0.00  0.00    +0.000 C 
BRANCH  16  17
ATOM     17  C   UNL     1       2.448  -6.704   1.072  0.00  0.00    +0.000 A 
ATOM     18  C   UNL     1       1.972  -7.391   2.195  0.00  0.00    +0.000 A 
ATOM     19  C   UNL     1       0.643  -7.251   2.583  0.00  0.00    +0.000 A 
ATOM     20  C   UNL     1      -0.172  -6.437   1.820  0.00  0.00    +0.000 A 
ATOM     21 CL   UNL     1      -1.811  -6.180   2.246  0.00  0.00    +0.000 Cl
ATOM     22  N   UNL     1       0.232  -5.785   0.709  0.00  0.00    +0.000 NA
ATOM     23  C   UNL     1       1.530  -5.930   0.364  0.00  0.00    +0.000 A 
ENDBRANCH  16  17
ENDBRANCH   7  16
TORSDOF 6
