REMARK  Name = 
REMARK  8 active torsions:
REMARK  status: ('A' for Active; 'I' for Inactive)
REMARK    1  A    between atoms: C_2  and  C_3
REMARK    2  A    between atoms: C_3  and  C_4
REMARK    3  A    between atoms: C_4  and  C_5
REMARK    4  A    between atoms: N_11  and  C_12
REMARK    5  A    between atoms: C_12  and  C_13
REMARK    6  A    between atoms: C_16  and  C_17
REMARK    7  A    between atoms: C_17  and  N_18
REMARK    8  A    between atoms: C_19  and  C_21
REMARK                            x       y       z     vdW  Elec       q    Type
REMARK                         _______ _______ _______ _____ _____    ______ ____
ROOT
ATOM      1  C   UNL     1       5.056   0.773  -2.482  0.00  0.00    +0.000 A 
ATOM      2  C   UNL     1       5.279   2.142  -2.678  0.00  0.00    +0.000 A 
ATOM      3  C   UNL     1       5.727   2.624  -3.913  0.00  0.00    +0.000 A 
ATOM      4  C   UNL     1       5.940   1.748  -4.986  0.00  0.00    +0.000 A 
ATOM      5  C   UNL     1       5.747   0.375  -4.779  0.00  0.00    +0.000 A 
ATOM      6  C   UNL     1       5.293  -0.106  -3.546  0.00  0.00    +0.000 A 
ENDROOT
BRANCH   1   7
ATOM      7  C   UNL     1       4.524   0.271  -1.165  0.00  0.00    +0.000 C 
BRANCH   7  10
ATOM      8  O   UNL     1       2.904  -0.502   0.988  0.00  0.00    +0.000 OA
ATOM      9  C   UNL     1       2.374  -0.119  -0.051  0.00  0.00    +0.000 C 
ATOM     10  N   UNL     1       3.081   0.289  -1.153  0.00  0.00    +0.000 N 
ATOM     11  H   UNL     1       2.596   0.648  -1.964  0.00  0.00    +0.000 HD
BRANCH   9  12
ATOM     12  C   UNL     1       0.870  -0.028  -0.204  0.00  0.00    +0.000 C 
BRANCH  12  13
ATOM     13  C   UNL     1       0.351  -0.918  -1.336  0.00  0.00    +0.000 C 
BRANCH  13  14
ATOM     14  C   UNL     1      -1.180  -0.869  -1.503  0.00  0.00    +0.000 C 
ATOM     15  C   UNL     1      -1.904  -1.338  -0.232  0.00  0.00    +0.000 C 
ATOM     16  C   UNL     1      -3.416  -1.404  -0.416  0.00  0.00    +0.000 C 
ATOM     17  C   UNL     1      -3.793  -2.278  -1.603  0.00  0.00    +0.000 C 
ATOM     18  C   UNL     1      -3.116  -1.792  -2.879  0.00  0.00    +0.000 C 
ATOM     19  C   UNL     1      -1.600  -1.720  -2.717  0.00  0.00    +0.000 C 
ENDBRANCH  13  14
ENDBRANCH  12  13
ENDBRANCH   9  12
ENDBRANCH   7  10
ENDBRANCH   1   7
BRANCH   4  20
ATOM     20  C   UNL     1       6.358   2.269  -6.339  0.00  0.00    +0.000 C 
BRANCH  20  21
ATOM     21  N   UNL     1       7.789   2.365  -6.469  0.00  0.00    +0.000 N 
ATOM     22  C   UNL     1       8.367   2.837  -7.621  0.00  0.00    +0.000 C 
ATOM     23  O   UNL     1       7.700   3.242  -8.570  0.00  0.00    +0.000 OA
ATOM     24  H   UNL     1       8.350   1.833  -5.812  0.00  0.00    +0.000 HD
BRANCH  22  25
ATOM     25  C   UNL     1       9.834   2.892  -7.638  0.00  0.00    +0.000 A 
ATOM     26  C   UNL     1      10.486   3.815  -8.448  0.00  0.00    +0.000 A 
ATOM     27  S   UNL     1      12.186   3.759  -8.315  0.00  0.00    +0.000 S 
ATOM     28  C   UNL     1      12.113   2.469  -7.208  0.00  0.00    +0.000 A 
ATOM     29  N   UNL     1      13.247   1.909  -6.705  0.00  0.00    +0.000 NA
ATOM     30  C   UNL     1      13.040   0.931  -5.890  0.00  0.00    +0.000 A 
ATOM     31  N   UNL     1      11.806   0.461  -5.525  0.00  0.00    +0.000 N 
ATOM     32  C   UNL     1      10.633   1.011  -5.988  0.00  0.00    +0.000 A 
ATOM     33  O   UNL     1       9.545   0.603  -5.600  0.00  0.00    +0.000 OA
ATOM     34  C   UNL     1      10.809   2.106  -6.922  0.00  0.00    +0.000 A 
ATOM     35  H   UNL     1      11.712  -0.295  -4.867  0.00  0.00    +0.000 HD
ENDBRANCH  22  25
ENDBRANCH  20  21
ENDBRANCH   4  20
TORSDOF 8
