REMARK  Name = 
REMARK  12 active torsions:
REMARK  status: ('A' for Active; 'I' for Inactive)
REMARK    1  A    between atoms: N_1  and  CA_2
REMARK    2  A    between atoms: CA_2  and  C_3
REMARK    3  A    between atoms: CA_2  and  C_5
REMARK    4  A    between atoms: C_3  and  O_4
REMARK    5  A    between atoms: C_5  and  C_6
REMARK    6  A    between atoms: C_6  and  N_7
REMARK    7  A    between atoms: C_6  and  C_20
REMARK    8  A    between atoms: C_8  and  C_10
REMARK    9  A    between atoms: C_23  and  C_24
REMARK   10  A    between atoms: C_24  and  O_25
REMARK   11  A    between atoms: O_25  and  C_26
REMARK   12  A    between atoms: C_26  and  C_27
REMARK                            x       y       z     vdW  Elec       q    Type
REMARK                         _______ _______ _______ _____ _____    ______ ____
ROOT
ATOM      1  C   UNL     1       4.414   0.934  -0.873  0.00  0.00    +0.000 C 
ENDROOT
BRANCH   1   2
ATOM      2  C   UNL     1       5.005   2.004  -1.792  0.00  0.00    +0.000 A 
ATOM      3  C   UNL     1       5.764   3.060  -1.265  0.00  0.00    +0.000 A 
ATOM      4  C   UNL     1       6.203   4.111  -2.084  0.00  0.00    +0.000 A 
ATOM      5  C   UNL     1       5.908   4.127  -3.453  0.00  0.00    +0.000 A 
ATOM      6  C   UNL     1       5.196   3.048  -3.991  0.00  0.00    +0.000 A 
ATOM      7  C   UNL     1       4.755   1.999  -3.174  0.00  0.00    +0.000 A 
BRANCH   5   8
ATOM      8  C   UNL     1       6.293   5.306  -4.319  0.00  0.00    +0.000 C 
BRANCH   8   9
ATOM      9  O   UNL     1       7.706   5.496  -4.293  0.00  0.00    +0.000 OA
BRANCH   9  10
ATOM     10  C   UNL     1       8.101   6.596  -5.128  0.00  0.00    +0.000 C 
BRANCH  10  11
ATOM     11  C   UNL     1       9.593   6.745  -5.110  0.00  0.00    +0.000 A 
ATOM     12  C   UNL     1      10.466   5.660  -4.916  0.00  0.00    +0.000 A 
ATOM     13  C   UNL     1      11.845   5.849  -4.929  0.00  0.00    +0.000 A 
ATOM     14  C   UNL     1      12.365   7.117  -5.143  0.00  0.00    +0.000 A 
ATOM     15  C   UNL     1      11.493   8.181  -5.361  0.00  0.00    +0.000 A 
ATOM     16  N   UNL     1      10.113   8.011  -5.361  0.00  0.00    +0.000 N 
ATOM     17  O   UNL     1       9.360   9.009  -5.603  0.00  0.00    +0.000 OA
ENDBRANCH  10  11
ENDBRANCH   9  10
ENDBRANCH   8   9
ENDBRANCH   5   8
ENDBRANCH   1   2
BRANCH   1  18
ATOM     18  N   UNL     1       4.963  -0.370  -1.212  0.00  0.00    +0.000 N 
ATOM     19  C   UNL     1       4.767  -1.496  -0.445  0.00  0.00    +0.000 C 
ATOM     20  O   UNL     1       4.076  -1.502   0.567  0.00  0.00    +0.000 OA
ATOM     21  H   UNL     1       5.706  -0.376  -1.900  0.00  0.00    +0.000 HD
BRANCH  19  22
ATOM     22  C   UNL     1       5.393  -2.723  -0.953  0.00  0.00    +0.000 A 
ATOM     23  C   UNL     1       4.825  -3.963  -0.695  0.00  0.00    +0.000 A 
ATOM     24  S   UNL     1       5.685  -5.261  -1.396  0.00  0.00    +0.000 S 
ATOM     25  C   UNL     1       6.879  -4.214  -2.010  0.00  0.00    +0.000 A 
ATOM     26  N   UNL     1       7.955  -4.690  -2.691  0.00  0.00    +0.000 NA
ATOM     27  C   UNL     1       8.800  -3.782  -3.056  0.00  0.00    +0.000 A 
ATOM     28  N   UNL     1       8.659  -2.441  -2.816  0.00  0.00    +0.000 N 
ATOM     29  C   UNL     1       7.556  -1.909  -2.196  0.00  0.00    +0.000 A 
ATOM     30  O   UNL     1       7.404  -0.697  -2.102  0.00  0.00    +0.000 OA
ATOM     31  C   UNL     1       6.601  -2.890  -1.720  0.00  0.00    +0.000 A 
ATOM     32  H   UNL     1       9.339  -1.775  -3.153  0.00  0.00    +0.000 HD
ENDBRANCH  19  22
ENDBRANCH   1  18
BRANCH   1  33
ATOM     33  C   UNL     1       2.868   0.904  -0.943  0.00  0.00    +0.000 C 
BRANCH  33  34
ATOM     34  CA  UNL     1       2.184   2.246  -0.664  0.00  0.00    +0.000 C 
BRANCH  34  35
ATOM     35  N   UNL     1       0.724   2.091  -0.834  0.00  0.00    +0.000 NA
ATOM     36  H1  UNL     1       0.288   2.976  -0.563  0.00  0.00    +0.000 HD
ATOM     37  H2  UNL     1       0.383   1.426  -0.134  0.00  0.00    +0.000 HD
ENDBRANCH  34  35
BRANCH  34  38
ATOM     38  C   UNL     1       2.484   2.803   0.741  0.00  0.00    +0.000 C 
BRANCH  38  39
ATOM     39  O   UNL     1       1.823   4.059   0.910  0.00  0.00    +0.000 OA
ATOM     40  H   UNL     1       2.109   4.631   0.175  0.00  0.00    +0.000 HD
ENDBRANCH  38  39
ENDBRANCH  34  38
ENDBRANCH  33  34
ENDBRANCH   1  33
TORSDOF 12
