REMARK  Name = 
REMARK  6 active torsions:
REMARK  status: ('A' for Active; 'I' for Inactive)
REMARK    1  A    between atoms: C_1  and  C_2
REMARK    2  A    between atoms: C_2  and  N_3
REMARK    3  A    between atoms: C_2  and  C_24
REMARK    4  A    between atoms: C_7  and  C_8
REMARK    5  A    between atoms: C_8  and  N_9
REMARK    6  A    between atoms: C_10  and  C_12
REMARK                            x       y       z     vdW  Elec       q    Type
REMARK                         _______ _______ _______ _____ _____    ______ ____
ROOT
ATOM      1  N   UNL     1       2.920  -0.230  -1.372  0.00  0.00    +0.000 N 
ATOM      2  C   UNL     1       2.618  -1.498  -1.891  0.00  0.00    +0.000 A 
ATOM      3  C   UNL     1       1.274  -1.840  -2.010  0.00  0.00    +0.000 A 
ATOM      4  C   UNL     1       0.926  -3.113  -2.456  0.00  0.00    +0.000 A 
ATOM      5  C   UNL     1       1.925  -4.004  -2.839  0.00  0.00    +0.000 A 
ATOM      6  C   UNL     1       3.237  -3.558  -2.739  0.00  0.00    +0.000 A 
ATOM      7  N   UNL     1       3.598  -2.336  -2.277  0.00  0.00    +0.000 NA
ATOM      8  H   UNL     1       2.823   0.433  -2.140  0.00  0.00    +0.000 HD
ENDROOT
BRANCH   1  10
ATOM      9  C   UNL     1       4.381  -1.006   0.478  0.00  0.00    +0.000 C 
ATOM     10  C   UNL     1       4.248  -0.091  -0.751  0.00  0.00    +0.000 C 
BRANCH  10  11
ATOM     11  C   UNL     1       4.448   1.360  -0.301  0.00  0.00    +0.000 A 
ATOM     12  C   UNL     1       3.590   1.942   0.638  0.00  0.00    +0.000 A 
ATOM     13  C   UNL     1       3.857   3.228   1.100  0.00  0.00    +0.000 A 
ATOM     14  C   UNL     1       4.959   3.912   0.604  0.00  0.00    +0.000 A 
ATOM     15  C   UNL     1       5.744   3.282  -0.346  0.00  0.00    +0.000 A 
ATOM     16  N   UNL     1       5.517   2.031  -0.806  0.00  0.00    +0.000 NA
ENDBRANCH  10  11
ENDBRANCH   1  10
BRANCH   5  17
ATOM     17  C   UNL     1       1.602  -5.392  -3.298  0.00  0.00    +0.000 C 
BRANCH  17  18
ATOM     18  N   UNL     1       1.636  -6.337  -2.208  0.00  0.00    +0.000 N 
ATOM     19  C   UNL     1       0.504  -6.771  -1.565  0.00  0.00    +0.000 C 
ATOM     20  O   UNL     1      -0.615  -6.370  -1.872  0.00  0.00    +0.000 OA
ATOM     21  H   UNL     1       2.545  -6.550  -1.811  0.00  0.00    +0.000 HD
BRANCH  19  22
ATOM     22  C   UNL     1       0.690  -7.803  -0.534  0.00  0.00    +0.000 A 
ATOM     23  C   UNL     1      -0.382  -8.610  -0.176  0.00  0.00    +0.000 A 
ATOM     24  S   UNL     1       0.003  -9.780   1.003  0.00  0.00    +0.000 S 
ATOM     25  C   UNL     1       1.605  -9.222   1.113  0.00  0.00    +0.000 A 
ATOM     26  N   UNL     1       2.485  -9.790   1.982  0.00  0.00    +0.000 NA
ATOM     27  C   UNL     1       3.655  -9.245   1.990  0.00  0.00    +0.000 A 
ATOM     28  N   UNL     1       4.031  -8.191   1.198  0.00  0.00    +0.000 N 
ATOM     29  C   UNL     1       3.197  -7.636   0.254  0.00  0.00    +0.000 A 
ATOM     30  O   UNL     1       3.604  -6.777  -0.527  0.00  0.00    +0.000 OA
ATOM     31  C   UNL     1       1.854  -8.176   0.241  0.00  0.00    +0.000 A 
ATOM     32  H   UNL     1       4.973  -7.830   1.232  0.00  0.00    +0.000 HD
ENDBRANCH  19  22
ENDBRANCH  17  18
ENDBRANCH   5  17
TORSDOF 5
