REMARK  Name = 
REMARK  7 active torsions:
REMARK  status: ('A' for Active; 'I' for Inactive)
REMARK    1  A    between atoms: C_2  and  C_4
REMARK    2  A    between atoms: C_8  and  N_9
REMARK    3  A    between atoms: N_9  and  C_10
REMARK    4  A    between atoms: C_10  and  C_11
REMARK    5  A    between atoms: C_11  and  C_12
REMARK    6  A    between atoms: C_16  and  C_17
REMARK    7  A    between atoms: C_17  and  C_18
REMARK                            x       y       z     vdW  Elec       q    Type
REMARK                         _______ _______ _______ _____ _____    ______ ____
ROOT
ATOM      1  N   UNL     1       6.623   2.571   1.041  0.00  0.00    +0.000 N 
ATOM      2  H   UNL     1       6.992   1.698   0.666  0.00  0.00    +0.000 HD
ENDROOT
BRANCH   1   7
ATOM      3  C   UNL     1       3.161   1.218   1.191  0.00  0.00    +0.000 A 
ATOM      4  C   UNL     1       2.555   2.085   2.105  0.00  0.00    +0.000 A 
ATOM      5  C   UNL     1       3.289   3.135   2.647  0.00  0.00    +0.000 A 
ATOM      6  C   UNL     1       4.632   3.302   2.301  0.00  0.00    +0.000 A 
ATOM      7  C   UNL     1       5.284   2.408   1.441  0.00  0.00    +0.000 A 
ATOM      8  C   UNL     1       4.517   1.388   0.858  0.00  0.00    +0.000 A 
BRANCH   3  10
ATOM      9  N   UNL     1       1.054   0.196   0.513  0.00  0.00    +0.000 N 
ATOM     10  C   UNL     1       2.415   0.081   0.591  0.00  0.00    +0.000 C 
ATOM     11  O   UNL     1       2.987  -0.911   0.158  0.00  0.00    +0.000 OA
ATOM     12  H   UNL     1       0.566  -0.545   0.024  0.00  0.00    +0.000 HD
ATOM     13  H   UNL     1       0.572   1.077   0.626  0.00  0.00    +0.000 HD
ENDBRANCH   3  10
ENDBRANCH   1   7
BRANCH   1  14
ATOM     14  C   UNL     1       7.542   3.188   2.006  0.00  0.00    +0.000 C 
BRANCH  14  15
ATOM     15  C   UNL     1       8.961   3.252   1.435  0.00  0.00    +0.000 C 
BRANCH  15  16
ATOM     16  C   UNL     1       9.949   3.819   2.425  0.00  0.00    +0.000 A 
ATOM     17  C   UNL     1      10.172   5.192   2.523  0.00  0.00    +0.000 A 
ATOM     18  C   UNL     1      11.112   5.643   3.436  0.00  0.00    +0.000 A 
ATOM     19  N   UNL     1      11.839   4.832   4.237  0.00  0.00    +0.000 NA
ATOM     20  C   UNL     1      11.611   3.498   4.152  0.00  0.00    +0.000 A 
ATOM     21  C   UNL     1      10.656   2.970   3.282  0.00  0.00    +0.000 A 
BRANCH  20  22
ATOM     22  C   UNL     1      12.374   2.616   5.108  0.00  0.00    +0.000 C 
BRANCH  22  23
ATOM     23  C   UNL     1      13.286   1.587   4.445  0.00  0.00    +0.000 C 
ATOM     24  C   UNL     1      14.343   1.998   3.411  0.00  0.00    +0.000 C 
ATOM     25  C   UNL     1      13.737   0.885   2.559  0.00  0.00    +0.000 C 
ATOM     26  O   UNL     1      12.619   0.736   3.471  0.00  0.00    +0.000 OA
ENDBRANCH  22  23
ENDBRANCH  20  22
ENDBRANCH  15  16
ENDBRANCH  14  15
ENDBRANCH   1  14
TORSDOF 7
