REMARK  Name = 
REMARK  4 active torsions:
REMARK  status: ('A' for Active; 'I' for Inactive)
REMARK    1  A    between atoms: C_2  and  C_3
REMARK    2  A    between atoms: C_6  and  C_7
REMARK    3  A    between atoms: C_7  and  N_8
REMARK    4  A    between atoms: C_10  and  C_11
REMARK                            x       y       z     vdW  Elec       q    Type
REMARK                         _______ _______ _______ _____ _____    ______ ____
ROOT
ATOM      1  N   UNL     1      -4.315   1.489  -0.203  0.00  0.00    +0.000 N 
ATOM      2  C   UNL     1      -5.132   2.029   0.763  0.00  0.00    +0.000 A 
ATOM      3  C   UNL     1      -5.343   3.355   0.450  0.00  0.00    +0.000 A 
ATOM      4  C   UNL     1      -4.619   3.644  -0.740  0.00  0.00    +0.000 A 
ATOM      5  C   UNL     1      -4.416   4.812  -1.508  0.00  0.00    +0.000 A 
ATOM      6  C   UNL     1      -3.601   4.761  -2.644  0.00  0.00    +0.000 A 
ATOM      7  C   UNL     1      -3.007   3.565  -3.034  0.00  0.00    +0.000 A 
ATOM      8  C   UNL     1      -3.200   2.392  -2.298  0.00  0.00    +0.000 A 
ATOM      9  C   UNL     1      -3.998   2.455  -1.143  0.00  0.00    +0.000 A 
ENDROOT
BRANCH   3  10
ATOM     10  C   UNL     1      -6.124   4.268   1.228  0.00  0.00    +0.000 C 
ATOM     11  N   UNL     1      -6.755   5.003   1.867  0.00  0.00    +0.000 NA
ENDBRANCH   3  10
BRANCH   1  12
ATOM     12  C   UNL     1      -3.712   0.163  -0.116  0.00  0.00    +0.000 C 
BRANCH  12  16
ATOM     13  C   UNL     1      -5.837  -3.030  -1.988  0.00  0.00    +0.000 A 
ATOM     14  C   UNL     1      -6.128  -2.716  -0.661  0.00  0.00    +0.000 A 
ATOM     15  C   UNL     1      -5.481  -1.639  -0.050  0.00  0.00    +0.000 A 
ATOM     16  C   UNL     1      -4.538  -0.912  -0.777  0.00  0.00    +0.000 A 
ATOM     17  N   UNL     1      -4.257  -1.200  -2.075  0.00  0.00    +0.000 NA
ATOM     18  C   UNL     1      -4.914  -2.237  -2.650  0.00  0.00    +0.000 A 
BRANCH  13  20
ATOM     19  N   UNL     1      -6.929  -5.055  -3.171  0.00  0.00    +0.000 NA
ATOM     20  C   UNL     1      -6.446  -4.143  -2.644  0.00  0.00    +0.000 C 
ENDBRANCH  13  20
ENDBRANCH  12  16
ENDBRANCH   1  12
TORSDOF 4
