REMARK  Name = 
REMARK  5 active torsions:
REMARK  status: ('A' for Active; 'I' for Inactive)
REMARK    1  A    between atoms: C_2  and  C_3
REMARK    2  A    between atoms: C_7  and  N_8
REMARK    3  A    between atoms: N_8  and  C_9
REMARK    4  A    between atoms: C_9  and  C_10
REMARK    5  A    between atoms: C_15  and  C_16
REMARK                            x       y       z     vdW  Elec       q    Type
REMARK                         _______ _______ _______ _____ _____    ______ ____
ROOT
ATOM      1  C   UNL     1      -2.571   4.913   0.135  0.00  0.00    +0.000 A 
ATOM      2  C   UNL     1      -3.952   4.691   0.192  0.00  0.00    +0.000 A 
ATOM      3  C   UNL     1      -4.831   5.772   0.236  0.00  0.00    +0.000 A 
ATOM      4  C   UNL     1      -4.337   7.077   0.215  0.00  0.00    +0.000 A 
ATOM      5  F   UNL     1      -5.235   8.074   0.242  0.00  0.00    +0.000 F 
ATOM      6  C   UNL     1      -2.962   7.354   0.159  0.00  0.00    +0.000 A 
ATOM      7  C   UNL     1      -2.095   6.238   0.110  0.00  0.00    +0.000 A 
ENDROOT
BRANCH   6   8
ATOM      8  C   UNL     1      -2.428   8.735   0.169  0.00  0.00    +0.000 A 
ATOM      9  C   UNL     1      -1.240   9.084  -0.493  0.00  0.00    +0.000 A 
ATOM     10  C   UNL     1      -0.748  10.388  -0.447  0.00  0.00    +0.000 A 
ATOM     11  C   UNL     1      -1.464  11.335   0.259  0.00  0.00    +0.000 A 
ATOM     12  N   UNL     1      -2.608  11.063   0.914  0.00  0.00    +0.000 NA
ATOM     13  C   UNL     1      -3.056   9.782   0.854  0.00  0.00    +0.000 A 
ENDBRANCH   6   8
BRANCH   1  14
ATOM     14  C   UNL     1      -1.592   3.758   0.118  0.00  0.00    +0.000 C 
BRANCH  14  15
ATOM     15  N   UNL     1      -1.262   3.386  -1.249  0.00  0.00    +0.000 N 
ATOM     16  H   UNL     1      -2.036   3.475  -1.905  0.00  0.00    +0.000 HD
BRANCH  15  21
ATOM     17  C   UNL     1       1.315   0.701  -0.927  0.00  0.00    +0.000 A 
ATOM     18  C   UNL     1       1.438   0.379  -2.268  0.00  0.00    +0.000 A 
ATOM     19  N   UNL     1       0.711   0.969  -3.241  0.00  0.00    +0.000 NA
ATOM     20  C   UNL     1      -0.171   1.924  -2.846  0.00  0.00    +0.000 A 
ATOM     21  C   UNL     1      -0.403   2.321  -1.523  0.00  0.00    +0.000 A 
ATOM     22  C   UNL     1       0.390   1.688  -0.561  0.00  0.00    +0.000 A 
BRANCH  17  24
ATOM     23  N   UNL     1       2.774  -0.485   0.853  0.00  0.00    +0.000 NA
ATOM     24  C   UNL     1       2.122   0.045   0.051  0.00  0.00    +0.000 C 
ENDBRANCH  17  24
ENDBRANCH  15  21
ENDBRANCH  14  15
ENDBRANCH   1  14
TORSDOF 5
