REMARK  Name = 
REMARK  5 active torsions:
REMARK  status: ('A' for Active; 'I' for Inactive)
REMARK    1  A    between atoms: C_2  and  C_4
REMARK    2  A    between atoms: C_7  and  C_8
REMARK    3  A    between atoms: C_12  and  C_13
REMARK    4  A    between atoms: C_13  and  N_14
REMARK    5  A    between atoms: C_20  and  C_21
REMARK                            x       y       z     vdW  Elec       q    Type
REMARK                         _______ _______ _______ _____ _____    ______ ____
ROOT
ATOM      1  C   UNL     1       7.141   5.721   4.807  0.00  0.00    +0.000 C 
ATOM      2  C   UNL     1       6.696   6.626   5.957  0.00  0.00    +0.000 C 
ATOM      3  C   UNL     1       8.006   6.870   5.301  0.00  0.00    +0.000 C 
ATOM      4  F   UNL     1       9.116   6.622   6.090  0.00  0.00    +0.000 F 
ENDROOT
BRANCH   1   5
ATOM      5  N   UNL     1       7.421   4.301   5.132  0.00  0.00    +0.000 N 
ATOM      6  C   UNL     1       8.553   3.590   4.711  0.00  0.00    +0.000 A 
ATOM      7  C   UNL     1       9.799   4.180   4.514  0.00  0.00    +0.000 A 
ATOM      8  C   UNL     1      10.919   3.389   4.253  0.00  0.00    +0.000 A 
ATOM      9  C   UNL     1      10.769   2.018   4.159  0.00  0.00    +0.000 A 
ATOM     10  F   UNL     1      11.850   1.263   3.925  0.00  0.00    +0.000 F 
ATOM     11  C   UNL     1       9.499   1.493   4.319  0.00  0.00    +0.000 A 
ATOM     12  N   UNL     1       8.387   2.252   4.601  0.00  0.00    +0.000 NA
ATOM     13  H   UNL     1       6.639   3.652   5.128  0.00  0.00    +0.000 HD
BRANCH  11  14
ATOM     14  C   UNL     1       9.275   0.020   4.192  0.00  0.00    +0.000 C 
ATOM     15  N   UNL     1       7.975  -0.391   4.343  0.00  0.00    +0.000 N 
ATOM     16  O   UNL     1      10.159  -0.795   3.962  0.00  0.00    +0.000 OA
ATOM     17  H   UNL     1       7.247   0.285   4.535  0.00  0.00    +0.000 HD
ATOM     18  H   UNL     1       7.763  -1.374   4.263  0.00  0.00    +0.000 HD
ENDBRANCH  11  14
ENDBRANCH   1   5
BRANCH   1  23
ATOM     19  C   UNL     1       6.510   6.544   1.243  0.00  0.00    +0.000 A 
ATOM     20  N   UNL     1       5.180   6.462   1.075  0.00  0.00    +0.000 NA
ATOM     21  C   UNL     1       4.467   6.086   2.150  0.00  0.00    +0.000 A 
ATOM     22  C   UNL     1       5.034   5.803   3.372  0.00  0.00    +0.000 A 
ATOM     23  C   UNL     1       6.411   5.933   3.475  0.00  0.00    +0.000 A 
ATOM     24  N   UNL     1       7.146   6.298   2.405  0.00  0.00    +0.000 NA
BRANCH  19  28
ATOM     25  C   UNL     1       8.876   7.626  -2.092  0.00  0.00    +0.000 A 
ATOM     26  C   UNL     1       9.527   7.308  -0.910  0.00  0.00    +0.000 A 
ATOM     27  C   UNL     1       8.745   6.962   0.189  0.00  0.00    +0.000 A 
ATOM     28  C   UNL     1       7.343   6.929   0.100  0.00  0.00    +0.000 A 
ATOM     29  C   UNL     1       6.801   7.277  -1.138  0.00  0.00    +0.000 A 
ATOM     30  N   UNL     1       7.522   7.629  -2.236  0.00  0.00    +0.000 NA
BRANCH  25  32
ATOM     31  N   UNL     1       8.963   8.342  -4.403  0.00  0.00    +0.000 N 
ATOM     32  C   UNL     1       9.685   7.985  -3.299  0.00  0.00    +0.000 C 
ATOM     33  O   UNL     1      10.909   7.964  -3.305  0.00  0.00    +0.000 OA
ATOM     34  H   UNL     1       9.444   8.592  -5.254  0.00  0.00    +0.000 HD
ATOM     35  H   UNL     1       7.950   8.351  -4.356  0.00  0.00    +0.000 HD
ENDBRANCH  25  32
ENDBRANCH  19  28
ENDBRANCH   1  23
TORSDOF 5
