REMARK  Name = 
REMARK  8 active torsions:
REMARK  status: ('A' for Active; 'I' for Inactive)
REMARK    1  A    between atoms: C_2  and  C_20
REMARK    2  A    between atoms: N_3  and  C_4
REMARK    3  A    between atoms: C_4  and  C_5
REMARK    4  A    between atoms: C_8  and  C_9
REMARK    5  A    between atoms: C_9  and  C_10
REMARK    6  A    between atoms: C_10  and  O_11
REMARK    7  A    between atoms: C_10  and  C_12
REMARK    8  A    between atoms: C_12  and  N_13
REMARK                            x       y       z     vdW  Elec       q    Type
REMARK                         _______ _______ _______ _____ _____    ______ ____
ROOT
ATOM      1  C   UNL     1       2.299   2.314  -0.227  0.00  0.00    +0.000 C 
ENDROOT
BRANCH   1   2
ATOM      2  C   UNL     1       3.253   3.470  -0.355  0.00  0.00    +0.000 A 
ATOM      3  C   UNL     1       2.750   4.765  -0.522  0.00  0.00    +0.000 A 
ATOM      4  C   UNL     1       3.614   5.852  -0.631  0.00  0.00    +0.000 A 
ATOM      5  C   UNL     1       5.003   5.672  -0.564  0.00  0.00    +0.000 A 
ATOM      6  C   UNL     1       5.508   4.373  -0.430  0.00  0.00    +0.000 A 
ATOM      7  C   UNL     1       4.640   3.280  -0.331  0.00  0.00    +0.000 A 
BRANCH   5   8
ATOM      8  C   UNL     1       5.932   6.874  -0.562  0.00  0.00    +0.000 C 
BRANCH   8   9
ATOM      9  C   UNL     1       5.659   7.770   0.661  0.00  0.00    +0.000 C 
BRANCH   9  10
ATOM     10  O   UNL     1       5.940   7.029   1.858  0.00  0.00    +0.000 OA
ATOM     11  H   UNL     1       6.879   6.788   1.843  0.00  0.00    +0.000 HD
ENDBRANCH   9  10
BRANCH   9  12
ATOM     12  C   UNL     1       6.471   9.093   0.650  0.00  0.00    +0.000 C 
BRANCH  12  13
ATOM     13  N   UNL     1       6.203   9.917   1.841  0.00  0.00    +0.000 NA
ATOM     14  C   UNL     1       4.813  10.366   1.975  0.00  0.00    +0.000 C 
ATOM     15  C   UNL     1       4.839  11.871   1.812  0.00  0.00    +0.000 C 
ATOM     16  C   UNL     1       6.196  12.254   2.354  0.00  0.00    +0.000 C 
ATOM     17  C   UNL     1       7.086  11.077   1.983  0.00  0.00    +0.000 C 
ENDBRANCH  12  13
ENDBRANCH   9  12
ENDBRANCH   8   9
ENDBRANCH   5   8
ENDBRANCH   1   2
BRANCH   1  20
ATOM     18  O   UNL     1       0.036   3.032  -1.755  0.00  0.00    +0.000 OA
ATOM     19  C   UNL     1       0.829   2.211  -2.203  0.00  0.00    +0.000 C 
ATOM     20  N   UNL     1       1.945   1.781  -1.519  0.00  0.00    +0.000 N 
ATOM     21  H   UNL     1       2.652   1.264  -2.021  0.00  0.00    +0.000 HD
BRANCH  19  22
ATOM     22  C   UNL     1       0.634   1.558  -3.494  0.00  0.00    +0.000 A 
ATOM     23  C   UNL     1       0.921   0.218  -3.711  0.00  0.00    +0.000 A 
ATOM     24  S   UNL     1       0.501  -0.319  -5.277  0.00  0.00    +0.000 S 
ATOM     25  C   UNL     1      -0.089   1.220  -5.706  0.00  0.00    +0.000 A 
ATOM     26  N   UNL     1      -0.629   1.446  -6.933  0.00  0.00    +0.000 NA
ATOM     27  C   UNL     1      -1.051   2.654  -7.109  0.00  0.00    +0.000 A 
ATOM     28  N   UNL     1      -0.965   3.660  -6.180  0.00  0.00    +0.000 N 
ATOM     29  C   UNL     1      -0.347   3.501  -4.958  0.00  0.00    +0.000 A 
ATOM     30  O   UNL     1      -0.131   4.468  -4.234  0.00  0.00    +0.000 OA
ATOM     31  C   UNL     1       0.067   2.138  -4.681  0.00  0.00    +0.000 A 
ATOM     32  H   UNL     1      -1.260   4.596  -6.399  0.00  0.00    +0.000 HD
ENDBRANCH  19  22
ENDBRANCH   1  20
TORSDOF 8
