REMARK  Name = 
REMARK  10 active torsions:
REMARK  status: ('A' for Active; 'I' for Inactive)
REMARK    1  A    between atoms: C_1  and  O_2
REMARK    2  A    between atoms: O_2  and  C_3
REMARK    3  A    between atoms: C_3  and  C_5
REMARK    4  A    between atoms: C_5  and  O_6
REMARK    5  A    between atoms: O_6  and  C_7
REMARK    6  A    between atoms: C_11  and  C_12
REMARK    7  A    between atoms: C_12  and  C_13
REMARK    8  A    between atoms: C_13  and  C_14
REMARK    9  A    between atoms: C_13  and  C_15
REMARK   10  A    between atoms: C_13  and  C_16
REMARK                            x       y       z     vdW  Elec       q    Type
REMARK                         _______ _______ _______ _____ _____    ______ ____
ROOT
ATOM      1  C   UNL     1       8.436   1.066  -2.823  0.00  0.00    +0.000 A 
ATOM      2  C   UNL     1       7.311   0.801  -2.056  0.00  0.00    +0.000 A 
ATOM      3  C   UNL     1       6.709   1.859  -1.408  0.00  0.00    +0.000 A 
ATOM      4  N   UNL     1       7.157   3.130  -1.480  0.00  0.00    +0.000 NA
ATOM      5  C   UNL     1       8.248   3.380  -2.235  0.00  0.00    +0.000 A 
ATOM      6  C   UNL     1       8.933   2.363  -2.890  0.00  0.00    +0.000 A 
ENDROOT
BRANCH   1   7
ATOM      7  O   UNL     1       8.989  -0.009  -3.462  0.00  0.00    +0.000 OA
BRANCH   7   8
ATOM      8  C   UNL     1       9.732   0.313  -4.634  0.00  0.00    +0.000 C 
BRANCH   8   9
ATOM      9  C   UNL     1       9.907  -0.914  -5.506  0.00  0.00    +0.000 C 
ATOM     10  O   UNL     1       9.530  -2.043  -5.241  0.00  0.00    +0.000 OA
BRANCH   9  12
ATOM     11  C   UNL     1      10.721  -1.643  -7.563  0.00  0.00    +0.000 C 
ATOM     12  O   UNL     1      10.552  -0.558  -6.653  0.00  0.00    +0.000 OA
ENDBRANCH   9  12
ENDBRANCH   8   9
ENDBRANCH   7   8
ENDBRANCH   1   7
BRANCH   5  13
ATOM     13  C   UNL     1       8.799   4.787  -2.297  0.00  0.00    +0.000 C 
BRANCH  13  14
ATOM     14  C   UNL     1       7.801   5.980  -2.149  0.00  0.00    +0.000 C 
ATOM     15  C   UNL     1       7.234   5.975  -0.706  0.00  0.00    +0.000 C 
ATOM     16  C   UNL     1       8.631   7.278  -2.326  0.00  0.00    +0.000 C 
BRANCH  14  17
ATOM     17  C   UNL     1       6.695   6.050  -3.221  0.00  0.00    +0.000 A 
ATOM     18  C   UNL     1       5.442   6.621  -2.925  0.00  0.00    +0.000 A 
ATOM     19  C   UNL     1       4.457   6.772  -3.901  0.00  0.00    +0.000 A 
ATOM     20  C   UNL     1       4.703   6.363  -5.206  0.00  0.00    +0.000 A 
ATOM     21  C   UNL     1       5.934   5.800  -5.530  0.00  0.00    +0.000 A 
ATOM     22  C   UNL     1       6.920   5.647  -4.549  0.00  0.00    +0.000 A 
ENDBRANCH  14  17
ENDBRANCH  13  14
ENDBRANCH   5  13
TORSDOF 7
