REMARK  Name = 
REMARK  4 active torsions:
REMARK  status: ('A' for Active; 'I' for Inactive)
REMARK    1  A    between atoms: N_1  and  C_2
REMARK    2  A    between atoms: C_2  and  C_3
REMARK    3  A    between atoms: C_6  and  C_7
REMARK    4  A    between atoms: C_7  and  N_8
REMARK                            x       y       z     vdW  Elec       q    Type
REMARK                         _______ _______ _______ _____ _____    ______ ____
ROOT
ATOM      1  C   UNL     1       2.823   0.843  -1.121  0.00  0.00    +0.000 C 
ATOM      2  C   UNL     1       4.335   0.692  -1.381  0.00  0.00    +0.000 C 
ATOM      3  C   UNL     1       4.884   1.659  -2.429  0.00  0.00    +0.000 C 
ATOM      4  C   UNL     1       4.569   3.134  -2.126  0.00  0.00    +0.000 C 
ATOM      5  C   UNL     1       3.051   3.298  -1.884  0.00  0.00    +0.000 C 
ATOM      6  C   UNL     1       2.474   2.315  -0.866  0.00  0.00    +0.000 C 
ENDROOT
BRANCH   1   7
ATOM      7  C   UNL     1       1.967   0.133  -2.183  0.00  0.00    +0.000 C 
BRANCH   7   8
ATOM      8  N   UNL     1       0.519   0.220  -2.016  0.00  0.00    +0.000 NA
ATOM      9  H   UNL     1       0.063  -0.359  -2.730  0.00  0.00    +0.000 HD
ATOM     10  H   UNL     1       0.205   1.166  -2.216  0.00  0.00    +0.000 HD
ENDBRANCH   7   8
ENDBRANCH   1   7
BRANCH   4  11
ATOM     11  C   UNL     1       5.426   3.724  -0.974  0.00  0.00    +0.000 C 
BRANCH  11  12
ATOM     12  N   UNL     1       6.870   3.698  -1.211  0.00  0.00    +0.000 N 
ATOM     13  C   UNL     1       7.529   4.318  -2.247  0.00  0.00    +0.000 A 
ATOM     14  C   UNL     1       8.843   3.895  -2.237  0.00  0.00    +0.000 A 
ATOM     15  C   UNL     1       9.025   3.132  -1.062  0.00  0.00    +0.000 A 
ATOM     16  C   UNL     1      10.128   2.508  -0.455  0.00  0.00    +0.000 A 
ATOM     17  C   UNL     1       9.921   1.885   0.772  0.00  0.00    +0.000 A 
ATOM     18  C   UNL     1       8.641   1.875   1.311  0.00  0.00    +0.000 A 
ATOM     19  N   UNL     1       7.536   2.419   0.747  0.00  0.00    +0.000 NA
ATOM     20  C   UNL     1       7.788   3.041  -0.421  0.00  0.00    +0.000 A 
ENDBRANCH  11  12
ENDBRANCH   4  11
TORSDOF 4
