REMARK  Name = 
REMARK  6 active torsions:
REMARK  status: ('A' for Active; 'I' for Inactive)
REMARK    1  A    between atoms: C_1  and  C_2
REMARK    2  A    between atoms: C_2  and  O_3
REMARK    3  A    between atoms: C_2  and  C_15
REMARK    4  A    between atoms: O_3  and  C_4
REMARK    5  A    between atoms: C_7  and  C_8
REMARK    6  A    between atoms: C_11  and  C_12
REMARK                            x       y       z     vdW  Elec       q    Type
REMARK                         _______ _______ _______ _____ _____    ______ ____
ROOT
ATOM      1  C   UNL     1       2.579  -1.903   1.515  0.00  0.00    +0.000 A 
ATOM      2  C   UNL     1       2.319  -3.273   1.539  0.00  0.00    +0.000 A 
ATOM      3  C   UNL     1       2.066  -3.932   2.748  0.00  0.00    +0.000 A 
ATOM      4  C   UNL     1       2.101  -3.228   3.964  0.00  0.00    +0.000 A 
ATOM      5  C   UNL     1       2.408  -1.857   3.948  0.00  0.00    +0.000 A 
ATOM      6  C   UNL     1       2.645  -1.206   2.720  0.00  0.00    +0.000 A 
ENDROOT
BRANCH   4   7
ATOM      7  C   UNL     1       1.760  -3.919   5.235  0.00  0.00    +0.000 C 
ATOM      8  N   UNL     1       2.050  -5.251   5.334  0.00  0.00    +0.000 N 
ATOM      9  O   UNL     1       1.231  -3.330   6.165  0.00  0.00    +0.000 OA
ATOM     10  H   UNL     1       2.600  -5.769   4.665  0.00  0.00    +0.000 HD
ATOM     11  H   UNL     1       1.863  -5.687   6.230  0.00  0.00    +0.000 HD
ENDBRANCH   4   7
BRANCH   5  12
ATOM     12  C   UNL     1       2.543  -1.070   5.145  0.00  0.00    +0.000 C 
ATOM     13  N   UNL     1       2.707  -0.365   6.050  0.00  0.00    +0.000 NA
ENDBRANCH   5  12
BRANCH   1  14
ATOM     14  O   UNL     1       2.775  -1.364   0.271  0.00  0.00    +0.000 OA
BRANCH  14  16
ATOM     15  C   UNL     1       0.956   0.268   0.164  0.00  0.00    +0.000 C 
ATOM     16  C   UNL     1       2.467   0.028   0.077  0.00  0.00    +0.000 C 
BRANCH  16  17
ATOM     17  C   UNL     1       2.940   0.479  -1.292  0.00  0.00    +0.000 A 
ATOM     18  C   UNL     1       3.351   1.804  -1.498  0.00  0.00    +0.000 A 
ATOM     19  C   UNL     1       3.661   2.246  -2.781  0.00  0.00    +0.000 A 
ATOM     20  C   UNL     1       3.554   1.345  -3.825  0.00  0.00    +0.000 A 
ATOM     21  N   UNL     1       3.178   0.058  -3.669  0.00  0.00    +0.000 NA
ATOM     22  C   UNL     1       2.880  -0.345  -2.411  0.00  0.00    +0.000 A 
ENDBRANCH  16  17
ENDBRANCH  14  16
ENDBRANCH   1  14
TORSDOF 5
