REMARK  Name = 
REMARK  4 active torsions:
REMARK  status: ('A' for Active; 'I' for Inactive)
REMARK    1  A    between atoms: C_3  and  N_4
REMARK    2  A    between atoms: N_4  and  C_5
REMARK    3  A    between atoms: C_5  and  C_6
REMARK    4  A    between atoms: C_13  and  N_14
REMARK                            x       y       z     vdW  Elec       q    Type
REMARK                         _______ _______ _______ _____ _____    ______ ____
ROOT
ATOM      1  C   UNL     1       1.385  -0.203  -0.071  0.00  0.00    +0.000 A 
ATOM      2  C   UNL     1       0.515  -1.284  -0.119  0.00  0.00    +0.000 A 
ATOM      3  C   UNL     1      -0.866  -1.101   0.022  0.00  0.00    +0.000 A 
ATOM      4  C   UNL     1      -1.360   0.207   0.148  0.00  0.00    +0.000 A 
ATOM      5  C   UNL     1      -0.505   1.321   0.213  0.00  0.00    +0.000 A 
ATOM      6  C   UNL     1       0.874   1.082   0.098  0.00  0.00    +0.000 A 
ENDROOT
BRANCH   5   7
ATOM      7  N   UNL     1      -0.961   2.629   0.338  0.00  0.00    +0.000 N 
ATOM      8  C   UNL     1      -2.321   3.007  -0.049  0.00  0.00    +0.000 C 
ATOM      9  C   UNL     1      -2.293   4.461  -0.533  0.00  0.00    +0.000 C 
ATOM     10  C   UNL     1      -1.657   5.398   0.496  0.00  0.00    +0.000 C 
ATOM     11  C   UNL     1      -0.303   4.876   0.976  0.00  0.00    +0.000 C 
ATOM     12  C   UNL     1      -0.404   3.425   1.440  0.00  0.00    +0.000 C 
ENDBRANCH   5   7
BRANCH   3  13
ATOM     13  N   UNL     1      -1.674  -2.244  -0.050  0.00  0.00    +0.000 N 
ATOM     14  H   UNL     1      -1.728  -2.566  -1.017  0.00  0.00    +0.000 HD
BRANCH  13  15
ATOM     15  C   UNL     1      -3.007  -2.192   0.551  0.00  0.00    +0.000 C 
BRANCH  15  16
ATOM     16  C   UNL     1      -3.477  -3.593   0.888  0.00  0.00    +0.000 A 
ATOM     17  C   UNL     1      -2.708  -4.397   1.715  0.00  0.00    +0.000 A 
ATOM     18  C   UNL     1      -3.209  -5.646   1.993  0.00  0.00    +0.000 A 
ATOM     19  N   UNL     1      -4.382  -6.097   1.516  0.00  0.00    +0.000 NA
ATOM     20  C   UNL     1      -5.053  -5.244   0.726  0.00  0.00    +0.000 A 
ATOM     21  N   UNL     1      -4.664  -4.005   0.382  0.00  0.00    +0.000 NA
ENDBRANCH  15  16
ENDBRANCH  13  15
ENDBRANCH   3  13
TORSDOF 4
