REMARK  Name = 
REMARK  4 active torsions:
REMARK  status: ('A' for Active; 'I' for Inactive)
REMARK    1  A    between atoms: C_1  and  C_2
REMARK    2  A    between atoms: C_4  and  C_5
REMARK    3  A    between atoms: N_13  and  C_14
REMARK    4  A    between atoms: C_14  and  C_15
REMARK                            x       y       z     vdW  Elec       q    Type
REMARK                         _______ _______ _______ _____ _____    ______ ____
ROOT
ATOM      1  C   UNL     1       0.827   0.035   0.004  0.00  0.00    +0.000 C 
ATOM      2  C   UNL     1       2.326  -0.008  -0.036  0.00  0.00    +0.000 A 
ATOM      3  C   UNL     1       3.068   1.174  -0.045  0.00  0.00    +0.000 A 
ATOM      4  C   UNL     1       4.462   1.119  -0.068  0.00  0.00    +0.000 A 
ATOM      5  N   UNL     1       5.221  -0.024  -0.081  0.00  0.00    +0.000 NA
ATOM      6  C   UNL     1       4.461  -1.149  -0.065  0.00  0.00    +0.000 A 
ATOM      7  C   UNL     1       3.062  -1.210  -0.047  0.00  0.00    +0.000 A 
ATOM      8  C   UNL     1       2.696  -2.583  -0.029  0.00  0.00    +0.000 A 
ATOM      9  C   UNL     1       3.853  -3.324  -0.021  0.00  0.00    +0.000 A 
ATOM     10  N   UNL     1       4.919  -2.453  -0.044  0.00  0.00    +0.000 N 
ENDROOT
BRANCH   4  11
ATOM     11  C   UNL     1       5.191   2.432  -0.065  0.00  0.00    +0.000 C 
ATOM     12  N   UNL     1       6.557   2.373  -0.126  0.00  0.00    +0.000 N 
ATOM     13  O   UNL     1       4.612   3.517  -0.004  0.00  0.00    +0.000 OA
ATOM     14  H   UNL     1       7.024   1.479  -0.167  0.00  0.00    +0.000 HD
ATOM     15  H   UNL     1       7.080   3.235  -0.109  0.00  0.00    +0.000 HD
ENDBRANCH   4  11
BRANCH  10  16
ATOM     16  C   UNL     1       6.308  -2.890   0.027  0.00  0.00    +0.000 C 
BRANCH  16  17
ATOM     17  C   UNL     1       6.861  -3.179  -1.344  0.00  0.00    +0.000 A 
ATOM     18  C   UNL     1       7.564  -2.192  -2.039  0.00  0.00    +0.000 A 
ATOM     19  C   UNL     1       7.968  -2.453  -3.338  0.00  0.00    +0.000 A 
ATOM     20  N   UNL     1       7.734  -3.617  -3.980  0.00  0.00    +0.000 NA
ATOM     21  C   UNL     1       7.072  -4.567  -3.288  0.00  0.00    +0.000 A 
ATOM     22  C   UNL     1       6.631  -4.404  -1.983  0.00  0.00    +0.000 A 
ENDBRANCH  16  17
ENDBRANCH  10  16
TORSDOF 3
