REMARK  Name = 
REMARK  5 active torsions:
REMARK  status: ('A' for Active; 'I' for Inactive)
REMARK    1  A    between atoms: C_2  and  C_4
REMARK    2  A    between atoms: N_8  and  C_9
REMARK    3  A    between atoms: C_9  and  C_10
REMARK    4  A    between atoms: CA_13  and  C_14
REMARK    5  A    between atoms: C_14  and  O_15
REMARK                            x       y       z     vdW  Elec       q    Type
REMARK                         _______ _______ _______ _____ _____    ______ ____
ROOT
ATOM      1  C   UNL     1       4.136   1.755   2.731  0.00  0.00    +0.000 A 
ATOM      2  C   UNL     1       3.433   2.930   2.640  0.00  0.00    +0.000 A 
ATOM      3  N   UNL     1       3.729   3.908   1.757  0.00  0.00    +0.000 NA
ATOM      4  C   UNL     1       4.794   3.713   0.958  0.00  0.00    +0.000 A 
ATOM      5  N   UNL     1       4.972   4.689  -0.024  0.00  0.00    +0.000 N 
ATOM      6  N   UNL     1       5.590   2.636   1.029  0.00  0.00    +0.000 NA
ATOM      7  C   UNL     1       5.240   1.672   1.914  0.00  0.00    +0.000 A 
ATOM      8  H   UNL     1       4.336   5.438   0.233  0.00  0.00    +0.000 HD
ENDROOT
BRANCH   1  10
ATOM      9  N   UNL     1       2.440   0.527   3.956  0.00  0.00    +0.000 N 
ATOM     10  C   UNL     1       3.760   0.645   3.615  0.00  0.00    +0.000 C 
ATOM     11  O   UNL     1       4.591  -0.174   3.992  0.00  0.00    +0.000 OA
ATOM     12  H   UNL     1       2.186  -0.314   4.466  0.00  0.00    +0.000 HD
ATOM     13  H   UNL     1       1.694   1.005   3.466  0.00  0.00    +0.000 HD
ENDBRANCH   1  10
BRANCH   5  14
ATOM     14  C   UNL     1       6.313   5.100  -0.473  0.00  0.00    +0.000 C 
ATOM     15  C   UNL     1       6.462   5.252  -1.983  0.00  0.00    +0.000 C 
ATOM     16  C   UNL     1       7.216   4.181  -1.265  0.00  0.00    +0.000 C 
BRANCH  14  17
ATOM     17  C   UNL     1       6.913   6.178   0.418  0.00  0.00    +0.000 A 
ATOM     18  C   UNL     1       6.685   7.540   0.178  0.00  0.00    +0.000 A 
ATOM     19  C   UNL     1       7.054   8.504   1.113  0.00  0.00    +0.000 A 
ATOM     20  CA  UNL     1       7.660   8.095   2.294  0.00  0.00    +0.000 A 
ATOM     21  N   UNL     1       7.979   6.798   2.534  0.00  0.00    +0.000 NA
ATOM     22  C   UNL     1       7.597   5.885   1.599  0.00  0.00    +0.000 A 
BRANCH  20  23
ATOM     23  C   UNL     1       7.898   9.086   3.408  0.00  0.00    +0.000 C 
BRANCH  23  24
ATOM     24  O   UNL     1       9.259   9.090   3.820  0.00  0.00    +0.000 OA
ATOM     25  H   UNL     1       9.542   8.156   3.765  0.00  0.00    +0.000 HD
ENDBRANCH  23  24
ENDBRANCH  20  23
ENDBRANCH  14  17
ENDBRANCH   5  14
TORSDOF 5
