REMARK  Name = 
REMARK  8 active torsions:
REMARK  status: ('A' for Active; 'I' for Inactive)
REMARK    1  A    between atoms: C_1  and  C_2
REMARK    2  A    between atoms: C_2  and  N_3
REMARK    3  A    between atoms: C_2  and  C_17
REMARK    4  A    between atoms: C_4  and  C_6
REMARK    5  A    between atoms: N_12  and  C_13
REMARK    6  A    between atoms: C_20  and  C_21
REMARK    7  A    between atoms: C_21  and  N_22
REMARK    8  A    between atoms: C_23  and  C_25
REMARK                            x       y       z     vdW  Elec       q    Type
REMARK                         _______ _______ _______ _____ _____    ______ ____
ROOT
ATOM      1  C   UNL     1       2.987  -1.437  -0.369  0.00  0.00    +0.000 A 
ATOM      2  C   UNL     1       2.585  -2.520   0.432  0.00  0.00    +0.000 A 
ATOM      3  C   UNL     1       3.012  -3.822   0.145  0.00  0.00    +0.000 A 
ATOM      4  C   UNL     1       3.848  -4.075  -0.952  0.00  0.00    +0.000 A 
ATOM      5  C   UNL     1       4.282  -2.993  -1.726  0.00  0.00    +0.000 A 
ATOM      6  C   UNL     1       3.852  -1.700  -1.437  0.00  0.00    +0.000 A 
ATOM      7  F   UNL     1       4.274  -0.699  -2.222  0.00  0.00    +0.000 F 
ENDROOT
BRANCH   1   9
ATOM      8  C   UNL     1       0.993   0.087  -0.137  0.00  0.00    +0.000 C 
ATOM      9  C   UNL     1       2.523  -0.017  -0.105  0.00  0.00    +0.000 C 
BRANCH   9  10
ATOM     10  N   UNL     1       3.037   0.434   1.174  0.00  0.00    +0.000 N 
ATOM     11  C   UNL     1       3.284   1.750   1.467  0.00  0.00    +0.000 C 
ATOM     12  O   UNL     1       3.233   2.643   0.627  0.00  0.00    +0.000 OA
ATOM     13  H   UNL     1       2.927  -0.212   1.945  0.00  0.00    +0.000 HD
BRANCH  11  14
ATOM     14  C   UNL     1       3.662   2.024   2.859  0.00  0.00    +0.000 A 
ATOM     15  C   UNL     1       4.497   3.090   3.161  0.00  0.00    +0.000 A 
ATOM     16  S   UNL     1       4.823   3.243   4.829  0.00  0.00    +0.000 S 
ATOM     17  C   UNL     1       3.823   1.918   5.205  0.00  0.00    +0.000 A 
ATOM     18  N   UNL     1       3.630   1.528   6.491  0.00  0.00    +0.000 NA
ATOM     19  C   UNL     1       2.820   0.530   6.634  0.00  0.00    +0.000 A 
ATOM     20  N   UNL     1       2.184  -0.137   5.608  0.00  0.00    +0.000 N 
ATOM     21  C   UNL     1       1.307  -1.257   5.882  0.00  0.00    +0.000 C 
ATOM     22  C   UNL     1       2.395   0.205   4.277  0.00  0.00    +0.000 A 
ATOM     23  O   UNL     1       1.905  -0.428   3.345  0.00  0.00    +0.000 OA
ATOM     24  C   UNL     1       3.273   1.347   4.075  0.00  0.00    +0.000 A 
ENDBRANCH  11  14
ENDBRANCH   9  10
ENDBRANCH   1   9
BRANCH   4  25
ATOM     25  C   UNL     1       4.257  -5.479  -1.307  0.00  0.00    +0.000 C 
BRANCH  25  26
ATOM     26  N   UNL     1       5.495  -5.870  -0.694  0.00  0.00    +0.000 N 
ATOM     27  C   UNL     1       6.014  -7.130  -0.892  0.00  0.00    +0.000 C 
ATOM     28  O   UNL     1       5.462  -7.992  -1.569  0.00  0.00    +0.000 OA
ATOM     29  H   UNL     1       6.061  -5.217  -0.161  0.00  0.00    +0.000 HD
BRANCH  27  30
ATOM     30  C   UNL     1       7.294  -7.342  -0.215  0.00  0.00    +0.000 A 
ATOM     31  C   UNL     1       8.070  -8.485  -0.252  0.00  0.00    +0.000 A 
ATOM     32  N   UNL     1       9.155  -8.218   0.533  0.00  0.00    +0.000 N 
ATOM     33  C   UNL     1       9.014  -6.946   1.013  0.00  0.00    +0.000 A 
ATOM     34  N   UNL     1       7.908  -6.384   0.581  0.00  0.00    +0.000 NA
ATOM     35  H   UNL     1       9.925  -8.844   0.727  0.00  0.00    +0.000 HD
ENDBRANCH  27  30
ENDBRANCH  25  26
ENDBRANCH   4  25
TORSDOF 6
