REMARK  Name = 
REMARK  6 active torsions:
REMARK  status: ('A' for Active; 'I' for Inactive)
REMARK    1  A    between atoms: C_2  and  C_20
REMARK    2  A    between atoms: N_3  and  C_4
REMARK    3  A    between atoms: C_4  and  C_5
REMARK    4  A    between atoms: C_8  and  C_9
REMARK    5  A    between atoms: C_9  and  N_10
REMARK    6  A    between atoms: C_11  and  C_13
REMARK                            x       y       z     vdW  Elec       q    Type
REMARK                         _______ _______ _______ _____ _____    ______ ____
ROOT
ATOM      1  C   UNL     1       8.598  12.639   0.011  0.00  0.00    +0.000 A 
ATOM      2  C   UNL     1       8.704  12.430   1.392  0.00  0.00    +0.000 A 
ATOM      3  C   UNL     1       7.868  11.515   2.045  0.00  0.00    +0.000 A 
ATOM      4  C   UNL     1       6.923  10.771   1.326  0.00  0.00    +0.000 A 
ATOM      5  C   UNL     1       6.841  10.956  -0.061  0.00  0.00    +0.000 A 
ATOM      6  C   UNL     1       7.676  11.872  -0.713  0.00  0.00    +0.000 A 
ENDROOT
BRANCH   1   7
ATOM      7  C   UNL     1       9.442  13.684  -0.675  0.00  0.00    +0.000 C 
BRANCH   7  10
ATOM      8  O   UNL     1      11.256  15.133  -2.153  0.00  0.00    +0.000 OA
ATOM      9  C   UNL     1      11.578  13.998  -1.807  0.00  0.00    +0.000 C 
ATOM     10  N   UNL     1      10.712  13.174  -1.127  0.00  0.00    +0.000 N 
ATOM     11  H   UNL     1      11.071  12.343  -0.668  0.00  0.00    +0.000 HD
BRANCH   9  12
ATOM     12  C   UNL     1      12.901  13.453  -2.137  0.00  0.00    +0.000 A 
ATOM     13  C   UNL     1      13.607  13.961  -3.219  0.00  0.00    +0.000 A 
ATOM     14  S   UNL     1      15.124  13.218  -3.455  0.00  0.00    +0.000 S 
ATOM     15  C   UNL     1      14.910  12.226  -2.090  0.00  0.00    +0.000 A 
ATOM     16  N   UNL     1      15.883  11.362  -1.693  0.00  0.00    +0.000 NA
ATOM     17  C   UNL     1      15.605  10.703  -0.618  0.00  0.00    +0.000 A 
ATOM     18  N   UNL     1      14.436  10.822   0.090  0.00  0.00    +0.000 N 
ATOM     19  C   UNL     1      13.409  11.648  -0.296  0.00  0.00    +0.000 A 
ATOM     20  O   UNL     1      12.347  11.679   0.318  0.00  0.00    +0.000 OA
ATOM     21  C   UNL     1      13.684  12.434  -1.482  0.00  0.00    +0.000 A 
ATOM     22  H   UNL     1      14.274  10.263   0.914  0.00  0.00    +0.000 HD
ENDBRANCH   9  12
ENDBRANCH   7  10
ENDBRANCH   1   7
BRANCH   4  23
ATOM     23  C   UNL     1       5.995   9.812   2.030  0.00  0.00    +0.000 C 
BRANCH  23  24
ATOM     24  N   UNL     1       4.771  10.459   2.448  0.00  0.00    +0.000 N 
ATOM     25  C   UNL     1       3.754   9.741   3.050  0.00  0.00    +0.000 C 
ATOM     26  O   UNL     1       3.833   8.538   3.286  0.00  0.00    +0.000 OA
ATOM     27  H   UNL     1       4.591  11.407   2.146  0.00  0.00    +0.000 HD
BRANCH  25  28
ATOM     28  C   UNL     1       2.518  10.609   3.396  0.00  0.00    +0.000 C 
ATOM     29  C   UNL     1       1.382   9.858   4.064  0.00  0.00    +0.000 C 
ATOM     30  C   UNL     1       1.811   9.786   5.518  0.00  0.00    +0.000 C 
ATOM     31  C   UNL     1       2.659  11.032   5.726  0.00  0.00    +0.000 C 
ATOM     32  N   UNL     1       2.885  11.634   4.403  0.00  0.00    +0.000 NA
ATOM     33  H   UNL     1       3.859  11.901   4.304  0.00  0.00    +0.000 HD
ENDBRANCH  25  28
ENDBRANCH  23  24
ENDBRANCH   4  23
TORSDOF 6
