REMARK  Name = 
REMARK  8 active torsions:
REMARK  status: ('A' for Active; 'I' for Inactive)
REMARK    1  A    between atoms: C_1  and  N_2
REMARK    2  A    between atoms: C_8  and  C_9
REMARK    3  A    between atoms: N_11  and  C_12
REMARK    4  A    between atoms: C_12  and  C_13
REMARK    5  A    between atoms: C_12  and  C_14
REMARK    6  A    between atoms: C_12  and  C_15
REMARK    7  A    between atoms: C_18  and  O_19
REMARK    8  A    between atoms: O_19  and  C_20
REMARK                            x       y       z     vdW  Elec       q    Type
REMARK                         _______ _______ _______ _____ _____    ______ ____
ROOT
ATOM      1  C   UNL     1       6.084  -5.932  -0.030  0.00  0.00    +0.000 C 
ATOM      2  C   UNL     1       5.314  -6.349   1.245  0.00  0.00    +0.000 C 
ATOM      3  C   UNL     1       5.232  -6.339  -1.249  0.00  0.00    +0.000 C 
ENDROOT
BRANCH   1   4
ATOM      4  C   UNL     1       7.460  -6.610   0.030  0.00  0.00    +0.000 A 
ATOM      5  C   UNL     1       8.542  -5.963   0.658  0.00  0.00    +0.000 A 
ATOM      6  C   UNL     1       9.816  -6.530   0.675  0.00  0.00    +0.000 A 
ATOM      7  C   UNL     1      10.015  -7.808   0.157  0.00  0.00    +0.000 A 
ATOM      8  C   UNL     1       8.957  -8.472  -0.459  0.00  0.00    +0.000 A 
ATOM      9  C   UNL     1       7.691  -7.882  -0.521  0.00  0.00    +0.000 A 
BRANCH   7  10
ATOM     10  O   UNL     1      11.226  -8.463   0.155  0.00  0.00    +0.000 OA
BRANCH  10  11
ATOM     11  C   UNL     1      12.093  -8.268   1.190  0.00  0.00    +0.000 A 
ATOM     12  C   UNL     1      11.764  -8.029   2.508  0.00  0.00    +0.000 A 
ATOM     13  N   UNL     1      12.671  -7.817   3.486  0.00  0.00    +0.000 NA
ATOM     14  C   UNL     1      13.957  -7.897   3.108  0.00  0.00    +0.000 A 
ATOM     15  N   UNL     1      14.401  -8.181   1.874  0.00  0.00    +0.000 NA
ATOM     16  C   UNL     1      13.444  -8.367   0.939  0.00  0.00    +0.000 A 
ENDBRANCH  10  11
ENDBRANCH   7  10
ENDBRANCH   1   4
BRANCH   1  19
ATOM     17  C   UNL     1       6.842  -3.721  -0.983  0.00  0.00    +0.000 C 
ATOM     18  O   UNL     1       7.443  -4.209  -1.933  0.00  0.00    +0.000 OA
ATOM     19  N   UNL     1       6.213  -4.468  -0.016  0.00  0.00    +0.000 N 
ATOM     20  H   UNL     1       5.581  -3.987   0.611  0.00  0.00    +0.000 HD
BRANCH  17  28
ATOM     21  C   UNL     1       2.650  -1.012   1.782  0.00  0.00    +0.000 C 
ATOM     22  N   UNL     1       3.892  -0.725   1.096  0.00  0.00    +0.000 N 
ATOM     23  C   UNL     1       4.355   0.569   0.984  0.00  0.00    +0.000 A 
ATOM     24  N   UNL     1       5.457   0.925   0.406  0.00  0.00    +0.000 NA
ATOM     25  C   UNL     1       6.169  -0.100  -0.126  0.00  0.00    +0.000 A 
ATOM     26  S   UNL     1       7.627   0.185  -0.956  0.00  0.00    +0.000 S 
ATOM     27  C   UNL     1       7.822  -1.474  -1.299  0.00  0.00    +0.000 A 
ATOM     28  C   UNL     1       6.809  -2.268  -0.774  0.00  0.00    +0.000 A 
ATOM     29  C   UNL     1       5.846  -1.443  -0.088  0.00  0.00    +0.000 A 
ATOM     30  C   UNL     1       4.615  -1.801   0.595  0.00  0.00    +0.000 A 
ATOM     31  O   UNL     1       4.257  -2.963   0.748  0.00  0.00    +0.000 OA
ENDBRANCH  17  28
ENDBRANCH   1  19
TORSDOF 5
