REMARK  Name = 
REMARK  5 active torsions:
REMARK  status: ('A' for Active; 'I' for Inactive)
REMARK    1  A    between atoms: C_2  and  C_4
REMARK    2  A    between atoms: C_7  and  C_8
REMARK    3  A    between atoms: C_8  and  S_9
REMARK    4  A    between atoms: S_9  and  C_10
REMARK    5  A    between atoms: C_14  and  C_15
REMARK                            x       y       z     vdW  Elec       q    Type
REMARK                         _______ _______ _______ _____ _____    ______ ____
ROOT
ATOM      1  S   UNL     1       4.254   4.750  -4.319  0.00  0.00    +0.000 S 
ENDROOT
BRANCH   1   2
ATOM      2  C   UNL     1       4.912   5.500  -5.796  0.00  0.00    +0.000 A 
ATOM      3  C   UNL     1       5.897   4.996  -6.633  0.00  0.00    +0.000 A 
ATOM      4  N   UNL     1       6.345   5.625  -7.748  0.00  0.00    +0.000 NA
ATOM      5  C   UNL     1       5.788   6.829  -8.043  0.00  0.00    +0.000 A 
ATOM      6  C   UNL     1       4.811   7.459  -7.276  0.00  0.00    +0.000 A 
ATOM      7  C   UNL     1       4.376   6.749  -6.145  0.00  0.00    +0.000 A 
BRANCH   6   8
ATOM      8  C   UNL     1       4.270   8.779  -7.627  0.00  0.00    +0.000 A 
ATOM      9  C   UNL     1       3.807   9.691  -6.675  0.00  0.00    +0.000 A 
ATOM     10  N   UNL     1       3.273  10.899  -6.984  0.00  0.00    +0.000 NA
ATOM     11  C   UNL     1       3.218  11.179  -8.302  0.00  0.00    +0.000 A 
ATOM     12  C   UNL     1       3.686  10.298  -9.261  0.00  0.00    +0.000 A 
ATOM     13  N   UNL     1       4.223   9.092  -8.949  0.00  0.00    +0.000 NA
ENDBRANCH   6   8
ENDBRANCH   1   2
BRANCH   1  14
ATOM     14  C   UNL     1       5.086   3.133  -4.220  0.00  0.00    +0.000 C 
BRANCH  14  18
ATOM     15  C   UNL     1       3.642   0.859  -0.831  0.00  0.00    +0.000 A 
ATOM     16  C   UNL     1       3.001   0.760  -2.071  0.00  0.00    +0.000 A 
ATOM     17  C   UNL     1       3.467   1.499  -3.162  0.00  0.00    +0.000 A 
ATOM     18  C   UNL     1       4.580   2.344  -3.032  0.00  0.00    +0.000 A 
ATOM     19  C   UNL     1       5.187   2.474  -1.774  0.00  0.00    +0.000 A 
ATOM     20  C   UNL     1       4.721   1.737  -0.680  0.00  0.00    +0.000 A 
BRANCH  15  22
ATOM     21  N   UNL     1       2.587  -1.134   0.089  0.00  0.00    +0.000 N 
ATOM     22  C   UNL     1       3.200   0.063   0.345  0.00  0.00    +0.000 C 
ATOM     23  O   UNL     1       3.409   0.432   1.493  0.00  0.00    +0.000 OA
ATOM     24  H   UNL     1       2.396  -1.721   0.891  0.00  0.00    +0.000 HD
ATOM     25  H   UNL     1       2.635  -1.580  -0.815  0.00  0.00    +0.000 HD
ENDBRANCH  15  22
ENDBRANCH  14  18
ENDBRANCH   1  14
TORSDOF 5
