REMARK  Name = 
REMARK  6 active torsions:
REMARK  status: ('A' for Active; 'I' for Inactive)
REMARK    1  A    between atoms: C_1  and  C_2
REMARK    2  A    between atoms: C_2  and  C_3
REMARK    3  A    between atoms: C_2  and  C_4
REMARK    4  A    between atoms: C_2  and  C_15
REMARK    5  A    between atoms: C_4  and  N_5
REMARK    6  A    between atoms: C_9  and  C_10
REMARK                            x       y       z     vdW  Elec       q    Type
REMARK                         _______ _______ _______ _____ _____    ______ ____
ROOT
ATOM      1  N   UNL     1       2.605  -1.638   1.989  0.00  0.00    +0.000 N 
ATOM      2  C   UNL     1       3.104  -1.983   3.257  0.00  0.00    +0.000 A 
ATOM      3  C   UNL     1       2.722  -3.206   3.801  0.00  0.00    +0.000 A 
ATOM      4  C   UNL     1       3.200  -3.580   5.058  0.00  0.00    +0.000 A 
ATOM      5  C   UNL     1       4.050  -2.725   5.757  0.00  0.00    +0.000 A 
ATOM      6  C   UNL     1       4.362  -1.520   5.150  0.00  0.00    +0.000 A 
ATOM      7  N   UNL     1       3.905  -1.134   3.931  0.00  0.00    +0.000 NA
ATOM      8  H   UNL     1       2.825  -2.397   1.347  0.00  0.00    +0.000 HD
ENDROOT
BRANCH   5   9
ATOM      9  C   UNL     1       4.568  -3.140   7.082  0.00  0.00    +0.000 C 
ATOM     10  N   UNL     1       5.413  -2.306   7.759  0.00  0.00    +0.000 N 
ATOM     11  O   UNL     1       4.250  -4.217   7.575  0.00  0.00    +0.000 OA
ATOM     12  H   UNL     1       5.749  -1.410   7.444  0.00  0.00    +0.000 HD
ATOM     13  H   UNL     1       5.748  -2.639   8.655  0.00  0.00    +0.000 HD
ENDBRANCH   5   9
BRANCH   1  14
ATOM     14  C   UNL     1       3.068  -0.337   1.493  0.00  0.00    +0.000 C 
BRANCH  14  16
ATOM     15  C   UNL     1       0.991   0.063   0.114  0.00  0.00    +0.000 C 
ATOM     16  C   UNL     1       2.534  -0.050   0.053  0.00  0.00    +0.000 C 
ATOM     17  C   UNL     1       3.064   1.336  -0.385  0.00  0.00    +0.000 C 
BRANCH  16  18
ATOM     18  C   UNL     1       3.027  -1.123  -0.933  0.00  0.00    +0.000 A 
ATOM     19  C   UNL     1       2.160  -1.928  -1.686  0.00  0.00    +0.000 A 
ATOM     20  C   UNL     1       2.664  -2.932  -2.511  0.00  0.00    +0.000 A 
ATOM     21  C   UNL     1       4.033  -3.103  -2.564  0.00  0.00    +0.000 A 
ATOM     22 CL   UNL     1       4.730  -4.342  -3.521  0.00  0.00    +0.000 Cl
ATOM     23  N   UNL     1       4.914  -2.352  -1.878  0.00  0.00    +0.000 NA
ATOM     24  C   UNL     1       4.394  -1.384  -1.089  0.00  0.00    +0.000 A 
ENDBRANCH  16  18
ENDBRANCH  14  16
ENDBRANCH   1  14
TORSDOF 4
