REMARK  Name = 
REMARK  10 active torsions:
REMARK  status: ('A' for Active; 'I' for Inactive)
REMARK    1  A    between atoms: C_1  and  C_2
REMARK    2  A    between atoms: C_2  and  C_3
REMARK    3  A    between atoms: C_2  and  C_4
REMARK    4  A    between atoms: C_2  and  C_15
REMARK    5  A    between atoms: C_4  and  N_5
REMARK    6  A    between atoms: C_10  and  C_11
REMARK    7  A    between atoms: C_19  and  O_20
REMARK    8  A    between atoms: O_20  and  C_21
REMARK    9  A    between atoms: C_23  and  C_24
REMARK   10  A    between atoms: C_23  and  O_25
REMARK                            x       y       z     vdW  Elec       q    Type
REMARK                         _______ _______ _______ _____ _____    ______ ____
ROOT
ATOM      1  C   UNL     1       4.056  -4.319   9.909  0.00  0.00    +0.000 C 
ATOM      2  C   UNL     1       4.510  -2.848  10.077  0.00  0.00    +0.000 C 
ATOM      3  C   UNL     1       3.792  -2.264  11.319  0.00  0.00    +0.000 C 
ENDROOT
BRANCH   2   4
ATOM      4  C   UNL     1       4.114  -2.058   8.814  0.00  0.00    +0.000 A 
ATOM      5  C   UNL     1       5.060  -1.473   7.959  0.00  0.00    +0.000 A 
ATOM      6  C   UNL     1       4.641  -0.743   6.855  0.00  0.00    +0.000 A 
ATOM      7  N   UNL     1       3.353  -0.577   6.511  0.00  0.00    +0.000 NA
ATOM      8  C   UNL     1       2.447  -1.162   7.319  0.00  0.00    +0.000 A 
ATOM      9  C   UNL     1       2.766  -1.889   8.458  0.00  0.00    +0.000 A 
BRANCH   8  10
ATOM     10  O   UNL     1       1.112  -1.074   6.976  0.00  0.00    +0.000 OA
BRANCH  10  11
ATOM     11  C   UNL     1       0.858  -0.857   5.566  0.00  0.00    +0.000 C 
ATOM     12  C   UNL     1       1.291  -1.996   4.605  0.00  0.00    +0.000 C 
ATOM     13  C   UNL     1      -0.151  -2.553   4.698  0.00  0.00    +0.000 C 
ATOM     14  C   UNL     1      -0.691  -3.073   3.376  0.00  0.00    +0.000 C 
ATOM     15  C   UNL     1      -0.596  -1.122   5.102  0.00  0.00    +0.000 C 
BRANCH  13  16
ATOM     16  O   UNL     1      -0.373  -3.555   5.717  0.00  0.00    +0.000 OA
ATOM     17  H   UNL     1       0.173  -4.316   5.454  0.00  0.00    +0.000 HD
ENDBRANCH  13  16
ENDBRANCH  10  11
ENDBRANCH   8  10
ENDBRANCH   2   4
BRANCH   2  18
ATOM     18  C   UNL     1       6.051  -2.885  10.367  0.00  0.00    +0.000 C 
BRANCH  18  19
ATOM     19  N   UNL     1       6.598  -1.554  10.585  0.00  0.00    +0.000 N 
ATOM     20  C   UNL     1       7.963  -1.444  10.740  0.00  0.00    +0.000 A 
ATOM     21  N   UNL     1       8.369  -0.418  11.498  0.00  0.00    +0.000 NA
ATOM     22  C   UNL     1       9.696  -0.238  11.644  0.00  0.00    +0.000 A 
ATOM     23  C   UNL     1      10.630  -1.047  11.065  0.00  0.00    +0.000 A 
ATOM     24  C   UNL     1      10.111  -2.073  10.310  0.00  0.00    +0.000 A 
ATOM     25  N   UNL     1       8.787  -2.299  10.131  0.00  0.00    +0.000 NA
ATOM     26  H   UNL     1       6.169  -0.988  11.308  0.00  0.00    +0.000 HD
BRANCH  24  27
ATOM     27  C   UNL     1      11.040  -3.016   9.616  0.00  0.00    +0.000 C 
ATOM     28  N   UNL     1      10.439  -4.003   8.883  0.00  0.00    +0.000 N 
ATOM     29  O   UNL     1      12.257  -2.915   9.693  0.00  0.00    +0.000 OA
ATOM     30  H   UNL     1       9.429  -4.039   8.816  0.00  0.00    +0.000 HD
ATOM     31  H   UNL     1      11.011  -4.655   8.364  0.00  0.00    +0.000 HD
ENDBRANCH  24  27
ENDBRANCH  18  19
ENDBRANCH   2  18
TORSDOF 7
