REMARK  Name = 
REMARK  4 active torsions:
REMARK  status: ('A' for Active; 'I' for Inactive)
REMARK    1  A    between atoms: N_1  and  C_2
REMARK    2  A    between atoms: C_2  and  C_3
REMARK    3  A    between atoms: N_6  and  C_7
REMARK    4  A    between atoms: C_7  and  C_8
REMARK                            x       y       z     vdW  Elec       q    Type
REMARK                         _______ _______ _______ _____ _____    ______ ____
ROOT
ATOM      1  C   UNL     1       4.160  -2.033  -2.471  0.00  0.00    +0.000 C 
ATOM      2  C   UNL     1       3.708  -0.661  -2.051  0.00  0.00    +0.000 C 
ATOM      3  N   UNL     1       2.668  -0.376  -1.327  0.00  0.00    +0.000 NA
ATOM      4  N   UNL     1       1.845  -1.470  -1.030  0.00  0.00    +0.000 N 
ATOM      5  C   UNL     1       1.962  -2.561  -1.899  0.00  0.00    +0.000 C 
ATOM      6  C   UNL     1       1.006  -3.451  -2.252  0.00  0.00    +0.000 C 
ATOM      7  C   UNL     1       1.199  -4.717  -1.534  0.00  0.00    +0.000 C 
ATOM      8  C   UNL     1       2.486  -5.012  -1.267  0.00  0.00    +0.000 C 
ATOM      9 CL   UNL     1       2.809  -6.323  -0.177  0.00  0.00    +0.000 Cl
ATOM     10  N   UNL     1       3.625  -4.344  -1.639  0.00  0.00    +0.000 NA
ATOM     11  C   UNL     1       3.370  -3.047  -2.005  0.00  0.00    +0.000 C 
ENDROOT
BRANCH   1  12
ATOM     12  C   UNL     1       4.914  -2.120  -3.746  0.00  0.00    +0.000 C 
BRANCH  12  13
ATOM     13  N   UNL     1       6.313  -1.684  -3.705  0.00  0.00    +0.000 NA
ATOM     14  H   UNL     1       6.668  -1.766  -4.657  0.00  0.00    +0.000 HD
ATOM     15  H   UNL     1       6.804  -2.383  -3.157  0.00  0.00    +0.000 HD
ENDBRANCH  12  13
ENDBRANCH   1  12
BRANCH   4  16
ATOM     16  C   UNL     1       1.830  -1.867   0.413  0.00  0.00    +0.000 C 
BRANCH  16  17
ATOM     17  C   UNL     1       1.914  -0.726   1.448  0.00  0.00    +0.000 C 
ATOM     18  C   UNL     1       0.809   0.314   1.262  0.00  0.00    +0.000 C 
ATOM     19  C   UNL     1       1.216   1.767   1.421  0.00  0.00    +0.000 C 
ATOM     20  O   UNL     1       2.569   2.037   1.092  0.00  0.00    +0.000 OA
ATOM     21  C   UNL     1       3.473   1.277   1.875  0.00  0.00    +0.000 C 
ATOM     22  C   UNL     1       3.349  -0.214   1.612  0.00  0.00    +0.000 C 
ENDBRANCH  16  17
ENDBRANCH   4  16
TORSDOF 4
