REMARK  Name = 
REMARK  8 active torsions:
REMARK  status: ('A' for Active; 'I' for Inactive)
REMARK    1  A    between atoms: C_1  and  C_2
REMARK    2  A    between atoms: C_5  and  C_6
REMARK    3  A    between atoms: C_10  and  C_11
REMARK    4  A    between atoms: C_12  and  C_13
REMARK    5  A    between atoms: C_13  and  C_14
REMARK    6  A    between atoms: C_13  and  C_15
REMARK    7  A    between atoms: C_13  and  C_16
REMARK    8  A    between atoms: C_19  and  C_20
REMARK                            x       y       z     vdW  Elec       q    Type
REMARK                         _______ _______ _______ _____ _____    ______ ____
ROOT
ATOM      1  C   UNL     1       6.069   1.539   1.618  0.00  0.00    +0.000 C 
ATOM      2  C   UNL     1       7.344   1.929   1.435  0.00  0.00    +0.000 C 
ENDROOT
BRANCH   1   7
ATOM      3  C   UNL     1       3.143   0.203  -0.371  0.00  0.00    +0.000 A 
ATOM      4  C   UNL     1       3.791  -0.766  -1.158  0.00  0.00    +0.000 A 
ATOM      5  C   UNL     1       5.160  -1.011  -1.032  0.00  0.00    +0.000 A 
ATOM      6  C   UNL     1       5.918  -0.280  -0.120  0.00  0.00    +0.000 A 
ATOM      7  C   UNL     1       5.316   0.707   0.668  0.00  0.00    +0.000 A 
ATOM      8  C   UNL     1       3.933   0.915   0.553  0.00  0.00    +0.000 A 
BRANCH   3  13
ATOM      9  C   UNL     1      -2.318   1.521  -1.220  0.00  0.00    +0.000 C 
ATOM     10  C   UNL     1      -0.902   1.137  -0.967  0.00  0.00    +0.000 A 
ATOM     11  C   UNL     1      -0.261   0.137  -1.665  0.00  0.00    +0.000 A 
ATOM     12  N   UNL     1       1.027  -0.203  -1.472  0.00  0.00    +0.000 NA
ATOM     13  C   UNL     1       1.704   0.493  -0.537  0.00  0.00    +0.000 A 
ATOM     14  N   UNL     1       1.166   1.476   0.212  0.00  0.00    +0.000 NA
ATOM     15  C   UNL     1      -0.126   1.774  -0.023  0.00  0.00    +0.000 A 
ENDBRANCH   3  13
ENDBRANCH   1   7
BRANCH   2  16
ATOM     16  C   UNL     1       8.157   2.871   2.324  0.00  0.00    +0.000 C 
ATOM     17  C   UNL     1       8.559   4.070   1.428  0.00  0.00    +0.000 C 
ATOM     18  C   UNL     1       7.355   3.445   3.513  0.00  0.00    +0.000 C 
BRANCH  16  19
ATOM     19  C   UNL     1       9.399   2.146   2.864  0.00  0.00    +0.000 A 
ATOM     20  C   UNL     1       9.279   1.003   3.663  0.00  0.00    +0.000 A 
ATOM     21  N   UNL     1      10.339   0.320   4.170  0.00  0.00    +0.000 NA
ATOM     22  C   UNL     1      11.556   0.832   3.836  0.00  0.00    +0.000 A 
ATOM     23  C   UNL     1      11.697   1.961   3.048  0.00  0.00    +0.000 A 
ATOM     24  N   UNL     1      10.630   2.637   2.551  0.00  0.00    +0.000 NA
BRANCH  22  25
ATOM     25  C   UNL     1      12.771   0.134   4.342  0.00  0.00    +0.000 C 
ATOM     26  N   UNL     1      12.547  -0.976   5.110  0.00  0.00    +0.000 N 
ATOM     27  O   UNL     1      13.902   0.523   4.089  0.00  0.00    +0.000 OA
ATOM     28  H   UNL     1      11.600  -1.282   5.300  0.00  0.00    +0.000 HD
ATOM     29  H   UNL     1      13.334  -1.496   5.472  0.00  0.00    +0.000 HD
ENDBRANCH  22  25
ENDBRANCH  16  19
ENDBRANCH   2  16
TORSDOF 5
