REMARK  Name = 
REMARK  3 active torsions:
REMARK  status: ('A' for Active; 'I' for Inactive)
REMARK    1  A    between atoms: C_2  and  C_4
REMARK    2  A    between atoms: N_8  and  C_9
REMARK    3  A    between atoms: C_9  and  C_10
REMARK                            x       y       z     vdW  Elec       q    Type
REMARK                         _______ _______ _______ _____ _____    ______ ____
ROOT
ATOM      1  C   UNL     1       2.866   1.062   1.131  0.00  0.00    +0.000 A 
ATOM      2  C   UNL     1       3.794   1.895   0.515  0.00  0.00    +0.000 A 
ATOM      3  C   UNL     1       4.583   2.733   1.307  0.00  0.00    +0.000 A 
ATOM      4  C   UNL     1       4.436   2.721   2.693  0.00  0.00    +0.000 A 
ATOM      5  N   UNL     1       5.229   3.593   3.452  0.00  0.00    +0.000 N 
ATOM      6  N   UNL     1       3.517   1.938   3.293  0.00  0.00    +0.000 NA
ATOM      7  C   UNL     1       2.751   1.133   2.510  0.00  0.00    +0.000 A 
ATOM      8  H   UNL     1       6.205   3.507   3.183  0.00  0.00    +0.000 HD
ENDROOT
BRANCH   1  10
ATOM      9  N   UNL     1       2.489  -0.338  -0.813  0.00  0.00    +0.000 N 
ATOM     10  C   UNL     1       2.002   0.136   0.374  0.00  0.00    +0.000 C 
ATOM     11  O   UNL     1       0.912  -0.221   0.803  0.00  0.00    +0.000 OA
ATOM     12  H   UNL     1       1.932  -1.040  -1.284  0.00  0.00    +0.000 HD
ATOM     13  H   UNL     1       3.465  -0.270  -1.066  0.00  0.00    +0.000 HD
ENDBRANCH   1  10
BRANCH   5  14
ATOM     14  C   UNL     1       5.025   3.508   4.901  0.00  0.00    +0.000 C 
BRANCH  14  15
ATOM     15  C   UNL     1       6.004   4.427   5.662  0.00  0.00    +0.000 C 
ATOM     16  C   UNL     1       5.741   4.325   7.177  0.00  0.00    +0.000 C 
ATOM     17  C   UNL     1       6.612   5.283   7.987  0.00  0.00    +0.000 C 
ATOM     18  C   UNL     1       6.453   6.721   7.506  0.00  0.00    +0.000 C 
ATOM     19  C   UNL     1       6.748   6.839   6.016  0.00  0.00    +0.000 C 
ATOM     20  C   UNL     1       5.884   5.887   5.192  0.00  0.00    +0.000 C 
ENDBRANCH  14  15
ENDBRANCH   5  14
TORSDOF 3
