REMARK  Name = 
REMARK  4 active torsions:
REMARK  status: ('A' for Active; 'I' for Inactive)
REMARK    1  A    between atoms: C_2  and  C_4
REMARK    2  A    between atoms: C_7  and  C_8
REMARK    3  A    between atoms: C_9  and  C_10
REMARK    4  A    between atoms: C_12  and  N_13
REMARK                            x       y       z     vdW  Elec       q    Type
REMARK                         _______ _______ _______ _____ _____    ______ ____
ROOT
ATOM      1  C   UNL     1       6.282   1.111  -4.610  0.00  0.00    +0.000 C 
ATOM      2  C   UNL     1       6.673   2.361  -4.312  0.00  0.00    +0.000 C 
ENDROOT
BRANCH   1   6
ATOM      3  C   UNL     1       3.803  -1.357  -2.328  0.00  0.00    +0.000 A 
ATOM      4  N   UNL     1       3.619  -0.023  -2.190  0.00  0.00    +0.000 NA
ATOM      5  C   UNL     1       4.451   0.754  -2.917  0.00  0.00    +0.000 A 
ATOM      6  C   UNL     1       5.439   0.268  -3.761  0.00  0.00    +0.000 A 
ATOM      7  C   UNL     1       5.515  -1.112  -3.821  0.00  0.00    +0.000 A 
ATOM      8  N   UNL     1       4.723  -1.949  -3.115  0.00  0.00    +0.000 NA
BRANCH   3  10
ATOM      9  N   UNL     1       1.904  -1.605  -0.800  0.00  0.00    +0.000 N 
ATOM     10  C   UNL     1       2.857  -2.248  -1.553  0.00  0.00    +0.000 C 
ATOM     11  O   UNL     1       2.900  -3.474  -1.581  0.00  0.00    +0.000 OA
ATOM     12  H   UNL     1       1.210  -2.162  -0.323  0.00  0.00    +0.000 HD
ATOM     13  H   UNL     1       1.818  -0.595  -0.832  0.00  0.00    +0.000 HD
ENDBRANCH   3  10
ENDBRANCH   1   6
BRANCH   2  14
ATOM     14  C   UNL     1       7.480   3.174  -5.234  0.00  0.00    +0.000 A 
ATOM     15  C   UNL     1       7.805   4.475  -4.911  0.00  0.00    +0.000 A 
ATOM     16  C   UNL     1       8.490   5.217  -5.855  0.00  0.00    +0.000 A 
ATOM     17  N   UNL     1       8.863   4.660  -7.019  0.00  0.00    +0.000 NA
ATOM     18  C   UNL     1       8.521   3.383  -7.233  0.00  0.00    +0.000 A 
ATOM     19  N   UNL     1       7.832   2.604  -6.399  0.00  0.00    +0.000 NA
BRANCH  16  20
ATOM     20  N   UNL     1       8.830   6.528  -5.616  0.00  0.00    +0.000 N 
ATOM     21  C   UNL     1       7.989   7.460  -4.860  0.00  0.00    +0.000 C 
ATOM     22  C   UNL     1       7.600   8.674  -5.723  0.00  0.00    +0.000 C 
ATOM     23  O   UNL     1       8.740   9.283  -6.348  0.00  0.00    +0.000 OA
ATOM     24  C   UNL     1       9.417   8.329  -7.185  0.00  0.00    +0.000 C 
ATOM     25  C   UNL     1       9.928   7.140  -6.368  0.00  0.00    +0.000 C 
ENDBRANCH  16  20
ENDBRANCH   2  14
TORSDOF 4
