REMARK  Name = 
REMARK  4 active torsions:
REMARK  status: ('A' for Active; 'I' for Inactive)
REMARK    1  A    between atoms: C_2  and  C_4
REMARK    2  A    between atoms: C_7  and  N_8
REMARK    3  A    between atoms: N_8  and  C_9
REMARK    4  A    between atoms: C_9  and  C_10
REMARK                            x       y       z     vdW  Elec       q    Type
REMARK                         _______ _______ _______ _____ _____    ______ ____
ROOT
ATOM      1  N   UNL     1       5.199   3.607   2.920  0.00  0.00    +0.000 N 
ATOM      2  H   UNL     1       4.361   3.273   2.451  0.00  0.00    +0.000 HD
ENDROOT
BRANCH   1   6
ATOM      3  C   UNL     1       8.425   1.035   2.290  0.00  0.00    +0.000 A 
ATOM      4  C   UNL     1       8.562   2.019   3.259  0.00  0.00    +0.000 A 
ATOM      5  C   UNL     1       7.490   2.884   3.484  0.00  0.00    +0.000 A 
ATOM      6  C   UNL     1       6.304   2.745   2.761  0.00  0.00    +0.000 A 
ATOM      7  C   UNL     1       6.292   1.740   1.786  0.00  0.00    +0.000 A 
ATOM      8  N   UNL     1       7.306   0.874   1.532  0.00  0.00    +0.000 NA
BRANCH   3  10
ATOM      9  N   UNL     1       9.344  -0.828   1.035  0.00  0.00    +0.000 N 
ATOM     10  C   UNL     1       9.554   0.082   2.035  0.00  0.00    +0.000 C 
ATOM     11  O   UNL     1      10.599   0.107   2.674  0.00  0.00    +0.000 OA
ATOM     12  H   UNL     1      10.067  -1.494   0.807  0.00  0.00    +0.000 HD
ATOM     13  H   UNL     1       8.471  -0.813   0.519  0.00  0.00    +0.000 HD
ENDBRANCH   3  10
ENDBRANCH   1   6
BRANCH   1  14
ATOM     14  C   UNL     1       4.967   4.370   4.172  0.00  0.00    +0.000 C 
ATOM     15  C   UNL     1       4.743   3.586   5.455  0.00  0.00    +0.000 C 
ATOM     16  C   UNL     1       3.586   4.275   4.814  0.00  0.00    +0.000 C 
BRANCH  14  17
ATOM     17  C   UNL     1       5.563   5.780   4.177  0.00  0.00    +0.000 A 
ATOM     18  C   UNL     1       5.304   6.674   3.116  0.00  0.00    +0.000 A 
ATOM     19  C   UNL     1       5.791   7.985   3.113  0.00  0.00    +0.000 A 
ATOM     20  C   UNL     1       6.550   8.442   4.184  0.00  0.00    +0.000 A 
ATOM     21  C   UNL     1       6.826   7.577   5.233  0.00  0.00    +0.000 A 
ATOM     22  F   UNL     1       7.551   8.012   6.272  0.00  0.00    +0.000 F 
ATOM     23  C   UNL     1       6.355   6.267   5.232  0.00  0.00    +0.000 A 
ENDBRANCH  14  17
ENDBRANCH   1  14
TORSDOF 4
