REMARK  Name = 
REMARK  8 active torsions:
REMARK  status: ('A' for Active; 'I' for Inactive)
REMARK    1  A    between atoms: N_1  and  C_2
REMARK    2  A    between atoms: C_4  and  C_5
REMARK    3  A    between atoms: C_5  and  N_6
REMARK    4  A    between atoms: C_7  and  C_9
REMARK    5  A    between atoms: C_21  and  C_22
REMARK    6  A    between atoms: C_22  and  N_23
REMARK    7  A    between atoms: C_27  and  C_28
REMARK    8  A    between atoms: C_28  and  O_29
REMARK                            x       y       z     vdW  Elec       q    Type
REMARK                         _______ _______ _______ _____ _____    ______ ____
ROOT
ATOM      1  C   UNL     1       1.032   0.075  -0.035  0.00  0.00    +0.000 A 
ATOM      2  C   UNL     1       0.298   1.273  -0.011  0.00  0.00    +0.000 A 
ATOM      3  C   UNL     1      -1.103   1.283   0.048  0.00  0.00    +0.000 A 
ATOM      4  C   UNL     1      -1.780   0.063   0.093  0.00  0.00    +0.000 A 
ATOM      5  C   UNL     1      -1.069  -1.137   0.050  0.00  0.00    +0.000 A 
ATOM      6  C   UNL     1       0.337  -1.151  -0.043  0.00  0.00    +0.000 A 
ENDROOT
BRANCH   1   7
ATOM      7  N   UNL     1       2.411   0.159  -0.302  0.00  0.00    +0.000 N 
ATOM      8  H   UNL     1       2.823   1.024   0.039  0.00  0.00    +0.000 HD
ATOM      9  H   UNL     1       2.940  -0.648   0.014  0.00  0.00    +0.000 HD
ENDBRANCH   1   7
BRANCH   3  10
ATOM     10  C   UNL     1      -1.850   2.588   0.058  0.00  0.00    +0.000 C 
BRANCH  10  11
ATOM     11  N   UNL     1      -2.125   3.035   1.399  0.00  0.00    +0.000 N 
ATOM     12  C   UNL     1      -1.366   3.982   2.035  0.00  0.00    +0.000 C 
ATOM     13  O   UNL     1      -0.389   4.505   1.505  0.00  0.00    +0.000 OA
ATOM     14  H   UNL     1      -2.797   2.493   1.931  0.00  0.00    +0.000 HD
BRANCH  12  15
ATOM     15  C   UNL     1      -1.828   4.405   3.365  0.00  0.00    +0.000 A 
ATOM     16  C   UNL     1      -1.430   5.638   3.864  0.00  0.00    +0.000 A 
ATOM     17  S   UNL     1      -2.078   6.000   5.399  0.00  0.00    +0.000 S 
ATOM     18  C   UNL     1      -2.879   4.498   5.472  0.00  0.00    +0.000 A 
ATOM     19  N   UNL     1      -3.612   4.154   6.564  0.00  0.00    +0.000 NA
ATOM     20  C   UNL     1      -4.137   2.976   6.507  0.00  0.00    +0.000 A 
ATOM     21  N   UNL     1      -4.006   2.118   5.441  0.00  0.00    +0.000 N 
ATOM     22  C   UNL     1      -3.333   2.451   4.291  0.00  0.00    +0.000 A 
ATOM     23  O   UNL     1      -3.340   1.708   3.313  0.00  0.00    +0.000 OA
ATOM     24  C   UNL     1      -2.682   3.744   4.331  0.00  0.00    +0.000 A 
ATOM     25  H   UNL     1      -4.469   1.217   5.445  0.00  0.00    +0.000 HD
ENDBRANCH  12  15
ENDBRANCH  10  11
ENDBRANCH   3  10
BRANCH   6  26
ATOM     26  C   UNL     1       1.037  -2.495  -0.105  0.00  0.00    +0.000 C 
BRANCH  26  27
ATOM     27  N   UNL     1       1.355  -2.948   1.238  0.00  0.00    +0.000 N 
ATOM     28  C   UNL     1       1.932  -4.181   1.465  0.00  0.00    +0.000 A 
ATOM     29  C   UNL     1       2.852  -4.773   0.610  0.00  0.00    +0.000 A 
ATOM     30  C   UNL     1       3.442  -5.991   0.959  0.00  0.00    +0.000 A 
ATOM     31  C   UNL     1       3.110  -6.603   2.166  0.00  0.00    +0.000 A 
ATOM     32  C   UNL     1       2.206  -5.927   2.972  0.00  0.00    +0.000 A 
ATOM     33  N   UNL     1       1.609  -4.753   2.642  0.00  0.00    +0.000 NA
ATOM     34  H   UNL     1       0.618  -2.816   1.926  0.00  0.00    +0.000 HD
BRANCH  31  35
ATOM     35  C   UNL     1       3.748  -7.879   2.635  0.00  0.00    +0.000 C 
BRANCH  35  36
ATOM     36  O   UNL     1       4.052  -8.747   1.550  0.00  0.00    +0.000 OA
ATOM     37  H   UNL     1       3.236  -8.849   1.031  0.00  0.00    +0.000 HD
ENDBRANCH  35  36
ENDBRANCH  31  35
ENDBRANCH  26  27
ENDBRANCH   6  26
TORSDOF 8
