REMARK  Name = 
REMARK  11 active torsions:
REMARK  status: ('A' for Active; 'I' for Inactive)
REMARK    1  A    between atoms: C_1  and  O_2
REMARK    2  A    between atoms: O_2  and  C_3
REMARK    3  A    between atoms: C_10  and  C_11
REMARK    4  A    between atoms: N_13  and  C_14
REMARK    5  A    between atoms: C_14  and  C_15
REMARK    6  A    between atoms: C_18  and  C_19
REMARK    7  A    between atoms: C_19  and  N_20
REMARK    8  A    between atoms: N_20  and  C_21
REMARK    9  A    between atoms: C_21  and  C_22
REMARK   10  A    between atoms: C_21  and  C_23
REMARK   11  A    between atoms: C_21  and  C_24
REMARK                            x       y       z     vdW  Elec       q    Type
REMARK                         _______ _______ _______ _____ _____    ______ ____
ROOT
ATOM      1  C   UNL     1       2.271  -2.156   2.698  0.00  0.00    +0.000 A 
ATOM      2  C   UNL     1       1.253  -2.877   3.340  0.00  0.00    +0.000 A 
ATOM      3  C   UNL     1       0.304  -2.221   4.133  0.00  0.00    +0.000 A 
ATOM      4  C   UNL     1       0.337  -0.829   4.282  0.00  0.00    +0.000 A 
ATOM      5  C   UNL     1       1.358  -0.109   3.644  0.00  0.00    +0.000 A 
ATOM      6  C   UNL     1       2.308  -0.764   2.855  0.00  0.00    +0.000 A 
ENDROOT
BRANCH   1   7
ATOM      7  C   UNL     1       3.267  -2.855   1.806  0.00  0.00    +0.000 C 
BRANCH   7  10
ATOM      8  C   UNL     1       3.487  -3.516  -0.558  0.00  0.00    +0.000 C 
ATOM      9  O   UNL     1       4.574  -4.051  -0.347  0.00  0.00    +0.000 OA
ATOM     10  N   UNL     1       2.785  -2.914   0.449  0.00  0.00    +0.000 N 
ATOM     11  H   UNL     1       1.910  -2.451   0.250  0.00  0.00    +0.000 HD
BRANCH   8  19
ATOM     12  C   UNL     1       0.518  -2.304  -1.819  0.00  0.00    +0.000 A 
ATOM     13  N   UNL     1      -0.525  -1.896  -2.568  0.00  0.00    +0.000 NA
ATOM     14  C   UNL     1      -0.491  -2.146  -3.879  0.00  0.00    +0.000 A 
ATOM     15  N   UNL     1       0.471  -2.772  -4.550  0.00  0.00    +0.000 NA
ATOM     16  C   UNL     1       1.496  -3.152  -3.769  0.00  0.00    +0.000 A 
ATOM     17  S   UNL     1       2.814  -3.971  -4.457  0.00  0.00    +0.000 S 
ATOM     18  C   UNL     1       3.600  -4.072  -2.954  0.00  0.00    +0.000 A 
ATOM     19  C   UNL     1       2.891  -3.493  -1.907  0.00  0.00    +0.000 A 
ATOM     20  C   UNL     1       1.621  -2.954  -2.397  0.00  0.00    +0.000 A 
BRANCH  12  22
ATOM     21  C   UNL     1      -0.824  -1.864   0.047  0.00  0.00    +0.000 C 
ATOM     22  O   UNL     1       0.494  -2.025  -0.468  0.00  0.00    +0.000 OA
ENDBRANCH  12  22
ENDBRANCH   8  19
ENDBRANCH   7  10
ENDBRANCH   1   7
BRANCH   4  23
ATOM     23  C   UNL     1      -0.702  -0.111   5.120  0.00  0.00    +0.000 C 
BRANCH  23  24
ATOM     24  N   UNL     1      -0.256   0.021   6.504  0.00  0.00    +0.000 NA
ATOM     25  H   UNL     1       0.645   0.501   6.505  0.00  0.00    +0.000 HD
BRANCH  24  26
ATOM     26  C   UNL     1      -1.164   0.757   7.429  0.00  0.00    +0.000 C 
ATOM     27  C   UNL     1      -1.386   2.202   6.921  0.00  0.00    +0.000 C 
ATOM     28  C   UNL     1      -2.528   0.052   7.559  0.00  0.00    +0.000 C 
BRANCH  26  29
ATOM     29  C   UNL     1      -0.544   0.822   8.853  0.00  0.00    +0.000 A 
ATOM     30  C   UNL     1       0.284  -0.199   9.328  0.00  0.00    +0.000 A 
ATOM     31  C   UNL     1       0.847  -0.090  10.599  0.00  0.00    +0.000 A 
ATOM     32  C   UNL     1       0.558   1.020  11.380  0.00  0.00    +0.000 A 
ATOM     33  C   UNL     1      -0.295   1.974  10.860  0.00  0.00    +0.000 A 
ATOM     34  N   UNL     1      -0.849   1.897   9.629  0.00  0.00    +0.000 NA
ENDBRANCH  26  29
ENDBRANCH  24  26
ENDBRANCH  23  24
ENDBRANCH   4  23
TORSDOF 8
