REMARK  Name = 
REMARK  7 active torsions:
REMARK  status: ('A' for Active; 'I' for Inactive)
REMARK    1  A    between atoms: C_1  and  C_2
REMARK    2  A    between atoms: C_2  and  C_3
REMARK    3  A    between atoms: C_2  and  C_25
REMARK    4  A    between atoms: C_3  and  N_4
REMARK    5  A    between atoms: C_8  and  C_9
REMARK    6  A    between atoms: C_9  and  N_10
REMARK    7  A    between atoms: C_11  and  C_13
REMARK                            x       y       z     vdW  Elec       q    Type
REMARK                         _______ _______ _______ _____ _____    ______ ____
ROOT
ATOM      1  N   UNL     1       2.798  -0.112   2.546  0.00  0.00    +0.000 N 
ATOM      2  C   UNL     1       3.044  -0.983   3.599  0.00  0.00    +0.000 A 
ATOM      3  N   UNL     1       2.052  -1.302   4.436  0.00  0.00    +0.000 NA
ATOM      4  C   UNL     1       2.341  -2.138   5.442  0.00  0.00    +0.000 A 
ATOM      5  C   UNL     1       3.593  -2.678   5.654  0.00  0.00    +0.000 A 
ATOM      6  C   UNL     1       4.539  -2.284   4.742  0.00  0.00    +0.000 A 
ATOM      7  N   UNL     1       4.301  -1.431   3.724  0.00  0.00    +0.000 NA
ATOM      8  H   UNL     1       3.699   0.302   2.324  0.00  0.00    +0.000 HD
ENDROOT
BRANCH   1   9
ATOM      9  C   UNL     1       1.719   0.824   2.836  0.00  0.00    +0.000 C 
BRANCH   9  11
ATOM     10  C   UNL     1       0.872   0.953   0.446  0.00  0.00    +0.000 C 
ATOM     11  C   UNL     1       1.413   1.748   1.642  0.00  0.00    +0.000 C 
BRANCH  11  12
ATOM     12  C   UNL     1       2.577   2.657   1.303  0.00  0.00    +0.000 A 
ATOM     13  C   UNL     1       2.783   3.840   2.025  0.00  0.00    +0.000 A 
ATOM     14  C   UNL     1       3.839   4.683   1.689  0.00  0.00    +0.000 A 
ATOM     15  C   UNL     1       4.669   4.311   0.646  0.00  0.00    +0.000 A 
ATOM     16  N   UNL     1       4.523   3.169  -0.055  0.00  0.00    +0.000 NA
ATOM     17  C   UNL     1       3.489   2.370   0.290  0.00  0.00    +0.000 A 
ENDBRANCH  11  12
ENDBRANCH   9  11
ENDBRANCH   1   9
BRANCH   5  18
ATOM     18  C   UNL     1       3.854  -3.681   6.726  0.00  0.00    +0.000 C 
BRANCH  18  19
ATOM     19  N   UNL     1       3.646  -5.036   6.249  0.00  0.00    +0.000 N 
ATOM     20  C   UNL     1       2.380  -5.508   6.025  0.00  0.00    +0.000 C 
ATOM     21  O   UNL     1       1.378  -4.804   6.196  0.00  0.00    +0.000 OA
ATOM     22  H   UNL     1       4.457  -5.591   5.990  0.00  0.00    +0.000 HD
BRANCH  20  23
ATOM     23  C   UNL     1       2.218  -6.921   5.694  0.00  0.00    +0.000 A 
ATOM     24  C   UNL     1       0.967  -7.399   5.324  0.00  0.00    +0.000 A 
ATOM     25  S   UNL     1       0.836  -9.090   5.494  0.00  0.00    +0.000 S 
ATOM     26  C   UNL     1       2.481  -9.218   5.915  0.00  0.00    +0.000 A 
ATOM     27  N   UNL     1       3.020 -10.393   6.332  0.00  0.00    +0.000 NA
ATOM     28  C   UNL     1       4.298 -10.350   6.520  0.00  0.00    +0.000 A 
ATOM     29  N   UNL     1       5.091  -9.256   6.279  0.00  0.00    +0.000 N 
ATOM     30  C   UNL     1       4.585  -8.039   5.885  0.00  0.00    +0.000 A 
ATOM     31  O   UNL     1       5.305  -7.078   5.640  0.00  0.00    +0.000 OA
ATOM     32  C   UNL     1       3.142  -8.013   5.776  0.00  0.00    +0.000 A 
ATOM     33  H   UNL     1       6.095  -9.322   6.360  0.00  0.00    +0.000 HD
ENDBRANCH  20  23
ENDBRANCH  18  19
ENDBRANCH   5  18
TORSDOF 6
