REMARK  Name = 
REMARK  5 active torsions:
REMARK  status: ('A' for Active; 'I' for Inactive)
REMARK    1  A    between atoms: N_1  and  C_2
REMARK    2  A    between atoms: C_2  and  C_3
REMARK    3  A    between atoms: C_6  and  N_7
REMARK    4  A    between atoms: N_7  and  C_8
REMARK    5  A    between atoms: C_8  and  C_9
REMARK                            x       y       z     vdW  Elec       q    Type
REMARK                         _______ _______ _______ _____ _____    ______ ____
ROOT
ATOM      1  C   UNL     1       1.495   2.109  -1.524  0.00  0.00    +0.000 A 
ATOM      2  C   UNL     1       2.844   2.019  -1.849  0.00  0.00    +0.000 A 
ATOM      3  C   UNL     1       3.659   3.133  -1.658  0.00  0.00    +0.000 A 
ATOM      4  C   UNL     1       3.134   4.323  -1.149  0.00  0.00    +0.000 A 
ATOM      5  C   UNL     1       1.755   4.331  -0.942  0.00  0.00    +0.000 A 
ATOM      6  N   UNL     1       0.933   3.260  -1.085  0.00  0.00    +0.000 NA
ENDROOT
BRANCH   4   7
ATOM      7  N   UNL     1       3.993   5.404  -0.974  0.00  0.00    +0.000 N 
ATOM      8  H   UNL     1       4.874   5.112  -0.559  0.00  0.00    +0.000 HD
BRANCH   7   9
ATOM      9  C   UNL     1       3.489   6.687  -0.488  0.00  0.00    +0.000 C 
BRANCH   9  10
ATOM     10  C   UNL     1       4.646   7.634  -0.116  0.00  0.00    +0.000 C 
ATOM     11  C   UNL     1       4.104   8.950   0.474  0.00  0.00    +0.000 C 
ATOM     12  C   UNL     1       3.611   9.907  -0.610  0.00  0.00    +0.000 C 
ATOM     13  C   UNL     1       4.690  10.129  -1.665  0.00  0.00    +0.000 C 
ATOM     14  N   UNL     1       5.070   8.858  -2.276  0.00  0.00    +0.000 NA
ATOM     15  C   UNL     1       5.607   7.926  -1.284  0.00  0.00    +0.000 C 
ATOM     16  H   UNL     1       5.777   9.025  -2.992  0.00  0.00    +0.000 HD
ENDBRANCH   9  10
ENDBRANCH   7   9
ENDBRANCH   4   7
BRANCH   1  17
ATOM     17  C   UNL     1       0.608   0.886  -1.600  0.00  0.00    +0.000 C 
BRANCH  17  18
ATOM     18  N   UNL     1       1.063  -0.184  -0.702  0.00  0.00    +0.000 NA
ATOM     19  H   UNL     1       0.343  -0.903  -0.668  0.00  0.00    +0.000 HD
ATOM     20  H   UNL     1       1.111   0.206   0.240  0.00  0.00    +0.000 HD
ENDBRANCH  17  18
ENDBRANCH   1  17
TORSDOF 5
