REMARK  Name = 
REMARK  5 active torsions:
REMARK  status: ('A' for Active; 'I' for Inactive)
REMARK    1  A    between atoms: C_2  and  C_4
REMARK    2  A    between atoms: C_7  and  O_8
REMARK    3  A    between atoms: O_8  and  C_9
REMARK    4  A    between atoms: C_9  and  C_10
REMARK    5  A    between atoms: C_15  and  C_16
REMARK                            x       y       z     vdW  Elec       q    Type
REMARK                         _______ _______ _______ _____ _____    ______ ____
ROOT
ATOM      1  C   UNL     1       5.593  -3.666  -6.134  0.00  0.00    +0.000 A 
ATOM      2  C   UNL     1       6.591  -3.214  -7.000  0.00  0.00    +0.000 A 
ATOM      3  C   UNL     1       7.276  -4.125  -7.791  0.00  0.00    +0.000 A 
ATOM      4  F   UNL     1       8.227  -3.685  -8.625  0.00  0.00    +0.000 F 
ATOM      5  C   UNL     1       6.984  -5.485  -7.747  0.00  0.00    +0.000 A 
ATOM      6  C   UNL     1       5.995  -5.984  -6.882  0.00  0.00    +0.000 A 
ATOM      7  C   UNL     1       5.317  -5.046  -6.075  0.00  0.00    +0.000 A 
ENDROOT
BRANCH   6   8
ATOM      8  C   UNL     1       5.668  -7.431  -6.831  0.00  0.00    +0.000 A 
ATOM      9  C   UNL     1       6.649  -8.418  -7.055  0.00  0.00    +0.000 A 
ATOM     10  C   UNL     1       6.341  -9.784  -7.022  0.00  0.00    +0.000 A 
ATOM     11  C   UNL     1       5.042 -10.196  -6.749  0.00  0.00    +0.000 A 
ATOM     12  C   UNL     1       4.065  -9.239  -6.519  0.00  0.00    +0.000 A 
ATOM     13  F   UNL     1       2.811  -9.628  -6.252  0.00  0.00    +0.000 F 
ATOM     14  C   UNL     1       4.362  -7.878  -6.564  0.00  0.00    +0.000 A 
ENDBRANCH   6   8
BRANCH   1  15
ATOM     15  C   UNL     1       4.788  -2.692  -5.309  0.00  0.00    +0.000 C 
BRANCH  15  16
ATOM     16  O   UNL     1       4.956  -2.991  -3.924  0.00  0.00    +0.000 OA
BRANCH  16  20
ATOM     17  C   UNL     1       3.018  -0.802  -1.040  0.00  0.00    +0.000 A 
ATOM     18  C   UNL     1       2.792  -0.427  -2.358  0.00  0.00    +0.000 A 
ATOM     19  C   UNL     1       3.430  -1.140  -3.372  0.00  0.00    +0.000 A 
ATOM     20  C   UNL     1       4.270  -2.203  -3.045  0.00  0.00    +0.000 A 
ATOM     21  C   UNL     1       4.431  -2.500  -1.693  0.00  0.00    +0.000 A 
ATOM     22  N   UNL     1       3.833  -1.829  -0.676  0.00  0.00    +0.000 NA
BRANCH  17  24
ATOM     23  N   UNL     1       2.659  -0.444   1.331  0.00  0.00    +0.000 N 
ATOM     24  C   UNL     1       2.339  -0.049   0.062  0.00  0.00    +0.000 C 
ATOM     25  O   UNL     1       1.553   0.865  -0.152  0.00  0.00    +0.000 OA
ATOM     26  H   UNL     1       2.250   0.035   2.119  0.00  0.00    +0.000 HD
ATOM     27  H   UNL     1       3.333  -1.189   1.471  0.00  0.00    +0.000 HD
ENDBRANCH  17  24
ENDBRANCH  16  20
ENDBRANCH  15  16
ENDBRANCH   1  15
TORSDOF 5
