REMARK  Name = 
REMARK  6 active torsions:
REMARK  status: ('A' for Active; 'I' for Inactive)
REMARK    1  A    between atoms: N_1  and  C_2
REMARK    2  A    between atoms: C_2  and  C_3
REMARK    3  A    between atoms: C_6  and  O_7
REMARK    4  A    between atoms: O_7  and  C_8
REMARK    5  A    between atoms: C_8  and  C_9
REMARK    6  A    between atoms: C_9  and  C_10
REMARK                            x       y       z     vdW  Elec       q    Type
REMARK                         _______ _______ _______ _____ _____    ______ ____
ROOT
ATOM      1  C   UNL     1       2.942  -1.079  -1.317  0.00  0.00    +0.000 A 
ATOM      2  C   UNL     1       2.893  -2.119  -0.383  0.00  0.00    +0.000 A 
ATOM      3  C   UNL     1       3.169  -3.430  -0.783  0.00  0.00    +0.000 A 
ATOM      4  C   UNL     1       3.505  -3.651  -2.106  0.00  0.00    +0.000 A 
ATOM      5  N   UNL     1       3.529  -2.676  -3.039  0.00  0.00    +0.000 NA
ATOM      6  C   UNL     1       3.247  -1.424  -2.627  0.00  0.00    +0.000 A 
ENDROOT
BRANCH   1   7
ATOM      7  C   UNL     1       2.678   0.351  -0.947  0.00  0.00    +0.000 C 
BRANCH   7   8
ATOM      8  N   UNL     1       3.640   0.841   0.033  0.00  0.00    +0.000 NA
ATOM      9  H   UNL     1       3.472   1.831   0.200  0.00  0.00    +0.000 HD
ATOM     10  H   UNL     1       4.579   0.774  -0.359  0.00  0.00    +0.000 HD
ENDBRANCH   7   8
ENDBRANCH   1   7
BRANCH   4  11
ATOM     11  O   UNL     1       3.825  -4.942  -2.493  0.00  0.00    +0.000 OA
BRANCH  11  12
ATOM     12  C   UNL     1       4.707  -4.916  -3.627  0.00  0.00    +0.000 C 
BRANCH  12  13
ATOM     13  C   UNL     1       5.044  -6.334  -4.085  0.00  0.00    +0.000 C 
BRANCH  13  14
ATOM     14  C   UNL     1       5.994  -6.362  -5.306  0.00  0.00    +0.000 C 
ATOM     15  C   UNL     1       6.269  -7.817  -5.727  0.00  0.00    +0.000 C 
ATOM     16  C   UNL     1       7.269  -7.917  -6.878  0.00  0.00    +0.000 C 
ATOM     17  C   UNL     1       8.567  -7.185  -6.561  0.00  0.00    +0.000 C 
ATOM     18  C   UNL     1       8.297  -5.731  -6.204  0.00  0.00    +0.000 C 
ATOM     19  C   UNL     1       7.314  -5.614  -5.042  0.00  0.00    +0.000 C 
ENDBRANCH  13  14
ENDBRANCH  12  13
ENDBRANCH  11  12
ENDBRANCH   4  11
TORSDOF 6
