REMARK  Name = 
REMARK  6 active torsions:
REMARK  status: ('A' for Active; 'I' for Inactive)
REMARK    1  A    between atoms: N_1  and  C_2
REMARK    2  A    between atoms: C_2  and  C_3
REMARK    3  A    between atoms: C_6  and  C_7
REMARK    4  A    between atoms: C_7  and  N_8
REMARK    5  A    between atoms: CA_14  and  C_15
REMARK    6  A    between atoms: C_15  and  OXT_17
REMARK                            x       y       z     vdW  Elec       q    Type
REMARK                         _______ _______ _______ _____ _____    ______ ____
ROOT
ATOM      1  N   UNL     1       4.234   2.054  -6.017  0.00  0.00    +0.000 N 
ATOM      2  C   UNL     1       3.438   1.905  -7.130  0.00  0.00    +0.000 A 
ATOM      3  C   UNL     1       4.119   1.130  -8.045  0.00  0.00    +0.000 A 
ATOM      4  C   UNL     1       5.375   0.797  -7.477  0.00  0.00    +0.000 A 
ATOM      5  C   UNL     1       6.495   0.062  -7.905  0.00  0.00    +0.000 A 
ATOM      6  C   UNL     1       7.584  -0.034  -7.039  0.00  0.00    +0.000 A 
ATOM      7  CA  UNL     1       7.507   0.598  -5.806  0.00  0.00    +0.000 A 
ATOM      8  N   UNL     1       6.453   1.332  -5.343  0.00  0.00    +0.000 NA
ATOM      9  C   UNL     1       5.424   1.388  -6.215  0.00  0.00    +0.000 A 
ENDROOT
BRANCH   7  10
ATOM     10  C   UNL     1       8.656   0.491  -4.855  0.00  0.00    +0.000 C 
ATOM     11  O   UNL     1       9.697  -0.097  -5.086  0.00  0.00    +0.000 OA
BRANCH  10  12
ATOM     12  OXT UNL     1       8.383   1.125  -3.686  0.00  0.00    +0.000 OA
ATOM     13  HXT UNL     1       7.483   1.530  -3.739  0.00  0.00    +0.000 HD
ENDBRANCH  10  12
ENDBRANCH   7  10
BRANCH   1  14
ATOM     14  C   UNL     1       3.906   2.897  -4.869  0.00  0.00    +0.000 C 
BRANCH  14  18
ATOM     15  C   UNL     1       3.320   0.442  -1.353  0.00  0.00    +0.000 A 
ATOM     16  C   UNL     1       2.240   0.737  -2.200  0.00  0.00    +0.000 A 
ATOM     17  C   UNL     1       2.412   1.549  -3.327  0.00  0.00    +0.000 A 
ATOM     18  C   UNL     1       3.667   2.102  -3.615  0.00  0.00    +0.000 A 
ATOM     19  C   UNL     1       4.714   1.865  -2.719  0.00  0.00    +0.000 A 
ATOM     20  F   UNL     1       5.916   2.425  -2.926  0.00  0.00    +0.000 F 
ATOM     21  C   UNL     1       4.557   1.039  -1.610  0.00  0.00    +0.000 A 
BRANCH  15  22
ATOM     22  C   UNL     1       3.161  -0.533  -0.216  0.00  0.00    +0.000 C 
BRANCH  22  23
ATOM     23  N   UNL     1       2.774  -1.848  -0.716  0.00  0.00    +0.000 NA
ATOM     24  H   UNL     1       2.817  -2.522   0.045  0.00  0.00    +0.000 HD
ATOM     25  H   UNL     1       3.461  -2.152  -1.406  0.00  0.00    +0.000 HD
ENDBRANCH  22  23
ENDBRANCH  15  22
ENDBRANCH  14  18
ENDBRANCH   1  14
TORSDOF 6
