REMARK  Name = 
REMARK  6 active torsions:
REMARK  status: ('A' for Active; 'I' for Inactive)
REMARK    1  A    between atoms: C_1  and  C_2
REMARK    2  A    between atoms: C_2  and  N_3
REMARK    3  A    between atoms: N_3  and  C_4
REMARK    4  A    between atoms: N_3  and  C_14
REMARK    5  A    between atoms: C_4  and  C_5
REMARK    6  A    between atoms: C_8  and  C_9
REMARK                            x       y       z     vdW  Elec       q    Type
REMARK                         _______ _______ _______ _____ _____    ______ ____
ROOT
ATOM      1  C   UNL     1       0.975  -0.848   2.640  0.00  0.00    +0.000 A 
ATOM      2  C   UNL     1       0.186  -1.981   2.536  0.00  0.00    +0.000 A 
ATOM      3  N   UNL     1      -1.114  -2.036   2.875  0.00  0.00    +0.000 NA
ATOM      4  C   UNL     1      -1.632  -0.881   3.354  0.00  0.00    +0.000 A 
ATOM      5  N   UNL     1      -0.968   0.281   3.504  0.00  0.00    +0.000 NA
ATOM      6  C   UNL     1       0.332   0.268   3.138  0.00  0.00    +0.000 A 
ENDROOT
BRANCH   4   7
ATOM      7  C   UNL     1      -3.078  -0.943   3.797  0.00  0.00    +0.000 C 
ATOM      8  N   UNL     1      -3.689  -2.171   3.652  0.00  0.00    +0.000 N 
ATOM      9  O   UNL     1      -3.692   0.001   4.272  0.00  0.00    +0.000 OA
ATOM     10  H   UNL     1      -3.165  -2.959   3.291  0.00  0.00    +0.000 HD
ATOM     11  H   UNL     1      -4.637  -2.284   3.982  0.00  0.00    +0.000 HD
ENDBRANCH   4   7
BRANCH   1  12
ATOM     12  C   UNL     1       2.434  -0.889   2.292  0.00  0.00    +0.000 C 
BRANCH  12  13
ATOM     13  N   UNL     1       2.926   0.069   1.276  0.00  0.00    +0.000 NA
BRANCH  13  14
ATOM     14  C   UNL     1       4.436   0.085   1.302  0.00  0.00    +0.000 C 
ATOM     15  C   UNL     1       5.045   1.205   0.422  0.00  0.00    +0.000 C 
ATOM     16  C   UNL     1       6.575   1.198   0.415  0.00  0.00    +0.000 C 
ATOM     17  C   UNL     1       7.114  -0.165   0.002  0.00  0.00    +0.000 C 
ATOM     18  C   UNL     1       6.620  -1.239   0.957  0.00  0.00    +0.000 C 
ATOM     19  C   UNL     1       5.095  -1.288   1.002  0.00  0.00    +0.000 C 
ENDBRANCH  13  14
BRANCH  13  21
ATOM     20  C   UNL     1       0.907  -0.026  -0.313  0.00  0.00    +0.000 C 
ATOM     21  C   UNL     1       2.408  -0.181  -0.088  0.00  0.00    +0.000 C 
ENDBRANCH  13  21
ENDBRANCH  12  13
ENDBRANCH   1  12
TORSDOF 5
