REMARK  Name = 
REMARK  8 active torsions:
REMARK  status: ('A' for Active; 'I' for Inactive)
REMARK    1  A    between atoms: C_1  and  C_2
REMARK    2  A    between atoms: C_2  and  C_3
REMARK    3  A    between atoms: C_3  and  N_4
REMARK    4  A    between atoms: C_3  and  C_17
REMARK    5  A    between atoms: C_5  and  C_7
REMARK    6  A    between atoms: C_20  and  C_21
REMARK    7  A    between atoms: C_21  and  N_22
REMARK    8  A    between atoms: C_23  and  C_25
REMARK                            x       y       z     vdW  Elec       q    Type
REMARK                         _______ _______ _______ _____ _____    ______ ____
ROOT
ATOM      1  C   UNL     1       2.954  -0.768   1.149  0.00  0.00    +0.000 C 
ENDROOT
BRANCH   1   2
ATOM      2  C   UNL     1       4.482  -0.836   1.267  0.00  0.00    +0.000 A 
ATOM      3  C   UNL     1       5.245  -1.447   0.269  0.00  0.00    +0.000 A 
ATOM      4  C   UNL     1       6.633  -1.498   0.399  0.00  0.00    +0.000 A 
ATOM      5  C   UNL     1       7.245  -0.944   1.523  0.00  0.00    +0.000 A 
ATOM      6  C   UNL     1       6.410  -0.373   2.477  0.00  0.00    +0.000 A 
ATOM      7  N   UNL     1       5.058  -0.306   2.375  0.00  0.00    +0.000 NA
BRANCH   5   8
ATOM      8  C   UNL     1       8.735  -0.959   1.697  0.00  0.00    +0.000 C 
BRANCH   8   9
ATOM      9  N   UNL     1       9.204  -2.119   2.413  0.00  0.00    +0.000 N 
ATOM     10  C   UNL     1      10.552  -2.336   2.620  0.00  0.00    +0.000 C 
ATOM     11  O   UNL     1      11.427  -1.576   2.219  0.00  0.00    +0.000 OA
ATOM     12  H   UNL     1       8.558  -2.790   2.821  0.00  0.00    +0.000 HD
BRANCH  10  13
ATOM     13  C   UNL     1      10.889  -3.584   3.382  0.00  0.00    +0.000 A 
ATOM     14  C   UNL     1      12.217  -3.870   3.683  0.00  0.00    +0.000 A 
ATOM     15  C   UNL     1      12.499  -5.044   4.376  0.00  0.00    +0.000 A 
ATOM     16  C   UNL     1      11.453  -5.886   4.738  0.00  0.00    +0.000 A 
ATOM     17  C   UNL     1      10.159  -5.519   4.398  0.00  0.00    +0.000 A 
ATOM     18  N   UNL     1       9.843  -4.386   3.730  0.00  0.00    +0.000 NA
ENDBRANCH  10  13
ENDBRANCH   8   9
ENDBRANCH   5   8
ENDBRANCH   1   2
BRANCH   1  19
ATOM     19  N   UNL     1       2.414  -2.129   1.168  0.00  0.00    +0.000 N 
ATOM     20  C   UNL     1       1.072  -2.416   1.176  0.00  0.00    +0.000 C 
ATOM     21  O   UNL     1       0.198  -1.562   1.072  0.00  0.00    +0.000 OA
ATOM     22  H   UNL     1       3.032  -2.822   1.580  0.00  0.00    +0.000 HD
BRANCH  20  23
ATOM     23  C   UNL     1       0.727  -3.841   1.243  0.00  0.00    +0.000 A 
ATOM     24  C   UNL     1      -0.431  -4.308   0.636  0.00  0.00    +0.000 A 
ATOM     25  S   UNL     1      -0.667  -5.988   0.825  0.00  0.00    +0.000 S 
ATOM     26  C   UNL     1       0.745  -6.136   1.764  0.00  0.00    +0.000 A 
ATOM     27  N   UNL     1       1.111  -7.331   2.302  0.00  0.00    +0.000 NA
ATOM     28  C   UNL     1       2.180  -7.284   3.025  0.00  0.00    +0.000 A 
ATOM     29  N   UNL     1       2.927  -6.157   3.243  0.00  0.00    +0.000 N 
ATOM     30  C   UNL     1       2.635  -4.945   2.664  0.00  0.00    +0.000 A 
ATOM     31  O   UNL     1       3.390  -3.985   2.777  0.00  0.00    +0.000 OA
ATOM     32  C   UNL     1       1.411  -4.931   1.891  0.00  0.00    +0.000 A 
ATOM     33  H   UNL     1       3.775  -6.192   3.792  0.00  0.00    +0.000 HD
ENDBRANCH  20  23
ENDBRANCH   1  19
BRANCH   1  35
ATOM     34  C   UNL     1       2.993   1.440  -0.168  0.00  0.00    +0.000 C 
ATOM     35  C   UNL     1       2.514  -0.003  -0.119  0.00  0.00    +0.000 C 
ENDBRANCH   1  35
TORSDOF 7
