REMARK  Name = 
REMARK  8 active torsions:
REMARK  status: ('A' for Active; 'I' for Inactive)
REMARK    1  A    between atoms: N_1  and  C_2
REMARK    2  A    between atoms: C_2  and  C_3
REMARK    3  A    between atoms: C_2  and  C_18
REMARK    4  A    between atoms: C_3  and  N_4
REMARK    5  A    between atoms: C_7  and  C_8
REMARK    6  A    between atoms: C_8  and  O_9
REMARK    7  A    between atoms: O_9  and  C_10
REMARK    8  A    between atoms: C_18  and  C_20
REMARK                            x       y       z     vdW  Elec       q    Type
REMARK                         _______ _______ _______ _____ _____    ______ ____
ROOT
ATOM      1  C   UNL     1       0.632   0.142  -1.415  0.00  0.00    +0.000 C 
ENDROOT
BRANCH   1   2
ATOM      2  N   UNL     1       1.192   1.341  -2.073  0.00  0.00    +0.000 NA
ATOM      3  H   UNL     1       0.979   1.334  -3.067  0.00  0.00    +0.000 HD
ATOM      4  H   UNL     1       2.214   1.303  -1.997  0.00  0.00    +0.000 HD
ENDBRANCH   1   2
BRANCH   1   5
ATOM      5  C   UNL     1       1.182  -1.090  -2.123  0.00  0.00    +0.000 C 
ATOM      6  O   UNL     1       2.329  -1.069  -2.613  0.00  0.00    +0.000 OA
BRANCH   5   7
ATOM      7  C   UNL     1       0.415  -2.323  -2.160  0.00  0.00    +0.000 A 
ATOM      8  C   UNL     1      -0.476  -2.701  -1.168  0.00  0.00    +0.000 A 
ATOM      9  S   UNL     1      -0.756  -4.391  -1.187  0.00  0.00    +0.000 S 
ATOM     10  C   UNL     1       0.094  -4.570  -2.652  0.00  0.00    +0.000 A 
ATOM     11  N   UNL     1       0.283  -5.790  -3.222  0.00  0.00    +0.000 NA
ATOM     12  C   UNL     1       0.860  -5.747  -4.376  0.00  0.00    +0.000 A 
ATOM     13  N   UNL     1       1.222  -4.596  -5.036  0.00  0.00    +0.000 N 
ATOM     14  C   UNL     1       1.035  -3.337  -4.503  0.00  0.00    +0.000 A 
ATOM     15  O   UNL     1       1.191  -2.319  -5.172  0.00  0.00    +0.000 OA
ATOM     16  C   UNL     1       0.510  -3.356  -3.150  0.00  0.00    +0.000 A 
ATOM     17  H   UNL     1       1.539  -4.635  -5.994  0.00  0.00    +0.000 HD
ENDBRANCH   5   7
ENDBRANCH   1   5
BRANCH   1  18
ATOM     18  C   UNL     1       0.979   0.091   0.104  0.00  0.00    +0.000 C 
BRANCH  18  19
ATOM     19  N   UNL     1       0.484   1.221   0.923  0.00  0.00    +0.000 NA
ATOM     20  C   UNL     1       1.029   2.506   0.462  0.00  0.00    +0.000 C 
ATOM     21  C   UNL     1       0.636   3.634   1.405  0.00  0.00    +0.000 C 
ATOM     22  C   UNL     1      -0.886   3.743   1.553  0.00  0.00    +0.000 C 
ATOM     23  C   UNL     1      -1.457   2.371   1.935  0.00  0.00    +0.000 C 
ATOM     24  C   UNL     1      -0.984   1.254   0.998  0.00  0.00    +0.000 C 
BRANCH  22  25
ATOM     25  C   UNL     1      -1.554   4.303   0.287  0.00  0.00    +0.000 C 
BRANCH  25  26
ATOM     26  O   UNL     1      -1.022   5.606   0.041  0.00  0.00    +0.000 OA
BRANCH  26  27
ATOM     27  C   UNL     1      -1.585   6.184  -1.071  0.00  0.00    +0.000 A 
ATOM     28  N   UNL     1      -1.634   7.523  -1.051  0.00  0.00    +0.000 NA
ATOM     29  C   UNL     1      -2.286   8.099  -2.074  0.00  0.00    +0.000 A 
ATOM     30  C   UNL     1      -2.870   7.391  -3.093  0.00  0.00    +0.000 A 
ATOM     31  C   UNL     1      -2.739   6.025  -3.027  0.00  0.00    +0.000 A 
ATOM     32  N   UNL     1      -2.096   5.395  -2.032  0.00  0.00    +0.000 NA
ENDBRANCH  26  27
ENDBRANCH  25  26
ENDBRANCH  22  25
ENDBRANCH  18  19
ENDBRANCH   1  18
TORSDOF 8
