REMARK  Name = 
REMARK  6 active torsions:
REMARK  status: ('A' for Active; 'I' for Inactive)
REMARK    1  A    between atoms: C_2  and  C_19
REMARK    2  A    between atoms: N_3  and  C_4
REMARK    3  A    between atoms: C_4  and  C_5
REMARK    4  A    between atoms: C_8  and  C_9
REMARK    5  A    between atoms: C_9  and  N_10
REMARK    6  A    between atoms: N_10  and  C_11
REMARK                            x       y       z     vdW  Elec       q    Type
REMARK                         _______ _______ _______ _____ _____    ______ ____
ROOT
ATOM      1  C   UNL     1       2.263  -0.856  -2.218  0.00  0.00    +0.000 C 
ENDROOT
BRANCH   1   2
ATOM      2  C   UNL     1       3.197  -1.322  -3.290  0.00  0.00    +0.000 A 
ATOM      3  C   UNL     1       3.997  -0.420  -3.993  0.00  0.00    +0.000 A 
ATOM      4  C   UNL     1       4.863  -0.884  -4.978  0.00  0.00    +0.000 A 
ATOM      5  C   UNL     1       4.913  -2.251  -5.240  0.00  0.00    +0.000 A 
ATOM      6  N   UNL     1       4.163  -3.146  -4.543  0.00  0.00    +0.000 NA
ATOM      7  C   UNL     1       3.334  -2.669  -3.594  0.00  0.00    +0.000 A 
BRANCH   5   8
ATOM      8  C   UNL     1       5.870  -2.769  -6.303  0.00  0.00    +0.000 C 
BRANCH   8   9
ATOM      9  N   UNL     1       5.392  -3.986  -6.949  0.00  0.00    +0.000 NA
ATOM     10  H   UNL     1       4.447  -3.853  -7.316  0.00  0.00    +0.000 HD
BRANCH   9  11
ATOM     11  C   UNL     1       6.258  -4.543  -7.991  0.00  0.00    +0.000 C 
ATOM     12  C   UNL     1       6.557  -3.578  -9.151  0.00  0.00    +0.000 C 
ATOM     13  C   UNL     1       5.288  -3.234  -9.930  0.00  0.00    +0.000 C 
ATOM     14  C   UNL     1       4.569  -4.502 -10.393  0.00  0.00    +0.000 C 
ATOM     15  N   UNL     1       4.293  -5.411  -9.281  0.00  0.00    +0.000 NA
ATOM     16  C   UNL     1       5.534  -5.784  -8.576  0.00  0.00    +0.000 C 
ATOM     17  H   UNL     1       3.840  -6.255  -9.627  0.00  0.00    +0.000 HD
ENDBRANCH   9  11
ENDBRANCH   8   9
ENDBRANCH   5   8
ENDBRANCH   1   2
BRANCH   1  20
ATOM     18  O   UNL     1       3.713   1.344  -1.207  0.00  0.00    +0.000 OA
ATOM     19  C   UNL     1       3.571   0.345  -0.507  0.00  0.00    +0.000 C 
ATOM     20  N   UNL     1       2.919  -0.779  -0.940  0.00  0.00    +0.000 N 
ATOM     21  H   UNL     1       2.741  -1.536  -0.291  0.00  0.00    +0.000 HD
BRANCH  19  22
ATOM     22  C   UNL     1       4.127   0.275   0.846  0.00  0.00    +0.000 A 
ATOM     23  C   UNL     1       5.223   1.052   1.193  0.00  0.00    +0.000 A 
ATOM     24  S   UNL     1       5.721   0.837   2.810  0.00  0.00    +0.000 S 
ATOM     25  C   UNL     1       4.467  -0.274   3.109  0.00  0.00    +0.000 A 
ATOM     26  N   UNL     1       4.302  -0.835   4.336  0.00  0.00    +0.000 NA
ATOM     27  C   UNL     1       3.284  -1.624   4.430  0.00  0.00    +0.000 A 
ATOM     28  N   UNL     1       2.420  -1.910   3.407  0.00  0.00    +0.000 N 
ATOM     29  C   UNL     1       2.580  -1.415   2.135  0.00  0.00    +0.000 A 
ATOM     30  O   UNL     1       1.848  -1.775   1.219  0.00  0.00    +0.000 OA
ATOM     31  C   UNL     1       3.690  -0.493   1.985  0.00  0.00    +0.000 A 
ATOM     32  H   UNL     1       1.656  -2.556   3.539  0.00  0.00    +0.000 HD
ENDBRANCH  19  22
ENDBRANCH   1  20
TORSDOF 6
