REMARK  Name = 
REMARK  6 active torsions:
REMARK  status: ('A' for Active; 'I' for Inactive)
REMARK    1  A    between atoms: C_2  and  C_19
REMARK    2  A    between atoms: N_3  and  C_4
REMARK    3  A    between atoms: C_4  and  C_5
REMARK    4  A    between atoms: C_8  and  C_9
REMARK    5  A    between atoms: C_9  and  C_10
REMARK    6  A    between atoms: C_13  and  O_14
REMARK                            x       y       z     vdW  Elec       q    Type
REMARK                         _______ _______ _______ _____ _____    ______ ____
ROOT
ATOM      1  C   UNL     1      10.163   9.423   4.014  0.00  0.00    +0.000 C 
ENDROOT
BRANCH   1   2
ATOM      2  C   UNL     1       9.501   8.274   4.725  0.00  0.00    +0.000 A 
ATOM      3  C   UNL     1       8.687   7.385   4.032  0.00  0.00    +0.000 A 
ATOM      4  N   UNL     1       8.094   6.318   4.621  0.00  0.00    +0.000 NA
ATOM      5  C   UNL     1       8.329   6.168   5.948  0.00  0.00    +0.000 A 
ATOM      6  C   UNL     1       9.115   7.077   6.648  0.00  0.00    +0.000 A 
ATOM      7  N   UNL     1       9.714   8.139   6.061  0.00  0.00    +0.000 NA
BRANCH   5   8
ATOM      8  C   UNL     1       7.792   4.934   6.615  0.00  0.00    +0.000 C 
BRANCH   8   9
ATOM      9  C   UNL     1       6.392   5.053   7.255  0.00  0.00    +0.000 C 
ATOM     10  C   UNL     1       5.292   5.400   6.235  0.00  0.00    +0.000 C 
ATOM     11  C   UNL     1       3.884   5.302   6.834  0.00  0.00    +0.000 C 
ATOM     12  C   UNL     1       3.618   3.953   7.499  0.00  0.00    +0.000 C 
ATOM     13  C   UNL     1       4.685   3.639   8.543  0.00  0.00    +0.000 C 
ATOM     14  C   UNL     1       6.095   3.719   7.968  0.00  0.00    +0.000 C 
BRANCH  12  15
ATOM     15  O   UNL     1       3.561   2.913   6.526  0.00  0.00    +0.000 OA
ATOM     16  H   UNL     1       4.371   2.935   5.991  0.00  0.00    +0.000 HD
ENDBRANCH  12  15
ENDBRANCH   8   9
ENDBRANCH   5   8
ENDBRANCH   1   2
BRANCH   1  19
ATOM     17  O   UNL     1       8.373  10.159   2.004  0.00  0.00    +0.000 OA
ATOM     18  C   UNL     1       8.460  10.875   2.998  0.00  0.00    +0.000 C 
ATOM     19  N   UNL     1       9.343  10.609   4.011  0.00  0.00    +0.000 N 
ATOM     20  H   UNL     1       9.218  11.060   4.914  0.00  0.00    +0.000 HD
BRANCH  18  21
ATOM     21  C   UNL     1       7.659  12.091   3.141  0.00  0.00    +0.000 A 
ATOM     22  C   UNL     1       7.221  12.776   2.017  0.00  0.00    +0.000 A 
ATOM     23  S   UNL     1       6.285  14.155   2.385  0.00  0.00    +0.000 S 
ATOM     24  C   UNL     1       6.409  13.862   4.057  0.00  0.00    +0.000 A 
ATOM     25  N   UNL     1       5.789  14.666   4.960  0.00  0.00    +0.000 NA
ATOM     26  C   UNL     1       5.945  14.303   6.192  0.00  0.00    +0.000 A 
ATOM     27  N   UNL     1       6.675  13.219   6.600  0.00  0.00    +0.000 N 
ATOM     28  C   UNL     1       7.374  12.421   5.729  0.00  0.00    +0.000 A 
ATOM     29  O   UNL     1       8.120  11.537   6.135  0.00  0.00    +0.000 OA
ATOM     30  C   UNL     1       7.187  12.752   4.331  0.00  0.00    +0.000 A 
ATOM     31  H   UNL     1       6.791  13.011   7.582  0.00  0.00    +0.000 HD
ENDBRANCH  18  21
ENDBRANCH   1  19
TORSDOF 6
