REMARK  Name = 
REMARK  11 active torsions:
REMARK  status: ('A' for Active; 'I' for Inactive)
REMARK    1  A    between atoms: N_1  and  C_2
REMARK    2  A    between atoms: C_2  and  C_3
REMARK    3  A    between atoms: N_7  and  C_8
REMARK    4  A    between atoms: C_8  and  C_9
REMARK    5  A    between atoms: C_9  and  O_10
REMARK    6  A    between atoms: C_9  and  C_11
REMARK    7  A    between atoms: C_14  and  C_15
REMARK    8  A    between atoms: C_15  and  C_16
REMARK    9  A    between atoms: C_16  and  N_17
REMARK   10  A    between atoms: C_16  and  C_18
REMARK   11  A    between atoms: C_18  and  C_20
REMARK                            x       y       z     vdW  Elec       q    Type
REMARK                         _______ _______ _______ _____ _____    ______ ____
ROOT
ATOM      1  C   UNL     1      -0.048   0.950  -2.819  0.00  0.00    +0.000 A 
ATOM      2  C   UNL     1      -0.449  -0.356  -3.130  0.00  0.00    +0.000 A 
ATOM      3  C   UNL     1      -1.745  -0.615  -3.579  0.00  0.00    +0.000 A 
ATOM      4  C   UNL     1      -2.684   0.420  -3.683  0.00  0.00    +0.000 A 
ATOM      5  C   UNL     1      -2.290   1.724  -3.363  0.00  0.00    +0.000 A 
ATOM      6  C   UNL     1      -0.982   1.988  -2.950  0.00  0.00    +0.000 A 
ENDROOT
BRANCH   1   7
ATOM      7  C   UNL     1       1.383   1.208  -2.378  0.00  0.00    +0.000 C 
BRANCH   7   8
ATOM      8  O   UNL     1       1.375   1.686  -1.033  0.00  0.00    +0.000 OA
ATOM      9  H   UNL     1       0.780   2.445  -0.993  0.00  0.00    +0.000 HD
ENDBRANCH   7   8
BRANCH   7  10
ATOM     10  C   UNL     1       2.122   2.169  -3.388  0.00  0.00    +0.000 C 
BRANCH  10  15
ATOM     11  C   UNL     1       4.223   3.444  -4.018  0.00  0.00    +0.000 C 
ATOM     12  C   UNL     1       4.814   2.547  -5.100  0.00  0.00    +0.000 C 
ATOM     13  C   UNL     1       5.316   1.363  -4.312  0.00  0.00    +0.000 C 
ATOM     14  C   UNL     1       4.353   1.250  -3.139  0.00  0.00    +0.000 C 
ATOM     15  N   UNL     1       3.535   2.486  -3.097  0.00  0.00    +0.000 NA
BRANCH  11  16
ATOM     16  C   UNL     1       3.520   4.681  -4.643  0.00  0.00    +0.000 C 
BRANCH  16  17
ATOM     17  N   UNL     1       4.445   5.536  -5.414  0.00  0.00    +0.000 NA
ATOM     18  H   UNL     1       3.937   6.138  -6.061  0.00  0.00    +0.000 HD
ATOM     19  H   UNL     1       5.110   5.001  -5.970  0.00  0.00    +0.000 HD
ENDBRANCH  16  17
ENDBRANCH  11  16
ENDBRANCH  10  15
ENDBRANCH   7  10
ENDBRANCH   1   7
BRANCH   4  20
ATOM     20  C   UNL     1      -4.107   0.148  -4.130  0.00  0.00    +0.000 C 
BRANCH  20  21
ATOM     21  C   UNL     1      -4.848  -0.853  -3.222  0.00  0.00    +0.000 C 
BRANCH  21  22
ATOM     22  N   UNL     1      -4.975  -0.335  -1.833  0.00  0.00    +0.000 NA
ATOM     23  H   UNL     1      -5.660   0.418  -1.800  0.00  0.00    +0.000 HD
ATOM     24  H   UNL     1      -4.088   0.095  -1.555  0.00  0.00    +0.000 HD
ENDBRANCH  21  22
BRANCH  21  25
ATOM     25  C   UNL     1      -6.239  -1.260  -3.807  0.00  0.00    +0.000 C 
ATOM     26  O   UNL     1      -6.703  -0.692  -4.775  0.00  0.00    +0.000 OA
BRANCH  25  27
ATOM     27  C   UNL     1      -6.967  -2.360  -3.114  0.00  0.00    +0.000 A 
ATOM     28  C   UNL     1      -6.425  -3.033  -2.037  0.00  0.00    +0.000 A 
ATOM     29  S   UNL     1      -7.488  -4.150  -1.315  0.00  0.00    +0.000 S 
ATOM     30  C   UNL     1      -8.710  -3.771  -2.431  0.00  0.00    +0.000 A 
ATOM     31  N   UNL     1      -9.943  -4.343  -2.339  0.00  0.00    +0.000 NA
ATOM     32  C   UNL     1     -10.801  -3.870  -3.182  0.00  0.00    +0.000 A 
ATOM     33  N   UNL     1     -10.530  -2.919  -4.130  0.00  0.00    +0.000 N 
ATOM     34  C   UNL     1      -9.224  -2.611  -4.465  0.00  0.00    +0.000 A 
ATOM     35  O   UNL     1      -8.926  -2.320  -5.611  0.00  0.00    +0.000 OA
ATOM     36  C   UNL     1      -8.282  -2.876  -3.395  0.00  0.00    +0.000 A 
ATOM     37  H   UNL     1     -11.214  -2.728  -4.846  0.00  0.00    +0.000 HD
ENDBRANCH  25  27
ENDBRANCH  21  25
ENDBRANCH  20  21
ENDBRANCH   4  20
TORSDOF 11
