REMARK  Name = 
REMARK  9 active torsions:
REMARK  status: ('A' for Active; 'I' for Inactive)
REMARK    1  A    between atoms: C_1  and  O_2
REMARK    2  A    between atoms: O_2  and  C_3
REMARK    3  A    between atoms: C_10  and  C_11
REMARK    4  A    between atoms: N_13  and  C_14
REMARK    5  A    between atoms: C_14  and  C_15
REMARK    6  A    between atoms: C_18  and  C_19
REMARK    7  A    between atoms: C_19  and  C_20
REMARK    8  A    between atoms: C_20  and  N_21
REMARK    9  A    between atoms: N_21  and  C_22
REMARK                            x       y       z     vdW  Elec       q    Type
REMARK                         _______ _______ _______ _____ _____    ______ ____
ROOT
ATOM      1  C   UNL     1       2.932   0.485   3.265  0.00  0.00    +0.000 C 
ENDROOT
BRANCH   1   2
ATOM      2  C   UNL     1       1.867   1.517   3.000  0.00  0.00    +0.000 A 
ATOM      3  C   UNL     1       0.539   1.128   2.816  0.00  0.00    +0.000 A 
ATOM      4  C   UNL     1      -0.448   2.075   2.542  0.00  0.00    +0.000 A 
ATOM      5  C   UNL     1      -0.136   3.440   2.463  0.00  0.00    +0.000 A 
ATOM      6  C   UNL     1       1.197   3.829   2.629  0.00  0.00    +0.000 A 
ATOM      7  C   UNL     1       2.192   2.878   2.891  0.00  0.00    +0.000 A 
BRANCH   5   8
ATOM      8  C   UNL     1      -1.183   4.488   2.159  0.00  0.00    +0.000 C 
BRANCH   8   9
ATOM      9  C   UNL     1      -2.613   4.168   2.629  0.00  0.00    +0.000 C 
BRANCH   9  10
ATOM     10  N   UNL     1      -2.748   3.973   4.075  0.00  0.00    +0.000 NA
ATOM     11  H   UNL     1      -2.429   4.799   4.581  0.00  0.00    +0.000 HD
BRANCH  10  12
ATOM     12  C   UNL     1      -4.115   3.597   4.475  0.00  0.00    +0.000 C 
ATOM     13  C   UNL     1      -5.181   4.649   4.131  0.00  0.00    +0.000 C 
ATOM     14  C   UNL     1      -6.537   4.255   4.701  0.00  0.00    +0.000 C 
ATOM     15  O   UNL     1      -6.450   4.060   6.109  0.00  0.00    +0.000 OA
ATOM     16  C   UNL     1      -5.561   2.996   6.445  0.00  0.00    +0.000 C 
ATOM     17  C   UNL     1      -4.142   3.304   5.982  0.00  0.00    +0.000 C 
ENDBRANCH  10  12
ENDBRANCH   9  10
ENDBRANCH   8   9
ENDBRANCH   5   8
ENDBRANCH   1   2
BRANCH   1  20
ATOM     18  C   UNL     1       4.481  -0.963   2.018  0.00  0.00    +0.000 C 
ATOM     19  O   UNL     1       4.908  -1.451   3.063  0.00  0.00    +0.000 OA
ATOM     20  N   UNL     1       3.503   0.001   2.037  0.00  0.00    +0.000 N 
ATOM     21  H   UNL     1       3.216   0.447   1.176  0.00  0.00    +0.000 HD
BRANCH  18  29
ATOM     22  C   UNL     1       3.689  -0.114  -1.214  0.00  0.00    +0.000 A 
ATOM     23  N   UNL     1       3.587   0.034  -2.548  0.00  0.00    +0.000 NA
ATOM     24  C   UNL     1       4.397  -0.685  -3.324  0.00  0.00    +0.000 A 
ATOM     25  N   UNL     1       5.318  -1.555  -2.927  0.00  0.00    +0.000 NA
ATOM     26  C   UNL     1       5.391  -1.671  -1.590  0.00  0.00    +0.000 A 
ATOM     27  S   UNL     1       6.509  -2.746  -0.905  0.00  0.00    +0.000 S 
ATOM     28  C   UNL     1       6.010  -2.339   0.666  0.00  0.00    +0.000 A 
ATOM     29  C   UNL     1       4.995  -1.385   0.710  0.00  0.00    +0.000 A 
ATOM     30  C   UNL     1       4.628  -0.990  -0.649  0.00  0.00    +0.000 A 
BRANCH  22  32
ATOM     31  C   UNL     1       1.642   0.975  -1.094  0.00  0.00    +0.000 C 
ATOM     32  O   UNL     1       2.859   0.653  -0.424  0.00  0.00    +0.000 OA
ENDBRANCH  22  32
ENDBRANCH  18  29
ENDBRANCH   1  20
TORSDOF 8
