REMARK  Name = 
REMARK  9 active torsions:
REMARK  status: ('A' for Active; 'I' for Inactive)
REMARK    1  A    between atoms: C_2  and  C_22
REMARK    2  A    between atoms: N_3  and  C_4
REMARK    3  A    between atoms: C_4  and  C_5
REMARK    4  A    between atoms: C_8  and  C_9
REMARK    5  A    between atoms: C_9  and  C_10
REMARK    6  A    between atoms: C_10  and  O_11
REMARK    7  A    between atoms: C_10  and  C_12
REMARK    8  A    between atoms: C_12  and  N_13
REMARK    9  A    between atoms: C_16  and  O_17
REMARK                            x       y       z     vdW  Elec       q    Type
REMARK                         _______ _______ _______ _____ _____    ______ ____
ROOT
ATOM      1  C   UNL     1       4.967  12.271   1.875  0.00  0.00    +0.000 A 
ATOM      2  C   UNL     1       5.296  12.028   0.545  0.00  0.00    +0.000 A 
ATOM      3  C   UNL     1       5.025  10.772  -0.028  0.00  0.00    +0.000 A 
ATOM      4  C   UNL     1       4.458   9.751   0.748  0.00  0.00    +0.000 A 
ATOM      5  N   UNL     1       4.139   9.961   2.041  0.00  0.00    +0.000 NA
ATOM      6  C   UNL     1       4.401  11.196   2.563  0.00  0.00    +0.000 A 
ENDROOT
BRANCH   1   7
ATOM      7  C   UNL     1       5.022  13.641   2.507  0.00  0.00    +0.000 C 
BRANCH   7  10
ATOM      8  O   UNL     1       5.343  16.267   3.086  0.00  0.00    +0.000 OA
ATOM      9  C   UNL     1       6.346  15.561   3.180  0.00  0.00    +0.000 C 
ATOM     10  N   UNL     1       6.322  14.227   2.781  0.00  0.00    +0.000 N 
ATOM     11  H   UNL     1       7.060  13.618   3.128  0.00  0.00    +0.000 HD
BRANCH   9  12
ATOM     12  C   UNL     1       7.597  16.130   3.716  0.00  0.00    +0.000 A 
ATOM     13  C   UNL     1       7.766  17.511   3.743  0.00  0.00    +0.000 A 
ATOM     14  S   UNL     1       9.264  18.015   4.384  0.00  0.00    +0.000 S 
ATOM     15  C   UNL     1       9.718  16.408   4.705  0.00  0.00    +0.000 A 
ATOM     16  N   UNL     1      10.905  16.132   5.302  0.00  0.00    +0.000 NA
ATOM     17  C   UNL     1      11.103  14.881   5.545  0.00  0.00    +0.000 A 
ATOM     18  N   UNL     1      10.216  13.879   5.229  0.00  0.00    +0.000 N 
ATOM     19  C   UNL     1       9.016  14.112   4.595  0.00  0.00    +0.000 A 
ATOM     20  O   UNL     1       8.248  13.199   4.315  0.00  0.00    +0.000 OA
ATOM     21  C   UNL     1       8.746  15.506   4.316  0.00  0.00    +0.000 A 
ATOM     22  H   UNL     1      10.424  12.917   5.456  0.00  0.00    +0.000 HD
ENDBRANCH   9  12
ENDBRANCH   7  10
ENDBRANCH   1   7
BRANCH   4  23
ATOM     23  C   UNL     1       4.314   8.356   0.151  0.00  0.00    +0.000 C 
BRANCH  23  24
ATOM     24  C   UNL     1       3.820   7.185   1.037  0.00  0.00    +0.000 C 
BRANCH  24  25
ATOM     25  O   UNL     1       4.499   5.998   0.552  0.00  0.00    +0.000 OA
ATOM     26  H   UNL     1       3.980   5.655  -0.198  0.00  0.00    +0.000 HD
ENDBRANCH  24  25
BRANCH  24  27
ATOM     27  C   UNL     1       2.286   6.901   1.033  0.00  0.00    +0.000 C 
BRANCH  27  28
ATOM     28  N   UNL     1       1.957   5.812   1.956  0.00  0.00    +0.000 NA
ATOM     29  C   UNL     1       1.861   4.437   1.525  0.00  0.00    +0.000 C 
ATOM     30  C   UNL     1       2.552   3.476   2.502  0.00  0.00    +0.000 C 
ATOM     31  C   UNL     1       2.311   3.773   3.984  0.00  0.00    +0.000 C 
ATOM     32  C   UNL     1       2.254   5.261   4.326  0.00  0.00    +0.000 C 
ATOM     33  C   UNL     1       1.519   6.120   3.297  0.00  0.00    +0.000 C 
BRANCH  31  34
ATOM     34  O   UNL     1       1.146   3.111   4.481  0.00  0.00    +0.000 OA
ATOM     35  H   UNL     1       0.504   3.014   3.764  0.00  0.00    +0.000 HD
ENDBRANCH  31  34
ENDBRANCH  27  28
ENDBRANCH  24  27
ENDBRANCH  23  24
ENDBRANCH   4  23
TORSDOF 9
