REMARK  Name = 
REMARK  5 active torsions:
REMARK  status: ('A' for Active; 'I' for Inactive)
REMARK    1  A    between atoms: N_1  and  C_2
REMARK    2  A    between atoms: C_2  and  C_3
REMARK    3  A    between atoms: C_7  and  O_8
REMARK    4  A    between atoms: O_8  and  C_9
REMARK    5  A    between atoms: C_9  and  C_10
REMARK                            x       y       z     vdW  Elec       q    Type
REMARK                         _______ _______ _______ _____ _____    ______ ____
ROOT
ATOM      1  C   UNL     1       2.936   1.367  -0.124  0.00  0.00    +0.000 A 
ATOM      2  C   UNL     1       2.020   2.426  -0.071  0.00  0.00    +0.000 A 
ATOM      3  C   UNL     1       2.453   3.746  -0.205  0.00  0.00    +0.000 A 
ATOM      4  C   UNL     1       3.811   4.026  -0.373  0.00  0.00    +0.000 A 
ATOM      5  C   UNL     1       4.739   2.985  -0.393  0.00  0.00    +0.000 A 
ATOM      6  C   UNL     1       4.296   1.662  -0.298  0.00  0.00    +0.000 A 
ENDROOT
BRANCH   1   7
ATOM      7  C   UNL     1       2.480  -0.057   0.060  0.00  0.00    +0.000 C 
BRANCH   7   8
ATOM      8  N   UNL     1       1.472  -0.441  -0.922  0.00  0.00    +0.000 NA
ATOM      9  H   UNL     1       1.250  -1.427  -0.799  0.00  0.00    +0.000 HD
ATOM     10  H   UNL     1       1.878  -0.353  -1.853  0.00  0.00    +0.000 HD
ENDBRANCH   7   8
ENDBRANCH   1   7
BRANCH   5  11
ATOM     11  O   UNL     1       6.094   3.138  -0.508  0.00  0.00    +0.000 OA
BRANCH  11  12
ATOM     12  C   UNL     1       6.617   4.376  -0.012  0.00  0.00    +0.000 C 
BRANCH  12  13
ATOM     13  C   UNL     1       8.059   4.197   0.412  0.00  0.00    +0.000 A 
ATOM     14  N   UNL     1       9.029   4.441  -0.496  0.00  0.00    +0.000 NA
ATOM     15  C   UNL     1      10.299   4.290  -0.073  0.00  0.00    +0.000 A 
ATOM     16  C   UNL     1      10.636   3.920   1.208  0.00  0.00    +0.000 A 
ATOM     17  C   UNL     1       9.581   3.695   2.056  0.00  0.00    +0.000 A 
ATOM     18  N   UNL     1       8.293   3.829   1.692  0.00  0.00    +0.000 NA
ENDBRANCH  12  13
ENDBRANCH  11  12
ENDBRANCH   5  11
TORSDOF 5
