REMARK  Name = 
REMARK  5 active torsions:
REMARK  status: ('A' for Active; 'I' for Inactive)
REMARK    1  A    between atoms: C_2  and  C_4
REMARK    2  A    between atoms: C_7  and  N_8
REMARK    3  A    between atoms: N_8  and  C_9
REMARK    4  A    between atoms: C_9  and  C_10
REMARK    5  A    between atoms: C_14  and  C_15
REMARK                            x       y       z     vdW  Elec       q    Type
REMARK                         _______ _______ _______ _____ _____    ______ ____
ROOT
ATOM      1  C   UNL     1       4.857   5.780   1.461  0.00  0.00    +0.000 C 
ENDROOT
BRANCH   1   2
ATOM      2  C   UNL     1       5.785   6.973   1.413  0.00  0.00    +0.000 A 
ATOM      3  C   UNL     1       7.166   6.834   1.297  0.00  0.00    +0.000 A 
ATOM      4  C   UNL     1       7.937   7.982   1.217  0.00  0.00    +0.000 A 
ATOM      5  N   UNL     1       7.436   9.237   1.256  0.00  0.00    +0.000 NA
ATOM      6  C   UNL     1       6.094   9.380   1.383  0.00  0.00    +0.000 A 
ATOM      7  C   UNL     1       5.251   8.270   1.447  0.00  0.00    +0.000 A 
BRANCH   6   8
ATOM      8  C   UNL     1       5.590  10.768   1.446  0.00  0.00    +0.000 A 
ATOM      9  C   UNL     1       4.432  11.103   2.179  0.00  0.00    +0.000 A 
ATOM     10  C   UNL     1       3.945  12.413   2.226  0.00  0.00    +0.000 A 
ATOM     11  C   UNL     1       4.612  13.423   1.541  0.00  0.00    +0.000 A 
ATOM     12  C   UNL     1       5.761  13.114   0.826  0.00  0.00    +0.000 A 
ATOM     13  F   UNL     1       6.407  14.088   0.171  0.00  0.00    +0.000 F 
ATOM     14  C   UNL     1       6.253  11.811   0.776  0.00  0.00    +0.000 A 
ENDBRANCH   6   8
ENDBRANCH   1   2
BRANCH   1  15
ATOM     15  N   UNL     1       4.093   5.837   2.702  0.00  0.00    +0.000 N 
ATOM     16  H   UNL     1       4.640   5.529   3.500  0.00  0.00    +0.000 HD
BRANCH  15  20
ATOM     17  C   UNL     1       0.271   4.333   2.763  0.00  0.00    +0.000 A 
ATOM     18  C   UNL     1       1.054   4.223   1.625  0.00  0.00    +0.000 A 
ATOM     19  N   UNL     1       2.337   4.676   1.571  0.00  0.00    +0.000 NA
ATOM     20  C   UNL     1       2.828   5.242   2.694  0.00  0.00    +0.000 A 
ATOM     21  C   UNL     1       2.019   5.331   3.838  0.00  0.00    +0.000 A 
ATOM     22  N   UNL     1       0.737   4.886   3.914  0.00  0.00    +0.000 NA
BRANCH  17  24
ATOM     23  N   UNL     1      -1.864   4.074   3.883  0.00  0.00    +0.000 N 
ATOM     24  C   UNL     1      -1.143   3.866   2.738  0.00  0.00    +0.000 C 
ATOM     25  O   UNL     1      -1.639   3.338   1.752  0.00  0.00    +0.000 OA
ATOM     26  H   UNL     1      -2.843   3.827   3.901  0.00  0.00    +0.000 HD
ATOM     27  H   UNL     1      -1.449   4.574   4.662  0.00  0.00    +0.000 HD
ENDBRANCH  17  24
ENDBRANCH  15  20
ENDBRANCH   1  15
TORSDOF 5
