REMARK  Name = 
REMARK  9 active torsions:
REMARK  status: ('A' for Active; 'I' for Inactive)
REMARK    1  A    between atoms: C_1  and  C_2
REMARK    2  A    between atoms: C_5  and  O_6
REMARK    3  A    between atoms: O_6  and  C_7
REMARK    4  A    between atoms: C_9  and  C_10
REMARK    5  A    between atoms: C_10  and  C_11
REMARK    6  A    between atoms: C_16  and  O_17
REMARK    7  A    between atoms: O_17  and  C_18
REMARK    8  A    between atoms: C_18  and  C_19
REMARK    9  A    between atoms: C_19  and  C_22
REMARK                            x       y       z     vdW  Elec       q    Type
REMARK                         _______ _______ _______ _____ _____    ______ ____
ROOT
ATOM      1  C   UNL     1       4.333   2.474  -0.862  0.00  0.00    +0.000 A 
ATOM      2  C   UNL     1       4.829   1.324  -1.476  0.00  0.00    +0.000 A 
ATOM      3  C   UNL     1       5.433   1.403  -2.739  0.00  0.00    +0.000 A 
ATOM      4  C   UNL     1       5.554   2.651  -3.368  0.00  0.00    +0.000 A 
ATOM      5  C   UNL     1       5.079   3.809  -2.753  0.00  0.00    +0.000 A 
ATOM      6  C   UNL     1       4.475   3.714  -1.495  0.00  0.00    +0.000 A 
ENDROOT
BRANCH   1   7
ATOM      7  O   UNL     1       3.706   2.482   0.364  0.00  0.00    +0.000 OA
BRANCH   7  12
ATOM      8  C   UNL     1       2.522   0.836   3.349  0.00  0.00    +0.000 C 
ATOM      9  C   UNL     1       2.082   1.399   2.010  0.00  0.00    +0.000 C 
ATOM     10  N   UNL     1       1.161   0.466   1.318  0.00  0.00    +0.000 NA
ATOM     11  C   UNL     1       1.817   0.784   0.036  0.00  0.00    +0.000 C 
ATOM     12  C   UNL     1       3.070   1.257   0.814  0.00  0.00    +0.000 C 
ATOM     13  H   UNL     1       0.177   0.728   1.367  0.00  0.00    +0.000 HD
ENDBRANCH   7  12
ENDBRANCH   1   7
BRANCH   3  14
ATOM     14  C   UNL     1       5.911   0.157  -3.444  0.00  0.00    +0.000 C 
BRANCH  14  15
ATOM     15  C   UNL     1       4.855  -0.517  -4.313  0.00  0.00    +0.000 C 
ATOM     16  F   UNL     1       3.674   0.135  -4.327  0.00  0.00    +0.000 F 
ATOM     17  F   UNL     1       5.281  -0.601  -5.596  0.00  0.00    +0.000 F 
ATOM     18  F   UNL     1       4.617  -1.778  -3.884  0.00  0.00    +0.000 F 
ENDBRANCH  14  15
ENDBRANCH   3  14
BRANCH   5  19
ATOM     19  O   UNL     1       5.146   5.071  -3.289  0.00  0.00    +0.000 OA
BRANCH  19  20
ATOM     20  C   UNL     1       5.711   5.175  -4.605  0.00  0.00    +0.000 C 
BRANCH  20  21
ATOM     21  C   UNL     1       5.683   6.615  -5.139  0.00  0.00    +0.000 C 
ATOM     22  F   UNL     1       6.445   7.400  -4.321  0.00  0.00    +0.000 F 
ATOM     23  F   UNL     1       6.358   6.606  -6.334  0.00  0.00    +0.000 F 
BRANCH  21  24
ATOM     24  C   UNL     1       4.284   7.137  -5.307  0.00  0.00    +0.000 A 
ATOM     25  C   UNL     1       3.558   6.954  -6.490  0.00  0.00    +0.000 A 
ATOM     26  C   UNL     1       2.259   7.443  -6.584  0.00  0.00    +0.000 A 
ATOM     27  C   UNL     1       1.726   8.100  -5.488  0.00  0.00    +0.000 A 
ATOM     28  N   UNL     1       2.396   8.294  -4.333  0.00  0.00    +0.000 NA
ATOM     29  C   UNL     1       3.655   7.811  -4.266  0.00  0.00    +0.000 A 
ENDBRANCH  21  24
ENDBRANCH  20  21
ENDBRANCH  19  20
ENDBRANCH   5  19
TORSDOF 8
