REMARK  Name = 
REMARK  8 active torsions:
REMARK  status: ('A' for Active; 'I' for Inactive)
REMARK    1  A    between atoms: C_1  and  C_2
REMARK    2  A    between atoms: C_2  and  C_3
REMARK    3  A    between atoms: C_2  and  C_4
REMARK    4  A    between atoms: C_2  and  C_19
REMARK    5  A    between atoms: C_5  and  C_6
REMARK    6  A    between atoms: C_10  and  N_11
REMARK    7  A    between atoms: C_14  and  O_15
REMARK    8  A    between atoms: C_22  and  C_23
REMARK                            x       y       z     vdW  Elec       q    Type
REMARK                         _______ _______ _______ _____ _____    ______ ____
ROOT
ATOM      1  C   UNL     1       3.186   2.226   3.113  0.00  0.00    +0.000 A 
ATOM      2  C   UNL     1       4.518   1.975   3.410  0.00  0.00    +0.000 A 
ATOM      3  C   UNL     1       5.043   2.516   4.569  0.00  0.00    +0.000 A 
ATOM      4  C   UNL     1       4.222   3.284   5.380  0.00  0.00    +0.000 A 
ATOM      5  C   UNL     1       2.886   3.508   5.038  0.00  0.00    +0.000 A 
ATOM      6  N   UNL     1       2.383   2.986   3.896  0.00  0.00    +0.000 NA
ENDROOT
BRANCH   5   7
ATOM      7  N   UNL     1       2.064   4.273   5.840  0.00  0.00    +0.000 N 
ATOM      8  C   UNL     1       0.939   4.988   5.250  0.00  0.00    +0.000 C 
ATOM      9  C   UNL     1      -0.360   4.583   5.938  0.00  0.00    +0.000 C 
ATOM     10  C   UNL     1      -0.259   4.684   7.460  0.00  0.00    +0.000 C 
ATOM     11  C   UNL     1       0.972   3.965   8.004  0.00  0.00    +0.000 C 
ATOM     12  C   UNL     1       2.252   4.375   7.281  0.00  0.00    +0.000 C 
BRANCH  10  13
ATOM     13  O   UNL     1      -0.262   6.049   7.881  0.00  0.00    +0.000 OA
ATOM     14  H   UNL     1       0.525   6.492   7.522  0.00  0.00    +0.000 HD
ENDBRANCH  10  13
ENDBRANCH   5   7
BRANCH   1  16
ATOM     15  C   UNL     1       1.338   1.785   1.479  0.00  0.00    +0.000 C 
ATOM     16  C   UNL     1       2.616   1.663   1.880  0.00  0.00    +0.000 C 
BRANCH  15  18
ATOM     17  C   UNL     1       1.770   0.460  -0.668  0.00  0.00    +0.000 C 
ATOM     18  C   UNL     1       0.737   1.238   0.176  0.00  0.00    +0.000 C 
ATOM     19  C   UNL     1      -0.377   0.243   0.579  0.00  0.00    +0.000 C 
BRANCH  18  20
ATOM     20  C   UNL     1       0.146   2.366  -0.700  0.00  0.00    +0.000 A 
ATOM     21  C   UNL     1       0.707   3.648  -0.722  0.00  0.00    +0.000 A 
ATOM     22  C   UNL     1       0.136   4.639  -1.524  0.00  0.00    +0.000 A 
ATOM     23  C   UNL     1      -0.974   4.334  -2.306  0.00  0.00    +0.000 A 
ATOM     24  C   UNL     1      -1.455   3.039  -2.260  0.00  0.00    +0.000 A 
ATOM     25  N   UNL     1      -0.919   2.060  -1.489  0.00  0.00    +0.000 NA
BRANCH  23  26
ATOM     26  C   UNL     1      -1.598   5.317  -3.132  0.00  0.00    +0.000 C 
ATOM     27  N   UNL     1      -2.104   6.119  -3.805  0.00  0.00    +0.000 NA
ENDBRANCH  23  26
ENDBRANCH  18  20
ENDBRANCH  15  18
ENDBRANCH   1  16
TORSDOF 6
