REMARK  Name = 
REMARK  6 active torsions:
REMARK  status: ('A' for Active; 'I' for Inactive)
REMARK    1  A    between atoms: C_1  and  N_2
REMARK    2  A    between atoms: C_3  and  C_5
REMARK    3  A    between atoms: C_8  and  C_9
REMARK    4  A    between atoms: C_9  and  C_10
REMARK    5  A    between atoms: C_9  and  C_11
REMARK    6  A    between atoms: C_9  and  N_12
REMARK                            x       y       z     vdW  Elec       q    Type
REMARK                         _______ _______ _______ _____ _____    ______ ____
ROOT
ATOM      1  C   UNL     1       4.584   1.143  -0.628  0.00  0.00    +0.000 A 
ATOM      2  C   UNL     1       5.235   0.695   0.506  0.00  0.00    +0.000 A 
ATOM      3  N   UNL     1       6.591   0.667   0.602  0.00  0.00    +0.000 NA
ATOM      4  C   UNL     1       7.302   1.122  -0.471  0.00  0.00    +0.000 A 
ATOM      5  C   UNL     1       6.613   1.537  -1.622  0.00  0.00    +0.000 A 
ATOM      6  N   UNL     1       5.259   1.568  -1.732  0.00  0.00    +0.000 NA
ENDROOT
BRANCH   1   9
ATOM      7  C   UNL     1       1.155   1.803  -2.068  0.00  0.00    +0.000 C 
ATOM      8  N   UNL     1       2.571   1.675  -1.856  0.00  0.00    +0.000 N 
ATOM      9  C   UNL     1       3.095   1.197  -0.673  0.00  0.00    +0.000 C 
ATOM     10  O   UNL     1       2.415   0.843   0.283  0.00  0.00    +0.000 OA
ATOM     11  H   UNL     1       3.232   1.942  -2.581  0.00  0.00    +0.000 HD
ENDBRANCH   1   9
BRANCH   4  12
ATOM     12  C   UNL     1       8.854   1.187  -0.379  0.00  0.00    +0.000 C 
ATOM     13  C   UNL     1       9.372   2.397  -1.192  0.00  0.00    +0.000 C 
ATOM     14  C   UNL     1       9.233   1.370   1.109  0.00  0.00    +0.000 C 
BRANCH  12  15
ATOM     15  N   UNL     1       9.402  -0.092  -0.901  0.00  0.00    +0.000 N 
ATOM     16  C   UNL     1      10.780  -0.319  -0.946  0.00  0.00    +0.000 A 
ATOM     17  C   UNL     1      11.245  -1.555  -1.390  0.00  0.00    +0.000 A 
ATOM     18  C   UNL     1      12.619  -1.808  -1.425  0.00  0.00    +0.000 A 
ATOM     19  C   UNL     1      13.504  -0.828  -1.006  0.00  0.00    +0.000 A 
ATOM     20  C   UNL     1      12.970   0.363  -0.563  0.00  0.00    +0.000 A 
ATOM     21  N   UNL     1      11.646   0.620  -0.526  0.00  0.00    +0.000 NA
ATOM     22  H   UNL     1       8.975  -0.382  -1.774  0.00  0.00    +0.000 HD
ENDBRANCH  12  15
ENDBRANCH   4  12
TORSDOF 3
