REMARK  Name = 
REMARK  7 active torsions:
REMARK  status: ('A' for Active; 'I' for Inactive)
REMARK    1  A    between atoms: C_2  and  C_4
REMARK    2  A    between atoms: C_8  and  O_9
REMARK    3  A    between atoms: O_9  and  C_10
REMARK    4  A    between atoms: C_10  and  C_11
REMARK    5  A    between atoms: C_15  and  C_16
REMARK    6  A    between atoms: C_20  and  O_21
REMARK    7  A    between atoms: O_21  and  C_22
REMARK                            x       y       z     vdW  Elec       q    Type
REMARK                         _______ _______ _______ _____ _____    ______ ____
ROOT
ATOM      1  C   UNL     1       2.137   5.801   3.197  0.00  0.00    +0.000 A 
ATOM      2  C   UNL     1       3.000   6.474   4.075  0.00  0.00    +0.000 A 
ATOM      3  C   UNL     1       2.975   7.861   4.197  0.00  0.00    +0.000 A 
ATOM      4  C   UNL     1       2.092   8.610   3.422  0.00  0.00    +0.000 A 
ATOM      5  C   UNL     1       1.207   7.991   2.523  0.00  0.00    +0.000 A 
ATOM      6  C   UNL     1       1.229   6.585   2.462  0.00  0.00    +0.000 A 
ENDROOT
BRANCH   5   7
ATOM      7  C   UNL     1       0.333   8.779   1.626  0.00  0.00    +0.000 A 
ATOM      8  C   UNL     1      -0.939   8.322   1.239  0.00  0.00    +0.000 A 
ATOM      9  C   UNL     1      -1.731   9.048   0.345  0.00  0.00    +0.000 A 
ATOM     10  C   UNL     1      -1.284  10.268  -0.158  0.00  0.00    +0.000 A 
ATOM     11  C   UNL     1      -0.048  10.766   0.245  0.00  0.00    +0.000 A 
ATOM     12  C   UNL     1       0.763  10.008   1.094  0.00  0.00    +0.000 A 
BRANCH  11  13
ATOM     13  O   UNL     1       0.488  11.959  -0.154  0.00  0.00    +0.000 OA
BRANCH  13  14
ATOM     14  C   UNL     1      -0.463  12.986  -0.381  0.00  0.00    +0.000 C 
ATOM     15  F   UNL     1       0.155  14.169  -0.131  0.00  0.00    +0.000 F 
ATOM     16  F   UNL     1      -0.790  12.985  -1.696  0.00  0.00    +0.000 F 
ENDBRANCH  13  14
ENDBRANCH  11  13
ENDBRANCH   5   7
BRANCH   1  17
ATOM     17  C   UNL     1       2.238   4.299   2.984  0.00  0.00    +0.000 C 
ATOM     18  C   UNL     1       2.142   3.743   1.561  0.00  0.00    +0.000 C 
ATOM     19  C   UNL     1       3.459   3.778   2.255  0.00  0.00    +0.000 C 
BRANCH  17  20
ATOM     20  O   UNL     1       1.514   3.440   3.893  0.00  0.00    +0.000 OA
BRANCH  20  25
ATOM     21  C   UNL     1       1.820   2.200   7.267  0.00  0.00    +0.000 A 
ATOM     22  C   UNL     1       3.116   2.593   7.547  0.00  0.00    +0.000 A 
ATOM     23  N   UNL     1       3.881   3.222   6.632  0.00  0.00    +0.000 NA
ATOM     24  N   UNL     1       3.362   3.498   5.396  0.00  0.00    +0.000 NA
ATOM     25  C   UNL     1       2.083   3.172   5.124  0.00  0.00    +0.000 A 
ATOM     26  C   UNL     1       1.277   2.514   6.027  0.00  0.00    +0.000 A 
BRANCH  21  28
ATOM     27  N   UNL     1       0.113   0.580   7.853  0.00  0.00    +0.000 N 
ATOM     28  C   UNL     1       1.060   1.465   8.293  0.00  0.00    +0.000 C 
ATOM     29  O   UNL     1       1.304   1.602   9.483  0.00  0.00    +0.000 OA
ATOM     30  H   UNL     1      -0.326   0.001   8.559  0.00  0.00    +0.000 HD
ATOM     31  H   UNL     1       0.069   0.259   6.897  0.00  0.00    +0.000 HD
ENDBRANCH  21  28
ENDBRANCH  20  25
ENDBRANCH  17  20
ENDBRANCH   1  17
TORSDOF 7
