REMARK  Name = 
REMARK  4 active torsions:
REMARK  status: ('A' for Active; 'I' for Inactive)
REMARK    1  A    between atoms: N_1  and  S_2
REMARK    2  A    between atoms: S_2  and  C_5
REMARK    3  A    between atoms: N_9  and  C_10
REMARK    4  A    between atoms: C_10  and  C_11
REMARK                            x       y       z     vdW  Elec       q    Type
REMARK                         _______ _______ _______ _____ _____    ______ ____
ROOT
ATOM      1  C   UNL     1       3.332   0.720   1.208  0.00  0.00    +0.000 A 
ATOM      2  C   UNL     1       2.860   2.025   1.315  0.00  0.00    +0.000 A 
ATOM      3  C   UNL     1       3.089   2.726   2.504  0.00  0.00    +0.000 A 
ATOM      4  C   UNL     1       3.759   2.100   3.547  0.00  0.00    +0.000 A 
ATOM      5  N   UNL     1       3.907   2.631   4.819  0.00  0.00    +0.000 N 
ATOM      6  N   UNL     1       4.240   0.841   3.425  0.00  0.00    +0.000 NA
ATOM      7  C   UNL     1       4.025   0.176   2.268  0.00  0.00    +0.000 A 
ATOM      8  H   UNL     1       4.456   1.971   5.366  0.00  0.00    +0.000 HD
ENDROOT
BRANCH   1   9
ATOM      9  S   UNL     1       3.085  -0.246  -0.223  0.00  0.00    +0.000 S 
ATOM     10  O   UNL     1       1.656  -0.306  -0.502  0.00  0.00    +0.000 OA
ATOM     11  O   UNL     1       3.907  -1.430  -0.159  0.00  0.00    +0.000 OA
BRANCH   9  12
ATOM     12  N   UNL     1       3.761   0.701  -1.428  0.00  0.00    +0.000 NA
ATOM     13  H   UNL     1       3.131   0.734  -2.230  0.00  0.00    +0.000 HD
ATOM     14  H   UNL     1       4.697   0.354  -1.667  0.00  0.00    +0.000 HD
ENDBRANCH   9  12
ENDBRANCH   1   9
BRANCH   5  15
ATOM     15  C   UNL     1       4.005   4.037   5.218  0.00  0.00    +0.000 C 
ATOM     16  C   UNL     1       3.000   4.387   6.331  0.00  0.00    +0.000 C 
ATOM     17  C   UNL     1       2.947   5.121   5.044  0.00  0.00    +0.000 C 
BRANCH  15  18
ATOM     18  C   UNL     1       5.432   4.599   5.278  0.00  0.00    +0.000 A 
ATOM     19  C   UNL     1       5.989   5.164   4.132  0.00  0.00    +0.000 A 
ATOM     20  C   UNL     1       7.151   5.913   4.246  0.00  0.00    +0.000 A 
ATOM     21 CL   UNL     1       7.771   6.735   2.868  0.00  0.00    +0.000 Cl
ATOM     22  C   UNL     1       7.778   6.050   5.473  0.00  0.00    +0.000 A 
ATOM     23  C   UNL     1       7.216   5.392   6.547  0.00  0.00    +0.000 A 
ATOM     24  N   UNL     1       6.070   4.679   6.477  0.00  0.00    +0.000 NA
ENDBRANCH  15  18
ENDBRANCH   5  15
TORSDOF 4
