REMARK  Name = 
REMARK  8 active torsions:
REMARK  status: ('A' for Active; 'I' for Inactive)
REMARK    1  A    between atoms: C_1  and  O_2
REMARK    2  A    between atoms: O_2  and  C_3
REMARK    3  A    between atoms: C_5  and  C_6
REMARK    4  A    between atoms: C_6  and  N_7
REMARK    5  A    between atoms: C_8  and  C_10
REMARK    6  A    between atoms: C_22  and  C_23
REMARK    7  A    between atoms: C_23  and  N_24
REMARK    8  A    between atoms: C_25  and  C_27
REMARK                            x       y       z     vdW  Elec       q    Type
REMARK                         _______ _______ _______ _____ _____    ______ ____
ROOT
ATOM      1  C   UNL     1       3.131  -0.818  -0.671  0.00  0.00    +0.000 A 
ATOM      2  C   UNL     1       2.816  -0.869  -2.050  0.00  0.00    +0.000 A 
ATOM      3  C   UNL     1       3.534  -1.692  -2.939  0.00  0.00    +0.000 A 
ATOM      4  C   UNL     1       4.598  -2.432  -2.429  0.00  0.00    +0.000 A 
ATOM      5  C   UNL     1       4.884  -2.426  -1.056  0.00  0.00    +0.000 A 
ATOM      6  C   UNL     1       4.139  -1.650  -0.149  0.00  0.00    +0.000 A 
ENDROOT
BRANCH   1   8
ATOM      7  C   UNL     1       2.958   0.730   1.133  0.00  0.00    +0.000 C 
ATOM      8  O   UNL     1       2.334   0.034   0.056  0.00  0.00    +0.000 OA
ENDBRANCH   1   8
BRANCH   3   9
ATOM      9  C   UNL     1       3.207  -1.766  -4.416  0.00  0.00    +0.000 C 
BRANCH   9  10
ATOM     10  N   UNL     1       3.965  -0.799  -5.174  0.00  0.00    +0.000 N 
ATOM     11  C   UNL     1       3.793  -0.627  -6.522  0.00  0.00    +0.000 C 
ATOM     12  O   UNL     1       2.974  -1.274  -7.169  0.00  0.00    +0.000 OA
ATOM     13  H   UNL     1       4.818  -0.458  -4.743  0.00  0.00    +0.000 HD
BRANCH  11  14
ATOM     14  C   UNL     1       4.600   0.432  -7.151  0.00  0.00    +0.000 A 
ATOM     15  C   UNL     1       4.166   1.034  -8.322  0.00  0.00    +0.000 A 
ATOM     16  S   UNL     1       5.197   2.280  -8.871  0.00  0.00    +0.000 S 
ATOM     17  C   UNL     1       6.291   2.019  -7.591  0.00  0.00    +0.000 A 
ATOM     18  N   UNL     1       7.431   2.748  -7.490  0.00  0.00    +0.000 NA
ATOM     19  C   UNL     1       8.177   2.436  -6.483  0.00  0.00    +0.000 A 
ATOM     20  N   UNL     1       7.870   1.456  -5.562  0.00  0.00    +0.000 N 
ATOM     21  C   UNL     1       6.728   0.708  -5.620  0.00  0.00    +0.000 A 
ATOM     22  O   UNL     1       6.475  -0.132  -4.766  0.00  0.00    +0.000 OA
ATOM     23  C   UNL     1       5.860   1.018  -6.745  0.00  0.00    +0.000 A 
ATOM     24  H   UNL     1       8.491   1.266  -4.793  0.00  0.00    +0.000 HD
ENDBRANCH  11  14
ENDBRANCH   9  10
ENDBRANCH   3   9
BRANCH   6  25
ATOM     25  C   UNL     1       4.466  -1.803   1.321  0.00  0.00    +0.000 C 
BRANCH  25  26
ATOM     26  N   UNL     1       3.327  -2.246   2.097  0.00  0.00    +0.000 N 
ATOM     27  C   UNL     1       3.361  -2.393   3.468  0.00  0.00    +0.000 C 
ATOM     28  O   UNL     1       4.346  -2.116   4.145  0.00  0.00    +0.000 OA
ATOM     29  H   UNL     1       2.412  -2.286   1.653  0.00  0.00    +0.000 HD
BRANCH  27  30
ATOM     30  C   UNL     1       2.020  -2.905   4.067  0.00  0.00    +0.000 C 
ATOM     31  C   UNL     1       2.204  -3.700   5.364  0.00  0.00    +0.000 C 
ATOM     32  C   UNL     1       2.833  -5.062   5.081  0.00  0.00    +0.000 C 
ATOM     33  C   UNL     1       2.034  -5.797   4.011  0.00  0.00    +0.000 C 
ATOM     34  C   UNL     1       1.814  -4.916   2.791  0.00  0.00    +0.000 C 
ATOM     35  O   UNL     1       1.229  -3.659   3.140  0.00  0.00    +0.000 OA
ENDBRANCH  27  30
ENDBRANCH  25  26
ENDBRANCH   6  25
TORSDOF 7
