REMARK  Name = 
REMARK  9 active torsions:
REMARK  status: ('A' for Active; 'I' for Inactive)
REMARK    1  A    between atoms: C_1  and  O_2
REMARK    2  A    between atoms: O_2  and  C_3
REMARK    3  A    between atoms: C_10  and  C_11
REMARK    4  A    between atoms: N_13  and  C_14
REMARK    5  A    between atoms: C_14  and  C_15
REMARK    6  A    between atoms: C_18  and  C_19
REMARK    7  A    between atoms: C_19  and  O_20
REMARK    8  A    between atoms: O_20  and  C_21
REMARK    9  A    between atoms: C_21  and  C_22
REMARK                            x       y       z     vdW  Elec       q    Type
REMARK                         _______ _______ _______ _____ _____    ______ ____
ROOT
ATOM      1  C   UNL     1       2.963  -0.545   3.297  0.00  0.00    +0.000 C 
ENDROOT
BRANCH   1   2
ATOM      2  C   UNL     1       1.858   0.485   3.308  0.00  0.00    +0.000 A 
ATOM      3  C   UNL     1       0.527   0.080   3.362  0.00  0.00    +0.000 A 
ATOM      4  C   UNL     1      -0.477   1.046   3.344  0.00  0.00    +0.000 A 
ATOM      5  C   UNL     1      -0.139   2.398   3.275  0.00  0.00    +0.000 A 
ATOM      6  C   UNL     1       1.217   2.709   3.244  0.00  0.00    +0.000 A 
ATOM      7  N   UNL     1       2.217   1.794   3.272  0.00  0.00    +0.000 NA
BRANCH   5   8
ATOM      8  C   UNL     1      -1.179   3.483   3.250  0.00  0.00    +0.000 C 
BRANCH   8   9
ATOM      9  O   UNL     1      -1.029   4.240   2.052  0.00  0.00    +0.000 OA
BRANCH   9  10
ATOM     10  C   UNL     1      -1.986   5.296   1.955  0.00  0.00    +0.000 C 
BRANCH  10  11
ATOM     11  C   UNL     1      -1.790   6.070   0.672  0.00  0.00    +0.000 A 
ATOM     12  C   UNL     1      -1.317   5.446  -0.492  0.00  0.00    +0.000 A 
ATOM     13  C   UNL     1      -1.184   6.160  -1.685  0.00  0.00    +0.000 A 
ATOM     14  C   UNL     1      -1.537   7.506  -1.734  0.00  0.00    +0.000 A 
ATOM     15  C   UNL     1      -2.017   8.140  -0.591  0.00  0.00    +0.000 A 
ATOM     16  C   UNL     1      -2.147   7.427   0.604  0.00  0.00    +0.000 A 
ENDBRANCH  10  11
ENDBRANCH   9  10
ENDBRANCH   8   9
ENDBRANCH   5   8
ENDBRANCH   1   2
BRANCH   1  19
ATOM     17  C   UNL     1       2.885  -1.956   5.325  0.00  0.00    +0.000 C 
ATOM     18  O   UNL     1       2.011  -2.677   4.844  0.00  0.00    +0.000 OA
ATOM     19  N   UNL     1       3.395  -0.897   4.631  0.00  0.00    +0.000 N 
ATOM     20  H   UNL     1       3.967  -0.211   5.106  0.00  0.00    +0.000 HD
BRANCH  17  28
ATOM     21  C   UNL     1       5.376  -0.477   7.173  0.00  0.00    +0.000 A 
ATOM     22  N   UNL     1       6.300  -0.111   8.085  0.00  0.00    +0.000 NA
ATOM     23  C   UNL     1       6.375  -0.811   9.220  0.00  0.00    +0.000 A 
ATOM     24  N   UNL     1       5.627  -1.852   9.569  0.00  0.00    +0.000 NA
ATOM     25  C   UNL     1       4.713  -2.180   8.637  0.00  0.00    +0.000 A 
ATOM     26  S   UNL     1       3.666  -3.486   8.915  0.00  0.00    +0.000 S 
ATOM     27  C   UNL     1       2.913  -3.267   7.407  0.00  0.00    +0.000 A 
ATOM     28  C   UNL     1       3.433  -2.211   6.667  0.00  0.00    +0.000 A 
ATOM     29  C   UNL     1       4.504  -1.555   7.411  0.00  0.00    +0.000 A 
BRANCH  21  31
ATOM     30  C   UNL     1       6.499   0.922   5.682  0.00  0.00    +0.000 C 
ATOM     31  O   UNL     1       5.275   0.276   6.024  0.00  0.00    +0.000 OA
ENDBRANCH  21  31
ENDBRANCH  17  28
ENDBRANCH   1  19
TORSDOF 8
