REMARK  Name = 
REMARK  5 active torsions:
REMARK  status: ('A' for Active; 'I' for Inactive)
REMARK    1  A    between atoms: C_1  and  C_2
REMARK    2  A    between atoms: C_2  and  C_3
REMARK    3  A    between atoms: C_2  and  C_14
REMARK    4  A    between atoms: C_3  and  N_4
REMARK    5  A    between atoms: C_9  and  C_10
REMARK                            x       y       z     vdW  Elec       q    Type
REMARK                         _______ _______ _______ _____ _____    ______ ____
ROOT
ATOM      1  N   UNL     1       2.715  -0.081  -2.464  0.00  0.00    +0.000 N 
ATOM      2  C   UNL     1       3.739  -0.631  -3.213  0.00  0.00    +0.000 A 
ATOM      3  N   UNL     1       3.496  -0.749  -4.526  0.00  0.00    +0.000 NA
ATOM      4  C   UNL     1       4.462  -1.293  -5.293  0.00  0.00    +0.000 A 
ATOM      5  C   UNL     1       5.667  -1.711  -4.800  0.00  0.00    +0.000 A 
ATOM      6  C   UNL     1       5.818  -1.540  -3.444  0.00  0.00    +0.000 A 
ATOM      7  N   UNL     1       4.877  -1.009  -2.628  0.00  0.00    +0.000 NA
ATOM      8  H   UNL     1       2.095   0.378  -3.126  0.00  0.00    +0.000 HD
ENDROOT
BRANCH   6   9
ATOM      9  C   UNL     1       7.098  -1.953  -2.788  0.00  0.00    +0.000 C 
ATOM     10  N   UNL     1       7.173  -1.720  -1.443  0.00  0.00    +0.000 N 
ATOM     11  O   UNL     1       8.014  -2.469  -3.408  0.00  0.00    +0.000 OA
ATOM     12  H   UNL     1       6.378  -1.323  -0.955  0.00  0.00    +0.000 HD
ATOM     13  H   UNL     1       7.990  -2.020  -0.935  0.00  0.00    +0.000 HD
ENDBRANCH   6   9
BRANCH   1  14
ATOM     14  C   UNL     1       3.094   0.718  -1.314  0.00  0.00    +0.000 C 
BRANCH  14  16
ATOM     15  C   UNL     1       1.048  -0.020  -0.004  0.00  0.00    +0.000 C 
ATOM     16  C   UNL     1       2.583   0.076  -0.005  0.00  0.00    +0.000 C 
BRANCH  16  17
ATOM     17  C   UNL     1       3.082   0.809   1.278  0.00  0.00    +0.000 C 
ATOM     18  C   UNL     1       2.570   2.255   1.400  0.00  0.00    +0.000 C 
ATOM     19  C   UNL     1       3.150   2.946   2.627  0.00  0.00    +0.000 C 
ATOM     20  O   UNL     1       4.575   2.903   2.601  0.00  0.00    +0.000 OA
ATOM     21  C   UNL     1       5.068   1.566   2.645  0.00  0.00    +0.000 C 
ATOM     22  C   UNL     1       4.616   0.789   1.416  0.00  0.00    +0.000 C 
ENDBRANCH  16  17
ENDBRANCH  14  16
ENDBRANCH   1  14
TORSDOF 4
