REMARK  Name = 
REMARK  5 active torsions:
REMARK  status: ('A' for Active; 'I' for Inactive)
REMARK    1  A    between atoms: C_4  and  O_5
REMARK    2  A    between atoms: O_5  and  C_6
REMARK    3  A    between atoms: C_6  and  C_7
REMARK    4  A    between atoms: C_7  and  C_8
REMARK    5  A    between atoms: N_13  and  C_14
REMARK                            x       y       z     vdW  Elec       q    Type
REMARK                         _______ _______ _______ _____ _____    ______ ____
ROOT
ATOM      1  C   UNL     1      -0.596  -6.077   0.168  0.00  0.00    +0.000 A 
ATOM      2  C   UNL     1       0.788  -6.061   0.201  0.00  0.00    +0.000 A 
ATOM      3  C   UNL     1       1.419  -7.278   0.261  0.00  0.00    +0.000 A 
ATOM      4  N   UNL     1       0.766  -8.449   0.277  0.00  0.00    +0.000 NA
ATOM      5  C   UNL     1      -0.570  -8.388   0.235  0.00  0.00    +0.000 A 
ATOM      6  N   UNL     1      -1.215  -9.622   0.213  0.00  0.00    +0.000 N 
ATOM      7  N   UNL     1      -1.278  -7.245   0.198  0.00  0.00    +0.000 NA
ATOM      8  H   UNL     1      -0.517 -10.324   0.443  0.00  0.00    +0.000 HD
ENDROOT
BRANCH   6   9
ATOM      9  C   UNL     1      -2.527  -9.840   0.723  0.00  0.00    +0.000 C 
ATOM     10  C   UNL     1      -2.562 -10.303   2.197  0.00  0.00    +0.000 C 
ATOM     11  N   UNL     1      -3.569 -11.327   1.819  0.00  0.00    +0.000 NA
ATOM     12  C   UNL     1      -3.064 -11.257   0.424  0.00  0.00    +0.000 C 
ATOM     13  H   UNL     1      -4.529 -10.989   1.908  0.00  0.00    +0.000 HD
ENDBRANCH   6   9
BRANCH   1  14
ATOM     14  C   UNL     1      -1.431  -4.811   0.085  0.00  0.00    +0.000 C 
BRANCH  14  15
ATOM     15  C   UNL     1      -0.599  -3.529   0.051  0.00  0.00    +0.000 C 
BRANCH  15  16
ATOM     16  O   UNL     1      -1.392  -2.339  -0.015  0.00  0.00    +0.000 OA
BRANCH  16  20
ATOM     17  C   UNL     1       1.027   1.004  -0.071  0.00  0.00    +0.000 A 
ATOM     18  C   UNL     1      -0.356   1.154  -0.114  0.00  0.00    +0.000 A 
ATOM     19  C   UNL     1      -1.174   0.024  -0.096  0.00  0.00    +0.000 A 
ATOM     20  C   UNL     1      -0.567  -1.219  -0.034  0.00  0.00    +0.000 A 
ATOM     21  N   UNL     1       0.777  -1.386   0.008  0.00  0.00    +0.000 NA
ATOM     22  C   UNL     1       1.542  -0.277  -0.011  0.00  0.00    +0.000 A 
ENDBRANCH  16  20
ENDBRANCH  15  16
ENDBRANCH  14  15
ENDBRANCH   1  14
TORSDOF 5
