REMARK  Name = 
REMARK  6 active torsions:
REMARK  status: ('A' for Active; 'I' for Inactive)
REMARK    1  A    between atoms: O_1  and  C_2
REMARK    2  A    between atoms: C_2  and  C_3
REMARK    3  A    between atoms: C_3  and  C_4
REMARK    4  A    between atoms: C_4  and  C_5
REMARK    5  A    between atoms: N_7  and  C_8
REMARK    6  A    between atoms: C_8  and  C_9
REMARK                            x       y       z     vdW  Elec       q    Type
REMARK                         _______ _______ _______ _____ _____    ______ ____
ROOT
ATOM      1  C   UNL     1       4.981   2.749   0.310  0.00  0.00    +0.000 A 
ATOM      2  C   UNL     1       4.287   3.885  -0.049  0.00  0.00    +0.000 A 
ATOM      3  N   UNL     1       5.017   4.981   0.340  0.00  0.00    +0.000 N 
ATOM      4  C   UNL     1       6.212   4.581   0.903  0.00  0.00    +0.000 A 
ATOM      5  C   UNL     1       7.287   5.322   1.412  0.00  0.00    +0.000 A 
ATOM      6  C   UNL     1       8.383   4.630   1.936  0.00  0.00    +0.000 A 
ATOM      7  C   UNL     1       8.402   3.238   1.952  0.00  0.00    +0.000 A 
ATOM      8  C   UNL     1       7.328   2.506   1.440  0.00  0.00    +0.000 A 
ATOM      9  C   UNL     1       6.210   3.180   0.903  0.00  0.00    +0.000 A 
ENDROOT
BRANCH   1  10
ATOM     10  C   UNL     1       4.518   1.337   0.104  0.00  0.00    +0.000 C 
BRANCH  10  11
ATOM     11  C   UNL     1       4.357   0.954  -1.364  0.00  0.00    +0.000 C 
BRANCH  11  12
ATOM     12  C   UNL     1       5.664   1.019  -2.140  0.00  0.00    +0.000 C 
BRANCH  12  13
ATOM     13  O   UNL     1       5.420   0.604  -3.479  0.00  0.00    +0.000 OA
ATOM     14  H   UNL     1       6.248   0.747  -3.971  0.00  0.00    +0.000 HD
ENDBRANCH  12  13
ENDBRANCH  11  12
ENDBRANCH  10  11
ENDBRANCH   1  10
BRANCH   3  15
ATOM     15  C   UNL     1       4.549   6.357   0.218  0.00  0.00    +0.000 C 
BRANCH  15  16
ATOM     16  C   UNL     1       5.070   7.009  -1.031  0.00  0.00    +0.000 A 
ATOM     17  C   UNL     1       4.695   6.552  -2.293  0.00  0.00    +0.000 A 
ATOM     18  N   UNL     1       5.173   7.084  -3.443  0.00  0.00    +0.000 NA
ATOM     19  C   UNL     1       6.048   8.099  -3.287  0.00  0.00    +0.000 A 
ATOM     20  C   UNL     1       6.407   8.584  -2.041  0.00  0.00    +0.000 A 
ATOM     21  N   UNL     1       5.924   8.059  -0.892  0.00  0.00    +0.000 NA
ENDBRANCH  15  16
ENDBRANCH   3  15
TORSDOF 6
