REMARK  Name = 
REMARK  3 active torsions:
REMARK  status: ('A' for Active; 'I' for Inactive)
REMARK    1  A    between atoms: C_13  and  C_14
REMARK    2  A    between atoms: C_14  and  C_15
REMARK    3  A    between atoms: C_15  and  N_16
REMARK                            x       y       z     vdW  Elec       q    Type
REMARK                         _______ _______ _______ _____ _____    ______ ____
ROOT
ATOM      1 CL   UNL     1       2.076  -0.657  -0.017  0.00  0.00    +0.000 Cl
ATOM      2  C   UNL     1       0.387  -0.311  -0.012  0.00  0.00    +0.000 A 
ATOM      3  C   UNL     1      -0.421  -1.443   0.008  0.00  0.00    +0.000 A 
ATOM      4  C   UNL     1      -1.801  -1.315   0.031  0.00  0.00    +0.000 A 
ATOM      5  C   UNL     1      -2.383  -0.055   0.047  0.00  0.00    +0.000 A 
ATOM      6  N   UNL     1      -3.752   0.077   0.116  0.00  0.00    +0.000 N 
ATOM      7  C   UNL     1      -4.350   1.274   0.691  0.00  0.00    +0.000 C 
ATOM      8  C   UNL     1      -5.351   0.835   1.769  0.00  0.00    +0.000 C 
ATOM      9  C   UNL     1      -6.355  -0.196   1.242  0.00  0.00    +0.000 C 
ATOM     10  C   UNL     1      -5.651  -1.366   0.552  0.00  0.00    +0.000 C 
ATOM     11  C   UNL     1      -4.676  -0.862  -0.509  0.00  0.00    +0.000 C 
ATOM     12  N   UNL     1      -1.598   1.051   0.041  0.00  0.00    +0.000 NA
ATOM     13  C   UNL     1      -0.227   0.947  -0.006  0.00  0.00    +0.000 A 
ENDROOT
BRANCH  13  14
ATOM     14  C   UNL     1       0.457   2.310  -0.058  0.00  0.00    +0.000 C 
BRANCH  14  15
ATOM     15  C   UNL     1       1.983   2.343  -0.083  0.00  0.00    +0.000 C 
BRANCH  15  16
ATOM     16  N   UNL     1       2.556   3.685  -0.152  0.00  0.00    +0.000 N 
ATOM     17  C   UNL     1       3.959   3.616  -0.198  0.00  0.00    +0.000 A 
ATOM     18  N   UNL     1       4.552   2.561  -0.783  0.00  0.00    +0.000 NA
ATOM     19  C   UNL     1       5.894   2.496  -0.748  0.00  0.00    +0.000 A 
ATOM     20  C   UNL     1       6.674   3.457  -0.166  0.00  0.00    +0.000 A 
ATOM     21  C   UNL     1       5.981   4.504   0.398  0.00  0.00    +0.000 A 
ATOM     22  N   UNL     1       4.634   4.598   0.404  0.00  0.00    +0.000 NA
ATOM     23  H   UNL     1       2.345   4.302   0.627  0.00  0.00    +0.000 HD
ENDBRANCH  15  16
ENDBRANCH  14  15
ENDBRANCH  13  14
TORSDOF 3
