REMARK  Name = 
REMARK  8 active torsions:
REMARK  status: ('A' for Active; 'I' for Inactive)
REMARK    1  A    between atoms: N_1  and  C_2
REMARK    2  A    between atoms: C_2  and  C_3
REMARK    3  A    between atoms: C_9  and  C_10
REMARK    4  A    between atoms: C_10  and  C_11
REMARK    5  A    between atoms: C_11  and  C_12
REMARK    6  A    between atoms: C_12  and  O_13
REMARK    7  A    between atoms: N_15  and  C_16
REMARK    8  A    between atoms: C_16  and  C_17
REMARK                            x       y       z     vdW  Elec       q    Type
REMARK                         _______ _______ _______ _____ _____    ______ ____
ROOT
ATOM      1  C   UNL     1       2.902   1.204  -0.808  0.00  0.00    +0.000 A 
ATOM      2  C   UNL     1       2.469   2.488  -0.482  0.00  0.00    +0.000 A 
ATOM      3  N   UNL     1       2.747   3.625  -1.161  0.00  0.00    +0.000 NA
ATOM      4  C   UNL     1       3.522   3.420  -2.246  0.00  0.00    +0.000 A 
ATOM      5  C   UNL     1       4.018   2.201  -2.701  0.00  0.00    +0.000 A 
ATOM      6  C   UNL     1       3.695   1.055  -1.953  0.00  0.00    +0.000 A 
ATOM      7  C   UNL     1       4.781   2.463  -3.883  0.00  0.00    +0.000 A 
ATOM      8  C   UNL     1       4.722   3.829  -4.101  0.00  0.00    +0.000 A 
ATOM      9  N   UNL     1       3.984   4.397  -3.092  0.00  0.00    +0.000 N 
ENDROOT
BRANCH   1  10
ATOM     10  C   UNL     1       2.511   0.016   0.026  0.00  0.00    +0.000 C 
BRANCH  10  11
ATOM     11  N   UNL     1       3.675  -0.682   0.556  0.00  0.00    +0.000 NA
ATOM     12  H   UNL     1       3.366  -1.412   1.196  0.00  0.00    +0.000 HD
ATOM     13  H   UNL     1       4.231  -0.033   1.112  0.00  0.00    +0.000 HD
ENDBRANCH  10  11
ENDBRANCH   1  10
BRANCH   7  14
ATOM     14  C   UNL     1       5.513   1.458  -4.715  0.00  0.00    +0.000 C 
BRANCH  14  15
ATOM     15  C   UNL     1       7.020   1.699  -4.794  0.00  0.00    +0.000 C 
BRANCH  15  16
ATOM     16  C   UNL     1       7.712   1.638  -3.437  0.00  0.00    +0.000 C 
BRANCH  16  17
ATOM     17  O   UNL     1       9.113   1.834  -3.604  0.00  0.00    +0.000 OA
ATOM     18  H   UNL     1       9.439   1.138  -4.200  0.00  0.00    +0.000 HD
ENDBRANCH  16  17
ENDBRANCH  15  16
ENDBRANCH  14  15
ENDBRANCH   7  14
BRANCH   9  19
ATOM     19  C   UNL     1       3.727   5.825  -2.941  0.00  0.00    +0.000 C 
BRANCH  19  20
ATOM     20  C   UNL     1       4.830   6.503  -2.175  0.00  0.00    +0.000 A 
ATOM     21  C   UNL     1       5.046   6.248  -0.817  0.00  0.00    +0.000 A 
ATOM     22  C   UNL     1       6.119   6.839  -0.160  0.00  0.00    +0.000 A 
ATOM     23  C   UNL     1       6.936   7.692  -0.881  0.00  0.00    +0.000 A 
ATOM     24  N   UNL     1       6.741   7.998  -2.182  0.00  0.00    +0.000 NA
ATOM     25  C   UNL     1       5.698   7.394  -2.798  0.00  0.00    +0.000 A 
ENDBRANCH  19  20
ENDBRANCH   9  19
TORSDOF 8
