REMARK  Name = 
REMARK  4 active torsions:
REMARK  status: ('A' for Active; 'I' for Inactive)
REMARK    1  A    between atoms: C_2  and  C_4
REMARK    2  A    between atoms: N_8  and  C_9
REMARK    3  A    between atoms: C_9  and  C_10
REMARK    4  A    between atoms: C_14  and  N_15
REMARK                            x       y       z     vdW  Elec       q    Type
REMARK                         _______ _______ _______ _____ _____    ______ ____
ROOT
ATOM      1  C   UNL     1       6.345  -5.104   0.917  0.00  0.00    +0.000 C 
ATOM      2  C   UNL     1       6.324  -5.149   2.442  0.00  0.00    +0.000 C 
ATOM      3  C   UNL     1       7.084  -4.070   1.747  0.00  0.00    +0.000 C 
ENDROOT
BRANCH   1   8
ATOM      4  C   UNL     1       4.342  -1.902  -2.541  0.00  0.00    +0.000 A 
ATOM      5  C   UNL     1       3.650  -3.086  -2.485  0.00  0.00    +0.000 A 
ATOM      6  N   UNL     1       3.902  -4.054  -1.578  0.00  0.00    +0.000 NA
ATOM      7  C   UNL     1       4.909  -3.843  -0.709  0.00  0.00    +0.000 A 
ATOM      8  N   UNL     1       5.059  -4.821   0.272  0.00  0.00    +0.000 N 
ATOM      9  N   UNL     1       5.677  -2.741  -0.731  0.00  0.00    +0.000 NA
ATOM     10  C   UNL     1       5.377  -1.791  -1.643  0.00  0.00    +0.000 A 
ATOM     11  H   UNL     1       4.486  -5.608  -0.008  0.00  0.00    +0.000 HD
BRANCH   4  13
ATOM     12  N   UNL     1       2.756  -0.716  -3.946  0.00  0.00    +0.000 N 
ATOM     13  C   UNL     1       4.037  -0.816  -3.483  0.00  0.00    +0.000 C 
ATOM     14  O   UNL     1       4.892  -0.001  -3.804  0.00  0.00    +0.000 OA
ATOM     15  H   UNL     1       2.545   0.107  -4.501  0.00  0.00    +0.000 HD
ATOM     16  H   UNL     1       1.969  -1.190  -3.523  0.00  0.00    +0.000 HD
ENDBRANCH   4  13
ENDBRANCH   1   8
BRANCH   1  17
ATOM     17  C   UNL     1       7.205  -6.132   0.186  0.00  0.00    +0.000 A 
ATOM     18  C   UNL     1       8.067  -5.743  -0.853  0.00  0.00    +0.000 A 
ATOM     19  C   UNL     1       8.952  -6.647  -1.442  0.00  0.00    +0.000 A 
ATOM     20  C   UNL     1       9.008  -7.967  -0.994  0.00  0.00    +0.000 A 
ATOM     21  C   UNL     1       8.143  -8.391   0.021  0.00  0.00    +0.000 A 
ATOM     22  C   UNL     1       7.221  -7.486   0.569  0.00  0.00    +0.000 A 
BRANCH  21  23
ATOM     23  N   UNL     1       8.222  -9.705   0.549  0.00  0.00    +0.000 N 
ATOM     24  C   UNL     1       9.151 -10.685   0.289  0.00  0.00    +0.000 A 
ATOM     25  N   UNL     1       8.907 -11.757   1.008  0.00  0.00    +0.000 NA
ATOM     26  C   UNL     1       7.804 -11.394   1.717  0.00  0.00    +0.000 A 
ATOM     27  N   UNL     1       7.349 -10.162   1.484  0.00  0.00    +0.000 NA
ENDBRANCH  21  23
ENDBRANCH   1  17
TORSDOF 4
