REMARK  Name = 
REMARK  6 active torsions:
REMARK  status: ('A' for Active; 'I' for Inactive)
REMARK    1  A    between atoms: C_1  and  O_2
REMARK    2  A    between atoms: O_2  and  C_3
REMARK    3  A    between atoms: C_5  and  C_6
REMARK    4  A    between atoms: C_6  and  N_7
REMARK    5  A    between atoms: N_7  and  C_8
REMARK    6  A    between atoms: C_11  and  C_12
REMARK                            x       y       z     vdW  Elec       q    Type
REMARK                         _______ _______ _______ _____ _____    ______ ____
ROOT
ATOM      1  N   UNL     1       3.341  -4.649  -3.481  0.00  0.00    +0.000 N 
ATOM      2  H   UNL     1       2.509  -5.226  -3.404  0.00  0.00    +0.000 HD
ENDROOT
BRANCH   1   3
ATOM      3  C   UNL     1       4.525  -5.363  -3.708  0.00  0.00    +0.000 A 
ATOM      4  C   UNL     1       5.716  -4.790  -4.156  0.00  0.00    +0.000 A 
ATOM      5  C   UNL     1       6.864  -5.575  -4.312  0.00  0.00    +0.000 A 
ATOM      6  C   UNL     1       6.791  -6.923  -3.992  0.00  0.00    +0.000 A 
ATOM      7  N   UNL     1       5.665  -7.528  -3.530  0.00  0.00    +0.000 NA
ATOM      8  C   UNL     1       4.581  -6.728  -3.395  0.00  0.00    +0.000 A 
BRANCH   6   9
ATOM      9  C   UNL     1       7.994  -7.799  -4.150  0.00  0.00    +0.000 C 
ATOM     10  N   UNL     1       7.812  -9.111  -3.796  0.00  0.00    +0.000 N 
ATOM     11  O   UNL     1       9.069  -7.386  -4.568  0.00  0.00    +0.000 OA
ATOM     12  H   UNL     1       6.907  -9.410  -3.452  0.00  0.00    +0.000 HD
ATOM     13  H   UNL     1       8.579  -9.764  -3.874  0.00  0.00    +0.000 HD
ENDBRANCH   6   9
ENDBRANCH   1   3
BRANCH   1  14
ATOM     14  C   UNL     1       3.143  -3.201  -3.636  0.00  0.00    +0.000 C 
ATOM     15  C   UNL     1       3.280  -2.512  -4.978  0.00  0.00    +0.000 C 
ATOM     16  C   UNL     1       1.915  -2.804  -4.456  0.00  0.00    +0.000 C 
BRANCH  14  19
ATOM     17  C   UNL     1       4.849  -1.167  -0.875  0.00  0.00    +0.000 A 
ATOM     18  C   UNL     1       4.672  -1.881  -2.052  0.00  0.00    +0.000 A 
ATOM     19  C   UNL     1       3.407  -2.396  -2.364  0.00  0.00    +0.000 A 
ATOM     20  C   UNL     1       2.380  -2.140  -1.443  0.00  0.00    +0.000 A 
ATOM     21  C   UNL     1       2.641  -1.380  -0.313  0.00  0.00    +0.000 A 
ATOM     22  N   UNL     1       3.855  -0.887  -0.009  0.00  0.00    +0.000 NA
BRANCH  17  24
ATOM     23  C   UNL     1       6.298  -0.389   0.770  0.00  0.00    +0.000 C 
ATOM     24  O   UNL     1       6.126  -0.716  -0.607  0.00  0.00    +0.000 OA
ENDBRANCH  17  24
ENDBRANCH  14  19
ENDBRANCH   1  14
TORSDOF 5
