REMARK  Name = 
REMARK  6 active torsions:
REMARK  status: ('A' for Active; 'I' for Inactive)
REMARK    1  A    between atoms: C_2  and  C_25
REMARK    2  A    between atoms: N_3  and  C_4
REMARK    3  A    between atoms: C_4  and  C_5
REMARK    4  A    between atoms: C_8  and  C_9
REMARK    5  A    between atoms: C_9  and  N_10
REMARK    6  A    between atoms: C_11  and  C_13
REMARK                            x       y       z     vdW  Elec       q    Type
REMARK                         _______ _______ _______ _____ _____    ______ ____
ROOT
ATOM      1  C   UNL     1       3.268  -3.692   0.637  0.00  0.00    +0.000 A 
ATOM      2  C   UNL     1       2.798  -5.000   0.592  0.00  0.00    +0.000 A 
ATOM      3  N   UNL     1       3.594  -6.079   0.787  0.00  0.00    +0.000 NA
ATOM      4  C   UNL     1       4.906  -5.810   1.021  0.00  0.00    +0.000 A 
ATOM      5  C   UNL     1       5.382  -4.504   1.033  0.00  0.00    +0.000 A 
ATOM      6  N   UNL     1       4.582  -3.425   0.848  0.00  0.00    +0.000 NA
ENDROOT
BRANCH   1   7
ATOM      7  C   UNL     1       2.323  -2.536   0.458  0.00  0.00    +0.000 C 
BRANCH   7  10
ATOM      8  O   UNL     1      -0.022  -1.459  -0.631  0.00  0.00    +0.000 OA
ATOM      9  C   UNL     1       0.957  -1.609  -1.364  0.00  0.00    +0.000 C 
ATOM     10  N   UNL     1       2.128  -2.182  -0.929  0.00  0.00    +0.000 N 
ATOM     11  H   UNL     1       2.929  -2.110  -1.550  0.00  0.00    +0.000 HD
BRANCH   9  12
ATOM     12  C   UNL     1       0.957  -1.201  -2.753  0.00  0.00    +0.000 A 
ATOM     13  N   UNL     1       1.952  -1.373  -3.607  0.00  0.00    +0.000 NA
ATOM     14  C   UNL     1       1.498  -0.866  -4.801  0.00  0.00    +0.000 A 
ATOM     15  C   UNL     1       0.224  -0.367  -4.670  0.00  0.00    +0.000 A 
ATOM     16  N   UNL     1      -0.108  -0.586  -3.365  0.00  0.00    +0.000 N 
ATOM     17  H   UNL     1      -0.977  -0.356  -2.900  0.00  0.00    +0.000 HD
ENDBRANCH   9  12
ENDBRANCH   7  10
ENDBRANCH   1   7
BRANCH   4  18
ATOM     18  C   UNL     1       5.839  -6.972   1.233  0.00  0.00    +0.000 C 
BRANCH  18  19
ATOM     19  N   UNL     1       6.425  -7.436  -0.005  0.00  0.00    +0.000 N 
ATOM     20  C   UNL     1       7.631  -6.966  -0.454  0.00  0.00    +0.000 C 
ATOM     21  O   UNL     1       8.297  -6.167   0.200  0.00  0.00    +0.000 OA
ATOM     22  H   UNL     1       5.790  -7.890  -0.655  0.00  0.00    +0.000 HD
BRANCH  20  23
ATOM     23  C   UNL     1       8.120  -7.515  -1.723  0.00  0.00    +0.000 A 
ATOM     24  C   UNL     1       9.484  -7.541  -1.980  0.00  0.00    +0.000 A 
ATOM     25  S   UNL     1       9.883  -8.242  -3.483  0.00  0.00    +0.000 S 
ATOM     26  C   UNL     1       8.243  -8.490  -3.864  0.00  0.00    +0.000 A 
ATOM     27  N   UNL     1       7.876  -9.041  -5.052  0.00  0.00    +0.000 NA
ATOM     28  C   UNL     1       6.600  -9.133  -5.224  0.00  0.00    +0.000 A 
ATOM     29  N   UNL     1       5.657  -8.734  -4.313  0.00  0.00    +0.000 N 
ATOM     30  C   UNL     1       5.982  -8.222  -3.081  0.00  0.00    +0.000 A 
ATOM     31  O   UNL     1       5.120  -7.958  -2.249  0.00  0.00    +0.000 OA
ATOM     32  C   UNL     1       7.405  -8.066  -2.848  0.00  0.00    +0.000 A 
ATOM     33  H   UNL     1       4.673  -8.850  -4.502  0.00  0.00    +0.000 HD
ENDBRANCH  20  23
ENDBRANCH  18  19
ENDBRANCH   4  18
TORSDOF 6
