REMARK  Name = 
REMARK  8 active torsions:
REMARK  status: ('A' for Active; 'I' for Inactive)
REMARK    1  A    between atoms: C_1  and  C_2
REMARK    2  A    between atoms: C_2  and  N_3
REMARK    3  A    between atoms: C_2  and  C_25
REMARK    4  A    between atoms: N_3  and  C_4
REMARK    5  A    between atoms: C_4  and  C_5
REMARK    6  A    between atoms: C_8  and  C_9
REMARK    7  A    between atoms: C_9  and  N_10
REMARK    8  A    between atoms: C_11  and  C_13
REMARK                            x       y       z     vdW  Elec       q    Type
REMARK                         _______ _______ _______ _____ _____    ______ ____
ROOT
ATOM      1  C   UNL     1       6.109   1.280   3.779  0.00  0.00    +0.000 C 
ATOM      2  C   UNL     1       6.661   1.842   2.452  0.00  0.00    +0.000 C 
ATOM      3  C   UNL     1       5.578   2.130   1.416  0.00  0.00    +0.000 C 
ATOM      4  C   UNL     1       4.502   3.079   1.961  0.00  0.00    +0.000 C 
ATOM      5  C   UNL     1       3.858   2.421   3.189  0.00  0.00    +0.000 C 
ATOM      6  C   UNL     1       4.864   2.043   4.279  0.00  0.00    +0.000 C 
ENDROOT
BRANCH   1   7
ATOM      7  C   UNL     1       5.821  -0.236   3.699  0.00  0.00    +0.000 C 
BRANCH   7   8
ATOM      8  N   UNL     1       7.038  -0.952   3.327  0.00  0.00    +0.000 NA
ATOM      9  H   UNL     1       7.775  -0.740   4.002  0.00  0.00    +0.000 HD
BRANCH   8  11
ATOM     10  C   UNL     1       5.819  -2.888   2.298  0.00  0.00    +0.000 C 
ATOM     11  C   UNL     1       6.897  -2.419   3.280  0.00  0.00    +0.000 C 
BRANCH  11  12
ATOM     12  C   UNL     1       8.240  -3.056   2.917  0.00  0.00    +0.000 A 
ATOM     13  C   UNL     1       8.902  -2.700   1.738  0.00  0.00    +0.000 A 
ATOM     14  C   UNL     1      10.134  -3.273   1.447  0.00  0.00    +0.000 A 
ATOM     15  C   UNL     1      10.684  -4.190   2.342  0.00  0.00    +0.000 A 
ATOM     16  C   UNL     1       9.967  -4.485   3.488  0.00  0.00    +0.000 A 
ATOM     17  N   UNL     1       8.768  -3.947   3.796  0.00  0.00    +0.000 NA
ENDBRANCH  11  12
ENDBRANCH   8  11
ENDBRANCH   7   8
ENDBRANCH   1   7
BRANCH   4  18
ATOM     18  C   UNL     1       5.049   4.482   2.281  0.00  0.00    +0.000 C 
BRANCH  18  19
ATOM     19  N   UNL     1       5.716   5.086   1.147  0.00  0.00    +0.000 N 
ATOM     20  C   UNL     1       5.125   5.947   0.261  0.00  0.00    +0.000 C 
ATOM     21  O   UNL     1       3.925   6.195   0.271  0.00  0.00    +0.000 OA
ATOM     22  H   UNL     1       6.713   4.914   1.073  0.00  0.00    +0.000 HD
BRANCH  20  23
ATOM     23  C   UNL     1       6.035   6.569  -0.713  0.00  0.00    +0.000 A 
ATOM     24  C   UNL     1       5.566   7.023  -1.936  0.00  0.00    +0.000 A 
ATOM     25  S   UNL     1       6.757   7.822  -2.865  0.00  0.00    +0.000 S 
ATOM     26  C   UNL     1       7.921   7.636  -1.637  0.00  0.00    +0.000 A 
ATOM     27  N   UNL     1       9.155   8.201  -1.736  0.00  0.00    +0.000 NA
ATOM     28  C   UNL     1       9.898   8.047  -0.692  0.00  0.00    +0.000 A 
ATOM     29  N   UNL     1       9.539   7.335   0.425  0.00  0.00    +0.000 N 
ATOM     30  C   UNL     1       8.381   6.601   0.484  0.00  0.00    +0.000 A 
ATOM     31  O   UNL     1       8.220   5.737   1.340  0.00  0.00    +0.000 OA
ATOM     32  C   UNL     1       7.440   6.881  -0.584  0.00  0.00    +0.000 A 
ATOM     33  H   UNL     1      10.205   7.171   1.165  0.00  0.00    +0.000 HD
ENDBRANCH  20  23
ENDBRANCH  18  19
ENDBRANCH   4  18
TORSDOF 7
