REMARK  Name = 
REMARK  9 active torsions:
REMARK  status: ('A' for Active; 'I' for Inactive)
REMARK    1  A    between atoms: C_1  and  O_2
REMARK    2  A    between atoms: O_2  and  C_3
REMARK    3  A    between atoms: C_10  and  C_11
REMARK    4  A    between atoms: N_13  and  C_14
REMARK    5  A    between atoms: C_14  and  C_15
REMARK    6  A    between atoms: C_18  and  C_19
REMARK    7  A    between atoms: C_19  and  C_20
REMARK    8  A    between atoms: C_20  and  C_21
REMARK    9  A    between atoms: C_21  and  N_22
REMARK                            x       y       z     vdW  Elec       q    Type
REMARK                         _______ _______ _______ _____ _____    ______ ____
ROOT
ATOM      1  C   UNL     1       2.797   3.238  -1.330  0.00  0.00    +0.000 C 
ENDROOT
BRANCH   1   2
ATOM      2  C   UNL     1       1.558   2.804  -2.063  0.00  0.00    +0.000 A 
ATOM      3  C   UNL     1       1.355   1.474  -2.438  0.00  0.00    +0.000 A 
ATOM      4  C   UNL     1       0.149   1.092  -3.026  0.00  0.00    +0.000 A 
ATOM      5  C   UNL     1      -0.819   2.060  -3.274  0.00  0.00    +0.000 A 
ATOM      6  N   UNL     1      -0.622   3.366  -2.973  0.00  0.00    +0.000 NA
ATOM      7  C   UNL     1       0.549   3.706  -2.381  0.00  0.00    +0.000 A 
BRANCH   5   8
ATOM      8  C   UNL     1      -2.147   1.682  -3.884  0.00  0.00    +0.000 C 
BRANCH   8   9
ATOM      9  C   UNL     1      -2.430   2.410  -5.202  0.00  0.00    +0.000 C 
BRANCH   9  10
ATOM     10  C   UNL     1      -1.417   2.099  -6.315  0.00  0.00    +0.000 C 
BRANCH  10  11
ATOM     11  N   UNL     1      -1.327   0.669  -6.656  0.00  0.00    +0.000 NA
ATOM     12  C   UNL     1      -2.593   0.133  -7.185  0.00  0.00    +0.000 C 
ATOM     13  C   UNL     1      -2.489  -1.374  -7.418  0.00  0.00    +0.000 C 
ATOM     14  C   UNL     1      -1.333  -1.709  -8.352  0.00  0.00    +0.000 C 
ATOM     15  C   UNL     1      -0.045  -1.054  -7.864  0.00  0.00    +0.000 C 
ATOM     16  C   UNL     1      -0.238   0.444  -7.620  0.00  0.00    +0.000 C 
ENDBRANCH  10  11
ENDBRANCH   9  10
ENDBRANCH   8   9
ENDBRANCH   5   8
ENDBRANCH   1   2
BRANCH   1  19
ATOM     17  C   UNL     1       5.065   4.103  -1.777  0.00  0.00    +0.000 C 
ATOM     18  O   UNL     1       5.354   4.130  -0.582  0.00  0.00    +0.000 OA
ATOM     19  N   UNL     1       3.836   3.685  -2.222  0.00  0.00    +0.000 N 
ATOM     20  H   UNL     1       3.624   3.708  -3.210  0.00  0.00    +0.000 HD
BRANCH  17  28
ATOM     21  C   UNL     1       4.997   4.287  -5.229  0.00  0.00    +0.000 A 
ATOM     22  N   UNL     1       5.310   4.456  -6.528  0.00  0.00    +0.000 NA
ATOM     23  C   UNL     1       6.548   4.889  -6.825  0.00  0.00    +0.000 A 
ATOM     24  N   UNL     1       7.538   5.180  -5.972  0.00  0.00    +0.000 NA
ATOM     25  C   UNL     1       7.166   4.993  -4.698  0.00  0.00    +0.000 A 
ATOM     26  O   UNL     1       7.997   5.229  -3.646  0.00  0.00    +0.000 OA
ATOM     27  C   UNL     1       7.303   4.941  -2.517  0.00  0.00    +0.000 A 
ATOM     28  C   UNL     1       6.019   4.507  -2.804  0.00  0.00    +0.000 A 
ATOM     29  C   UNL     1       5.934   4.555  -4.234  0.00  0.00    +0.000 A 
BRANCH  21  31
ATOM     30  C   UNL     1       3.055   3.175  -5.909  0.00  0.00    +0.000 C 
ATOM     31  O   UNL     1       3.719   3.905  -4.884  0.00  0.00    +0.000 OA
ENDBRANCH  21  31
ENDBRANCH  17  28
ENDBRANCH   1  19
TORSDOF 8
