REMARK  Name = 
REMARK  10 active torsions:
REMARK  status: ('A' for Active; 'I' for Inactive)
REMARK    1  A    between atoms: C_1  and  C_2
REMARK    2  A    between atoms: C_2  and  C_3
REMARK    3  A    between atoms: C_3  and  N_4
REMARK    4  A    between atoms: C_3  and  C_18
REMARK    5  A    between atoms: C_5  and  C_7
REMARK    6  A    between atoms: N_13  and  C_14
REMARK    7  A    between atoms: C_21  and  C_22
REMARK    8  A    between atoms: C_22  and  N_23
REMARK    9  A    between atoms: N_23  and  C_24
REMARK   10  A    between atoms: C_24  and  C_25
REMARK                            x       y       z     vdW  Elec       q    Type
REMARK                         _______ _______ _______ _____ _____    ______ ____
ROOT
ATOM      1  C   UNL     1       3.088  -0.843   1.155  0.00  0.00    +0.000 C 
ENDROOT
BRANCH   1   2
ATOM      2  C   UNL     1       4.616  -0.856   1.123  0.00  0.00    +0.000 A 
ATOM      3  C   UNL     1       5.338   0.055   1.890  0.00  0.00    +0.000 A 
ATOM      4  C   UNL     1       6.730   0.000   1.867  0.00  0.00    +0.000 A 
ATOM      5  C   UNL     1       7.381  -0.952   1.077  0.00  0.00    +0.000 A 
ATOM      6  C   UNL     1       6.582  -1.790   0.314  0.00  0.00    +0.000 A 
ATOM      7  N   UNL     1       5.231  -1.758   0.313  0.00  0.00    +0.000 NA
BRANCH   5   8
ATOM      8  C   UNL     1       8.880  -1.069   1.048  0.00  0.00    +0.000 C 
BRANCH   8   9
ATOM      9  N   UNL     1       9.402  -1.356   2.380  0.00  0.00    +0.000 NA
ATOM     10  H   UNL     1       9.010  -2.239   2.716  0.00  0.00    +0.000 HD
BRANCH   9  11
ATOM     11  C   UNL     1      10.860  -1.502   2.370  0.00  0.00    +0.000 C 
BRANCH  11  12
ATOM     12  C   UNL     1      11.375  -1.817   3.760  0.00  0.00    +0.000 A 
ATOM     13  C   UNL     1      11.711  -0.783   4.632  0.00  0.00    +0.000 A 
ATOM     14  C   UNL     1      12.127  -1.099   5.921  0.00  0.00    +0.000 A 
ATOM     15  C   UNL     1      12.181  -2.432   6.310  0.00  0.00    +0.000 A 
ATOM     16  C   UNL     1      11.814  -3.398   5.388  0.00  0.00    +0.000 A 
ATOM     17  N   UNL     1      11.414  -3.124   4.127  0.00  0.00    +0.000 NA
ENDBRANCH  11  12
ENDBRANCH   9  11
ENDBRANCH   8   9
ENDBRANCH   5   8
ENDBRANCH   1   2
BRANCH   1  18
ATOM     18  N   UNL     1       2.566   0.059   0.142  0.00  0.00    +0.000 N 
ATOM     19  C   UNL     1       2.315   1.384   0.382  0.00  0.00    +0.000 C 
ATOM     20  O   UNL     1       2.400   1.877   1.504  0.00  0.00    +0.000 OA
ATOM     21  H   UNL     1       2.730  -0.241  -0.814  0.00  0.00    +0.000 HD
BRANCH  19  22
ATOM     22  C   UNL     1       1.879   2.182  -0.771  0.00  0.00    +0.000 A 
ATOM     23  C   UNL     1       1.094   3.311  -0.578  0.00  0.00    +0.000 A 
ATOM     24  S   UNL     1       0.706   4.128  -2.024  0.00  0.00    +0.000 S 
ATOM     25  C   UNL     1       1.595   3.015  -2.955  0.00  0.00    +0.000 A 
ATOM     26  N   UNL     1       1.708   3.163  -4.299  0.00  0.00    +0.000 NA
ATOM     27  C   UNL     1       2.428   2.253  -4.880  0.00  0.00    +0.000 A 
ATOM     28  N   UNL     1       3.041   1.196  -4.245  0.00  0.00    +0.000 N 
ATOM     29  C   UNL     1       3.797   0.213  -4.989  0.00  0.00    +0.000 C 
ATOM     30  C   UNL     1       2.903   0.990  -2.878  0.00  0.00    +0.000 A 
ATOM     31  O   UNL     1       3.355   0.002  -2.311  0.00  0.00    +0.000 OA
ATOM     32  C   UNL     1       2.144   2.013  -2.182  0.00  0.00    +0.000 A 
ENDBRANCH  19  22
ENDBRANCH   1  18
BRANCH   1  34
ATOM     33  C   UNL     1       1.014  -2.340   0.965  0.00  0.00    +0.000 C 
ATOM     34  C   UNL     1       2.534  -2.269   0.948  0.00  0.00    +0.000 C 
ENDBRANCH   1  34
TORSDOF 8
