REMARK  Name = 
REMARK  5 active torsions:
REMARK  status: ('A' for Active; 'I' for Inactive)
REMARK    1  A    between atoms: N_1  and  C_2
REMARK    2  A    between atoms: C_2  and  C_3
REMARK    3  A    between atoms: C_6  and  C_7
REMARK    4  A    between atoms: C_7  and  C_8
REMARK    5  A    between atoms: C_8  and  C_9
REMARK                            x       y       z     vdW  Elec       q    Type
REMARK                         _______ _______ _______ _____ _____    ______ ____
ROOT
ATOM      1  C   UNL     1       2.307   1.058   1.488  0.00  0.00    +0.000 A 
ATOM      2  C   UNL     1       3.044   1.814   0.587  0.00  0.00    +0.000 A 
ATOM      3  N   UNL     1       3.602   3.009   0.906  0.00  0.00    +0.000 NA
ATOM      4  C   UNL     1       3.405   3.435   2.179  0.00  0.00    +0.000 A 
ATOM      5  C   UNL     1       2.655   2.681   3.074  0.00  0.00    +0.000 A 
ATOM      6  N   UNL     1       2.103   1.484   2.765  0.00  0.00    +0.000 NA
ENDROOT
BRANCH   1   7
ATOM      7  C   UNL     1       1.787  -0.311   1.127  0.00  0.00    +0.000 C 
BRANCH   7   8
ATOM      8  N   UNL     1       2.764  -1.355   1.447  0.00  0.00    +0.000 NA
ATOM      9  H   UNL     1       2.289  -2.256   1.463  0.00  0.00    +0.000 HD
ATOM     10  H   UNL     1       3.075  -1.194   2.408  0.00  0.00    +0.000 HD
ENDBRANCH   7   8
ENDBRANCH   1   7
BRANCH   4  11
ATOM     11  C   UNL     1       3.985   4.768   2.581  0.00  0.00    +0.000 C 
BRANCH  11  12
ATOM     12  C   UNL     1       4.993   4.682   3.744  0.00  0.00    +0.000 C 
BRANCH  12  13
ATOM     13  C   UNL     1       5.524   6.076   4.130  0.00  0.00    +0.000 C 
ATOM     14  C   UNL     1       6.546   6.082   5.272  0.00  0.00    +0.000 C 
ATOM     15  C   UNL     1       5.927   5.912   6.656  0.00  0.00    +0.000 C 
ATOM     16  C   UNL     1       4.665   6.745   6.841  0.00  0.00    +0.000 C 
ATOM     17  C   UNL     1       3.754   6.710   5.624  0.00  0.00    +0.000 C 
ATOM     18  O   UNL     1       4.463   6.991   4.421  0.00  0.00    +0.000 OA
ENDBRANCH  12  13
ENDBRANCH  11  12
ENDBRANCH   4  11
TORSDOF 5
