REMARK  Name = 
REMARK  5 active torsions:
REMARK  status: ('A' for Active; 'I' for Inactive)
REMARK    1  A    between atoms: N_1  and  C_2
REMARK    2  A    between atoms: C_2  and  C_3
REMARK    3  A    between atoms: C_3  and  C_4
REMARK    4  A    between atoms: N_10  and  C_11
REMARK    5  A    between atoms: C_11  and  C_12
REMARK                            x       y       z     vdW  Elec       q    Type
REMARK                         _______ _______ _______ _____ _____    ______ ____
ROOT
ATOM      1  C   UNL     1       4.534  -0.202   1.488  0.00  0.00    +0.000 A 
ATOM      2  C   UNL     1       5.278  -1.353   1.222  0.00  0.00    +0.000 A 
ATOM      3  N   UNL     1       6.624  -1.443   1.211  0.00  0.00    +0.000 NA
ATOM      4  C   UNL     1       7.260  -0.288   1.496  0.00  0.00    +0.000 A 
ATOM      5  N   UNL     1       8.614  -0.140   1.572  0.00  0.00    +0.000 NA
ATOM      6  C   UNL     1       8.798   1.128   1.894  0.00  0.00    +0.000 A 
ATOM      7  N   UNL     1       7.611   1.808   1.980  0.00  0.00    +0.000 N 
ATOM      8  C   UNL     1       6.602   0.906   1.771  0.00  0.00    +0.000 A 
ATOM      9  C   UNL     1       5.206   0.985   1.781  0.00  0.00    +0.000 A 
ENDROOT
BRANCH   1  10
ATOM     10  C   UNL     1       3.029  -0.247   1.472  0.00  0.00    +0.000 C 
BRANCH  10  11
ATOM     11  C   UNL     1       2.455  -0.610   2.844  0.00  0.00    +0.000 C 
BRANCH  11  12
ATOM     12  N   UNL     1       0.996  -0.647   2.806  0.00  0.00    +0.000 NA
ATOM     13  H   UNL     1       0.642  -0.906   3.727  0.00  0.00    +0.000 HD
ATOM     14  H   UNL     1       0.684  -1.380   2.169  0.00  0.00    +0.000 HD
ENDBRANCH  11  12
ENDBRANCH  10  11
ENDBRANCH   1  10
BRANCH   7  15
ATOM     15  C   UNL     1       7.435   3.225   2.287  0.00  0.00    +0.000 C 
BRANCH  15  16
ATOM     16  C   UNL     1       7.389   4.074   1.046  0.00  0.00    +0.000 A 
ATOM     17  C   UNL     1       8.480   4.160   0.174  0.00  0.00    +0.000 A 
ATOM     18  C   UNL     1       8.353   4.855  -1.026  0.00  0.00    +0.000 A 
ATOM     19  C   UNL     1       7.144   5.470  -1.295  0.00  0.00    +0.000 A 
ATOM     20 CL   UNL     1       6.882   6.282  -2.781  0.00  0.00    +0.000 Cl
ATOM     21  N   UNL     1       6.090   5.474  -0.455  0.00  0.00    +0.000 NA
ATOM     22  C   UNL     1       6.236   4.777   0.695  0.00  0.00    +0.000 A 
ENDBRANCH  15  16
ENDBRANCH   7  15
TORSDOF 5
