REMARK  Name = 
REMARK  5 active torsions:
REMARK  status: ('A' for Active; 'I' for Inactive)
REMARK    1  A    between atoms: C_2  and  C_4
REMARK    2  A    between atoms: C_7  and  C_8
REMARK    3  A    between atoms: C_8  and  C_9
REMARK    4  A    between atoms: C_9  and  C_10
REMARK    5  A    between atoms: C_17  and  N_18
REMARK                            x       y       z     vdW  Elec       q    Type
REMARK                         _______ _______ _______ _____ _____    ______ ____
ROOT
ATOM      1  C   UNL     1       3.155   1.111  -0.394  0.00  0.00    +0.000 A 
ATOM      2  N   UNL     1       4.491   0.866  -0.569  0.00  0.00    +0.000 NA
ATOM      3  C   UNL     1       5.215   1.852  -1.146  0.00  0.00    +0.000 A 
ATOM      4  C   UNL     1       4.694   3.079  -1.551  0.00  0.00    +0.000 A 
ATOM      5  C   UNL     1       3.315   3.266  -1.383  0.00  0.00    +0.000 A 
ATOM      6  C   UNL     1       2.517   2.307  -0.751  0.00  0.00    +0.000 A 
ENDROOT
BRANCH   1   8
ATOM      7  N   UNL     1       3.123  -1.104   0.611  0.00  0.00    +0.000 N 
ATOM      8  C   UNL     1       2.391   0.011   0.295  0.00  0.00    +0.000 C 
ATOM      9  O   UNL     1       1.205   0.096   0.599  0.00  0.00    +0.000 OA
ATOM     10  H   UNL     1       2.691  -1.859   1.120  0.00  0.00    +0.000 HD
ATOM     11  H   UNL     1       4.119  -1.113   0.413  0.00  0.00    +0.000 HD
ENDBRANCH   1   8
BRANCH   6  12
ATOM     12  N   UNL     1       1.126   2.509  -0.717  0.00  0.00    +0.000 N 
ATOM     13  H   UNL     1       0.837   3.470  -0.576  0.00  0.00    +0.000 HD
ATOM     14  H   UNL     1       0.656   1.859  -0.075  0.00  0.00    +0.000 HD
ENDBRANCH   6  12
BRANCH   4  15
ATOM     15  C   UNL     1       5.587   4.112  -2.206  0.00  0.00    +0.000 C 
BRANCH  15  16
ATOM     16  C   UNL     1       5.174   5.564  -1.923  0.00  0.00    +0.000 C 
BRANCH  16  17
ATOM     17  C   UNL     1       6.065   6.597  -2.565  0.00  0.00    +0.000 A 
ATOM     18  C   UNL     1       5.810   7.034  -3.873  0.00  0.00    +0.000 A 
ATOM     19  C   UNL     1       6.576   8.051  -4.442  0.00  0.00    +0.000 A 
ATOM     20  C   UNL     1       7.615   8.633  -3.716  0.00  0.00    +0.000 A 
ATOM     21  C   UNL     1       7.892   8.187  -2.423  0.00  0.00    +0.000 A 
ATOM     22  C   UNL     1       7.125   7.170  -1.851  0.00  0.00    +0.000 A 
ENDBRANCH  16  17
ENDBRANCH  15  16
ENDBRANCH   4  15
TORSDOF 5
