REMARK  Name = 
REMARK  5 active torsions:
REMARK  status: ('A' for Active; 'I' for Inactive)
REMARK    1  A    between atoms: C_1  and  C_2
REMARK    2  A    between atoms: C_6  and  C_7
REMARK    3  A    between atoms: C_13  and  C_14
REMARK    4  A    between atoms: C_14  and  N_15
REMARK    5  A    between atoms: C_19  and  C_20
REMARK                            x       y       z     vdW  Elec       q    Type
REMARK                         _______ _______ _______ _____ _____    ______ ____
ROOT
ATOM      1  C   UNL     1       7.067  -3.611   0.951  0.00  0.00    +0.000 C 
ATOM      2  C   UNL     1       7.246  -4.585  -0.198  0.00  0.00    +0.000 C 
ATOM      3  C   UNL     1       7.335  -5.102   1.200  0.00  0.00    +0.000 C 
ENDROOT
BRANCH   1  16
ATOM      4  C   UNL     1       0.663  -0.373   0.013  0.00  0.00    +0.000 C 
ATOM      5  C   UNL     1       2.172  -0.182   0.175  0.00  0.00    +0.000 C 
ATOM      6  C   UNL     1       2.672   1.079  -0.564  0.00  0.00    +0.000 C 
ATOM      7  O   UNL     1       2.615   0.937  -1.987  0.00  0.00    +0.000 OA
ATOM      8  C   UNL     1       3.453  -0.152  -2.406  0.00  0.00    +0.000 C 
ATOM      9  C   UNL     1       2.997  -1.492  -1.792  0.00  0.00    +0.000 C 
ATOM     10  C   UNL     1       3.833  -2.642  -2.341  0.00  0.00    +0.000 C 
ATOM     11  N   UNL     1       2.880  -1.394  -0.313  0.00  0.00    +0.000 N 
ATOM     12  C   UNL     1       3.643  -2.096   0.607  0.00  0.00    +0.000 A 
ATOM     13  C   UNL     1       3.159  -2.352   1.900  0.00  0.00    +0.000 A 
ATOM     14  N   UNL     1       3.866  -2.940   2.893  0.00  0.00    +0.000 NA
ATOM     15  C   UNL     1       5.118  -3.303   2.542  0.00  0.00    +0.000 A 
ATOM     16  C   UNL     1       5.643  -3.131   1.267  0.00  0.00    +0.000 A 
ATOM     17  N   UNL     1       4.884  -2.531   0.295  0.00  0.00    +0.000 NA
ENDBRANCH   1  16
BRANCH   1  18
ATOM     18  N   UNL     1       8.175  -2.723   1.365  0.00  0.00    +0.000 N 
ATOM     19  C   UNL     1       8.458  -1.439   0.904  0.00  0.00    +0.000 A 
ATOM     20  C   UNL     1       7.521  -0.548   0.393  0.00  0.00    +0.000 A 
ATOM     21  C   UNL     1       7.904   0.750   0.041  0.00  0.00    +0.000 A 
ATOM     22  C   UNL     1       9.231   1.133   0.204  0.00  0.00    +0.000 A 
ATOM     23  C   UNL     1      10.105   0.200   0.734  0.00  0.00    +0.000 A 
ATOM     24  N   UNL     1       9.747  -1.066   1.075  0.00  0.00    +0.000 NA
ATOM     25  H   UNL     1       9.075  -3.147   1.579  0.00  0.00    +0.000 HD
BRANCH  22  26
ATOM     26  C   UNL     1       9.731   2.481  -0.133  0.00  0.00    +0.000 C 
ATOM     27  N   UNL     1       9.033   3.198  -1.064  0.00  0.00    +0.000 N 
ATOM     28  O   UNL     1      10.750   2.929   0.373  0.00  0.00    +0.000 OA
ATOM     29  H   UNL     1       8.338   2.784  -1.669  0.00  0.00    +0.000 HD
ATOM     30  H   UNL     1       9.447   4.074  -1.358  0.00  0.00    +0.000 HD
ENDBRANCH  22  26
ENDBRANCH   1  18
TORSDOF 3
