REMARK  Name = 
REMARK  7 active torsions:
REMARK  status: ('A' for Active; 'I' for Inactive)
REMARK    1  A    between atoms: C_2  and  C_4
REMARK    2  A    between atoms: N_8  and  C_9
REMARK    3  A    between atoms: N_8  and  C_11
REMARK    4  A    between atoms: C_9  and  O_10
REMARK    5  A    between atoms: C_11  and  C_12
REMARK    6  A    between atoms: C_15  and  O_16
REMARK    7  A    between atoms: O_16  and  C_17
REMARK                            x       y       z     vdW  Elec       q    Type
REMARK                         _______ _______ _______ _____ _____    ______ ____
ROOT
ATOM      1  C   UNL     1       1.445  -0.714   7.085  0.00  0.00    +0.000 A 
ATOM      2  C   UNL     1       1.558  -1.437   5.924  0.00  0.00    +0.000 A 
ATOM      3  N   UNL     1       2.682  -1.462   5.163  0.00  0.00    +0.000 NA
ATOM      4  C   UNL     1       3.747  -0.746   5.583  0.00  0.00    +0.000 A 
ATOM      5  N   UNL     1       4.937  -0.822   4.853  0.00  0.00    +0.000 N 
ATOM      6  N   UNL     1       3.700   0.004   6.702  0.00  0.00    +0.000 NA
ATOM      7  C   UNL     1       2.551   0.026   7.414  0.00  0.00    +0.000 A 
ENDROOT
BRANCH   1   9
ATOM      8  N   UNL     1      -0.520  -1.825   7.968  0.00  0.00    +0.000 N 
ATOM      9  C   UNL     1       0.253  -0.697   7.940  0.00  0.00    +0.000 C 
ATOM     10  O   UNL     1      -0.011   0.272   8.641  0.00  0.00    +0.000 OA
ATOM     11  H   UNL     1      -1.254  -1.840   8.665  0.00  0.00    +0.000 HD
ATOM     12  H   UNL     1      -0.191  -2.724   7.638  0.00  0.00    +0.000 HD
ENDBRANCH   1   9
BRANCH   5  13
ATOM     13  C   UNL     1       6.154  -0.117   5.324  0.00  0.00    +0.000 C 
ATOM     14  C   UNL     1       6.111   1.388   5.586  0.00  0.00    +0.000 C 
ATOM     15  C   UNL     1       6.876   0.884   4.415  0.00  0.00    +0.000 C 
BRANCH  13  16
ATOM     16  C   UNL     1       7.084  -0.964   6.197  0.00  0.00    +0.000 A 
ATOM     17  C   UNL     1       8.005  -1.858   5.623  0.00  0.00    +0.000 A 
ATOM     18  C   UNL     1       9.034  -2.431   6.378  0.00  0.00    +0.000 A 
ATOM     19  C   UNL     1       9.174  -2.103   7.723  0.00  0.00    +0.000 A 
ATOM     20  C   UNL     1       8.179  -1.347   8.343  0.00  0.00    +0.000 A 
ATOM     21  C   UNL     1       7.141  -0.795   7.589  0.00  0.00    +0.000 A 
BRANCH  19  22
ATOM     22  O   UNL     1      10.197  -2.504   8.526  0.00  0.00    +0.000 OA
BRANCH  22  23
ATOM     23  C   UNL     1      11.512  -2.530   7.981  0.00  0.00    +0.000 C 
ATOM     24  F   UNL     1      11.602  -2.127   6.695  0.00  0.00    +0.000 F 
ATOM     25  F   UNL     1      12.309  -1.724   8.721  0.00  0.00    +0.000 F 
ATOM     26  F   UNL     1      11.996  -3.790   8.069  0.00  0.00    +0.000 F 
ENDBRANCH  22  23
ENDBRANCH  19  22
ENDBRANCH  13  16
ENDBRANCH   5  13
BRANCH   5  27
ATOM     27  C   UNL     1       4.836  -1.168   3.453  0.00  0.00    +0.000 C 
BRANCH  27  28
ATOM     28  O   UNL     1       4.338  -2.482   3.267  0.00  0.00    +0.000 OA
ATOM     29  H   UNL     1       3.600  -2.535   3.903  0.00  0.00    +0.000 HD
ENDBRANCH  27  28
ENDBRANCH   5  27
TORSDOF 7
