REMARK  Name = 
REMARK  8 active torsions:
REMARK  status: ('A' for Active; 'I' for Inactive)
REMARK    1  A    between atoms: C_2  and  C_23
REMARK    2  A    between atoms: N_3  and  C_4
REMARK    3  A    between atoms: C_4  and  C_5
REMARK    4  A    between atoms: C_8  and  C_9
REMARK    5  A    between atoms: C_9  and  O_10
REMARK    6  A    between atoms: C_9  and  C_11
REMARK    7  A    between atoms: C_11  and  N_12
REMARK    8  A    between atoms: C_13  and  C_15
REMARK                            x       y       z     vdW  Elec       q    Type
REMARK                         _______ _______ _______ _____ _____    ______ ____
ROOT
ATOM      1  C   UNL     1      10.530  -2.673 -14.406  0.00  0.00    +0.000 A 
ATOM      2  C   UNL     1      10.485  -1.499 -13.645  0.00  0.00    +0.000 A 
ATOM      3  C   UNL     1       9.286  -0.780 -13.507  0.00  0.00    +0.000 A 
ATOM      4  C   UNL     1       8.098  -1.210 -14.122  0.00  0.00    +0.000 A 
ATOM      5  C   UNL     1       8.145  -2.406 -14.855  0.00  0.00    +0.000 A 
ATOM      6  C   UNL     1       9.345  -3.127 -14.995  0.00  0.00    +0.000 A 
ENDROOT
BRANCH   1   7
ATOM      7  C   UNL     1      11.817  -3.452 -14.538  0.00  0.00    +0.000 C 
BRANCH   7  10
ATOM      8  O   UNL     1      13.912  -5.279 -14.255  0.00  0.00    +0.000 OA
ATOM      9  C   UNL     1      13.055  -5.228 -13.377  0.00  0.00    +0.000 C 
ATOM     10  N   UNL     1      11.954  -4.414 -13.472  0.00  0.00    +0.000 N 
ATOM     11  H   UNL     1      11.397  -4.245 -12.642  0.00  0.00    +0.000 HD
BRANCH   9  12
ATOM     12  C   UNL     1      13.132  -6.077 -12.180  0.00  0.00    +0.000 A 
ATOM     13  C   UNL     1      13.845  -7.268 -12.212  0.00  0.00    +0.000 A 
ATOM     14  S   UNL     1      13.795  -8.132 -10.741  0.00  0.00    +0.000 S 
ATOM     15  C   UNL     1      12.865  -6.919  -9.993  0.00  0.00    +0.000 A 
ATOM     16  N   UNL     1      12.493  -7.021  -8.688  0.00  0.00    +0.000 NA
ATOM     17  C   UNL     1      11.825  -6.011  -8.241  0.00  0.00    +0.000 A 
ATOM     18  N   UNL     1      11.488  -4.908  -8.984  0.00  0.00    +0.000 N 
ATOM     19  C   UNL     1      11.805  -4.780 -10.315  0.00  0.00    +0.000 A 
ATOM     20  O   UNL     1      11.426  -3.812 -10.967  0.00  0.00    +0.000 OA
ATOM     21  C   UNL     1      12.576  -5.881 -10.861  0.00  0.00    +0.000 A 
ATOM     22  H   UNL     1      10.952  -4.155  -8.580  0.00  0.00    +0.000 HD
ENDBRANCH   9  12
ENDBRANCH   7  10
ENDBRANCH   1   7
BRANCH   4  23
ATOM     23  C   UNL     1       6.820  -0.413 -13.900  0.00  0.00    +0.000 C 
BRANCH  23  24
ATOM     24  O   UNL     1       6.170  -0.915 -12.720  0.00  0.00    +0.000 OA
ATOM     25  H   UNL     1       6.383  -1.862 -12.657  0.00  0.00    +0.000 HD
ENDBRANCH  23  24
BRANCH  23  26
ATOM     26  C   UNL     1       5.793  -0.455 -15.053  0.00  0.00    +0.000 C 
BRANCH  26  27
ATOM     27  N   UNL     1       4.624   0.391 -14.818  0.00  0.00    +0.000 N 
ATOM     28  C   UNL     1       4.600   1.720 -15.204  0.00  0.00    +0.000 C 
ATOM     29  O   UNL     1       5.568   2.262 -15.732  0.00  0.00    +0.000 OA
ATOM     30  H   UNL     1       3.977   0.096 -14.096  0.00  0.00    +0.000 HD
BRANCH  28  31
ATOM     31  C   UNL     1       3.256   2.446 -14.916  0.00  0.00    +0.000 C 
ATOM     32  C   UNL     1       3.249   3.915 -15.364  0.00  0.00    +0.000 C 
ATOM     33  C   UNL     1       3.183   4.072 -16.883  0.00  0.00    +0.000 C 
ATOM     34  C   UNL     1       2.053   3.236 -17.471  0.00  0.00    +0.000 C 
ATOM     35  C   UNL     1       2.108   1.794 -16.976  0.00  0.00    +0.000 C 
ATOM     36  N   UNL     1       2.113   1.710 -15.512  0.00  0.00    +0.000 NA
ATOM     37  H   UNL     1       2.166   0.730 -15.243  0.00  0.00    +0.000 HD
ENDBRANCH  28  31
ENDBRANCH  26  27
ENDBRANCH  23  26
ENDBRANCH   4  23
TORSDOF 8
