REMARK  Name = 
REMARK  6 active torsions:
REMARK  status: ('A' for Active; 'I' for Inactive)
REMARK    1  A    between atoms: C_1  and  C_2
REMARK    2  A    between atoms: C_2  and  N_3
REMARK    3  A    between atoms: C_2  and  C_16
REMARK    4  A    between atoms: C_4  and  C_6
REMARK    5  A    between atoms: C_19  and  C_20
REMARK    6  A    between atoms: C_20  and  C_21
REMARK                            x       y       z     vdW  Elec       q    Type
REMARK                         _______ _______ _______ _____ _____    ______ ____
ROOT
ATOM      1  C   UNL     1       3.244  -0.070  -1.484  0.00  0.00    +0.000 C 
ATOM      2  C   UNL     1       2.527   0.072  -0.132  0.00  0.00    +0.000 C 
ENDROOT
BRANCH   2   3
ATOM      3  C   UNL     1       3.020   1.252   0.671  0.00  0.00    +0.000 A 
ATOM      4  C   UNL     1       3.267   2.491   0.080  0.00  0.00    +0.000 A 
ATOM      5  N   UNL     1       3.740   3.558   0.765  0.00  0.00    +0.000 NA
ATOM      6  C   UNL     1       3.945   3.362   2.093  0.00  0.00    +0.000 A 
ATOM      7  C   UNL     1       3.667   2.139   2.695  0.00  0.00    +0.000 A 
ATOM      8  N   UNL     1       3.211   1.069   2.005  0.00  0.00    +0.000 NA
BRANCH   6   9
ATOM      9  C   UNL     1       4.479   4.512   2.908  0.00  0.00    +0.000 C 
BRANCH   9  10
ATOM     10  C   UNL     1       3.403   5.376   3.521  0.00  0.00    +0.000 A 
ATOM     11  C   UNL     1       3.308   5.517   4.909  0.00  0.00    +0.000 A 
ATOM     12  C   UNL     1       2.278   6.283   5.431  0.00  0.00    +0.000 A 
ATOM     13  N   UNL     1       1.361   6.925   4.678  0.00  0.00    +0.000 NA
ATOM     14  C   UNL     1       1.482   6.795   3.339  0.00  0.00    +0.000 A 
ATOM     15  C   UNL     1       2.473   6.048   2.722  0.00  0.00    +0.000 A 
ENDBRANCH   9  10
ENDBRANCH   6   9
ENDBRANCH   2   3
BRANCH   2  16
ATOM     16  N   UNL     1       1.069   0.046  -0.210  0.00  0.00    +0.000 N 
ATOM     17  C   UNL     1       0.349   0.646  -1.206  0.00  0.00    +0.000 C 
ATOM     18  O   UNL     1       0.875   1.276  -2.121  0.00  0.00    +0.000 OA
ATOM     19  H   UNL     1       0.593  -0.122   0.676  0.00  0.00    +0.000 HD
BRANCH  17  20
ATOM     20  C   UNL     1      -1.096   0.436  -1.203  0.00  0.00    +0.000 A 
ATOM     21  C   UNL     1      -1.777   0.443  -2.412  0.00  0.00    +0.000 A 
ATOM     22  S   UNL     1      -3.452   0.186  -2.249  0.00  0.00    +0.000 S 
ATOM     23  C   UNL     1      -3.326   0.107  -0.555  0.00  0.00    +0.000 A 
ATOM     24  N   UNL     1      -4.434  -0.052   0.218  0.00  0.00    +0.000 NA
ATOM     25  C   UNL     1      -4.199  -0.040   1.489  0.00  0.00    +0.000 A 
ATOM     26  N   UNL     1      -2.957   0.097   2.055  0.00  0.00    +0.000 N 
ATOM     27  C   UNL     1      -1.802   0.185   1.312  0.00  0.00    +0.000 A 
ATOM     28  O   UNL     1      -0.692   0.194   1.833  0.00  0.00    +0.000 OA
ATOM     29  C   UNL     1      -2.020   0.233  -0.121  0.00  0.00    +0.000 A 
ATOM     30  H   UNL     1      -2.844   0.075   3.057  0.00  0.00    +0.000 HD
ENDBRANCH  17  20
ENDBRANCH   2  16
TORSDOF 5
