REMARK  Name = 
REMARK  7 active torsions:
REMARK  status: ('A' for Active; 'I' for Inactive)
REMARK    1  A    between atoms: C_2  and  C_20
REMARK    2  A    between atoms: N_3  and  C_4
REMARK    3  A    between atoms: C_4  and  C_5
REMARK    4  A    between atoms: C_8  and  C_9
REMARK    5  A    between atoms: C_9  and  N_10
REMARK    6  A    between atoms: N_10  and  C_11
REMARK    7  A    between atoms: C_11  and  C_12
REMARK                            x       y       z     vdW  Elec       q    Type
REMARK                         _______ _______ _______ _____ _____    ______ ____
ROOT
ATOM      1  C   UNL     1       3.199   3.135  -2.180  0.00  0.00    +0.000 C 
ATOM      2  C   UNL     1       4.622   2.740  -1.746  0.00  0.00    +0.000 C 
ATOM      3  C   UNL     1       5.661   3.818  -2.043  0.00  0.00    +0.000 C 
ATOM      4  C   UNL     1       5.272   5.205  -1.504  0.00  0.00    +0.000 C 
ATOM      5  C   UNL     1       3.853   5.585  -1.950  0.00  0.00    +0.000 C 
ATOM      6  C   UNL     1       2.817   4.513  -1.625  0.00  0.00    +0.000 C 
ENDROOT
BRANCH   1   7
ATOM      7  C   UNL     1       3.020   3.115  -3.707  0.00  0.00    +0.000 C 
BRANCH   7  10
ATOM      8  O   UNL     1       1.127   1.020  -3.786  0.00  0.00    +0.000 OA
ATOM      9  C   UNL     1       2.239   0.839  -4.274  0.00  0.00    +0.000 C 
ATOM     10  N   UNL     1       3.215   1.800  -4.259  0.00  0.00    +0.000 N 
ATOM     11  H   UNL     1       4.105   1.626  -4.714  0.00  0.00    +0.000 HD
BRANCH   9  12
ATOM     12  C   UNL     1       2.619  -0.443  -4.874  0.00  0.00    +0.000 A 
ATOM     13  C   UNL     1       1.903  -1.590  -4.561  0.00  0.00    +0.000 A 
ATOM     14  S   UNL     1       2.484  -2.988  -5.345  0.00  0.00    +0.000 S 
ATOM     15  C   UNL     1       3.684  -2.102  -6.161  0.00  0.00    +0.000 A 
ATOM     16  N   UNL     1       4.532  -2.712  -7.034  0.00  0.00    +0.000 NA
ATOM     17  C   UNL     1       5.371  -1.916  -7.609  0.00  0.00    +0.000 A 
ATOM     18  N   UNL     1       5.451  -0.566  -7.379  0.00  0.00    +0.000 N 
ATOM     19  C   UNL     1       4.669   0.079  -6.453  0.00  0.00    +0.000 A 
ATOM     20  O   UNL     1       4.859   1.260  -6.183  0.00  0.00    +0.000 OA
ATOM     21  C   UNL     1       3.671  -0.764  -5.816  0.00  0.00    +0.000 A 
ATOM     22  H   UNL     1       6.154  -0.006  -7.836  0.00  0.00    +0.000 HD
ENDBRANCH   9  12
ENDBRANCH   7  10
ENDBRANCH   1   7
BRANCH   4  23
ATOM     23  C   UNL     1       5.424   5.341   0.032  0.00  0.00    +0.000 C 
BRANCH  23  24
ATOM     24  N   UNL     1       6.765   5.068   0.562  0.00  0.00    +0.000 NA
ATOM     25  H   UNL     1       6.995   4.095   0.383  0.00  0.00    +0.000 HD
BRANCH  24  26
ATOM     26  C   UNL     1       7.789   5.951   0.004  0.00  0.00    +0.000 C 
BRANCH  26  27
ATOM     27  C   UNL     1       9.213   5.585   0.475  0.00  0.00    +0.000 C 
ATOM     28  C   UNL     1      10.239   6.553  -0.143  0.00  0.00    +0.000 C 
ATOM     29  C   UNL     1      10.427   6.315  -1.645  0.00  0.00    +0.000 C 
ATOM     30  N   UNL     1      10.798   4.931  -1.942  0.00  0.00    +0.000 NA
ATOM     31  C   UNL     1       9.829   3.977  -1.400  0.00  0.00    +0.000 C 
ATOM     32  C   UNL     1       9.636   4.151   0.107  0.00  0.00    +0.000 C 
ATOM     33  H   UNL     1      11.710   4.741  -1.522  0.00  0.00    +0.000 HD
ENDBRANCH  26  27
ENDBRANCH  24  26
ENDBRANCH  23  24
ENDBRANCH   4  23
TORSDOF 7
