REMARK  Name = 
REMARK  5 active torsions:
REMARK  status: ('A' for Active; 'I' for Inactive)
REMARK    1  A    between atoms: O_1  and  C_2
REMARK    2  A    between atoms: C_5  and  O_6
REMARK    3  A    between atoms: O_6  and  C_7
REMARK    4  A    between atoms: C_7  and  C_8
REMARK    5  A    between atoms: C_12  and  C_13
REMARK                            x       y       z     vdW  Elec       q    Type
REMARK                         _______ _______ _______ _____ _____    ______ ____
ROOT
ATOM      1  C   UNL     1      -5.464   1.993  -0.029  0.00  0.00    +0.000 A 
ATOM      2  C   UNL     1      -6.776   1.586  -0.120  0.00  0.00    +0.000 A 
ATOM      3  N   UNL     1      -7.790   2.470  -0.127  0.00  0.00    +0.000 NA
ATOM      4  N   UNL     1      -7.484   3.786  -0.045  0.00  0.00    +0.000 NA
ATOM      5  C   UNL     1      -6.187   4.162   0.050  0.00  0.00    +0.000 A 
ATOM      6  N   UNL     1      -5.147   3.303   0.064  0.00  0.00    +0.000 NA
ENDROOT
BRANCH   5   7
ATOM      7  C   UNL     1      -5.899   5.596   0.197  0.00  0.00    +0.000 A 
ATOM      8  C   UNL     1      -6.931   6.549   0.262  0.00  0.00    +0.000 A 
ATOM      9  C   UNL     1      -6.655   7.907   0.433  0.00  0.00    +0.000 A 
ATOM     10  C   UNL     1      -5.332   8.345   0.533  0.00  0.00    +0.000 A 
ATOM     11 CL   UNL     1      -5.061  10.034   0.762  0.00  0.00    +0.000 Cl
ATOM     12  C   UNL     1      -4.289   7.421   0.450  0.00  0.00    +0.000 A 
ATOM     13 CL   UNL     1      -2.627   7.886   0.526  0.00  0.00    +0.000 Cl
ATOM     14  C   UNL     1      -4.574   6.061   0.291  0.00  0.00    +0.000 A 
ENDBRANCH   5   7
BRANCH   1  15
ATOM     15  C   UNL     1      -4.355   0.970   0.017  0.00  0.00    +0.000 C 
BRANCH  15  16
ATOM     16  O   UNL     1      -3.911   0.653  -1.301  0.00  0.00    +0.000 OA
BRANCH  16  20
ATOM     17  C   UNL     1      -0.877  -2.149  -1.891  0.00  0.00    +0.000 A 
ATOM     18  C   UNL     1      -1.268  -1.878  -0.586  0.00  0.00    +0.000 A 
ATOM     19  C   UNL     1      -2.282  -0.940  -0.345  0.00  0.00    +0.000 A 
ATOM     20  C   UNL     1      -2.906  -0.275  -1.408  0.00  0.00    +0.000 A 
ATOM     21  C   UNL     1      -2.501  -0.557  -2.715  0.00  0.00    +0.000 A 
ATOM     22  C   UNL     1      -1.493  -1.490  -2.952  0.00  0.00    +0.000 A 
ATOM     23  F   UNL     1      -1.125  -1.744  -4.216  0.00  0.00    +0.000 F 
BRANCH  17  24
ATOM     24  O   UNL     1       0.108  -3.059  -2.155  0.00  0.00    +0.000 OA
ATOM     25  H   UNL     1       0.449  -3.416  -1.320  0.00  0.00    +0.000 HD
ENDBRANCH  17  24
ENDBRANCH  16  20
ENDBRANCH  15  16
ENDBRANCH   1  15
TORSDOF 5
