REMARK  Name = 
REMARK  8 active torsions:
REMARK  status: ('A' for Active; 'I' for Inactive)
REMARK    1  A    between atoms: C_2  and  C_4
REMARK    2  A    between atoms: N_8  and  C_9
REMARK    3  A    between atoms: C_9  and  C_10
REMARK    4  A    between atoms: C_10  and  C_11
REMARK    5  A    between atoms: C_10  and  C_13
REMARK    6  A    between atoms: C_11  and  O_12
REMARK    7  A    between atoms: C_17  and  C_18
REMARK    8  A    between atoms: C_18  and  C_19
REMARK                            x       y       z     vdW  Elec       q    Type
REMARK                         _______ _______ _______ _____ _____    ______ ____
ROOT
ATOM      1  C   UNL     1       6.039  -6.852   0.934  0.00  0.00    +0.000 C 
ENDROOT
BRANCH   1   2
ATOM      2  C   UNL     1       5.872  -8.249   0.319  0.00  0.00    +0.000 A 
ATOM      3  C   UNL     1       6.842  -9.235   0.572  0.00  0.00    +0.000 A 
ATOM      4  C   UNL     1       6.667 -10.548   0.134  0.00  0.00    +0.000 A 
ATOM      5  C   UNL     1       5.535 -10.895  -0.598  0.00  0.00    +0.000 A 
ATOM      6  C   UNL     1       4.580  -9.926  -0.918  0.00  0.00    +0.000 A 
ATOM      7  C   UNL     1       4.759  -8.612  -0.457  0.00  0.00    +0.000 A 
BRANCH   6   8
ATOM      8  C   UNL     1       3.350 -10.287  -1.715  0.00  0.00    +0.000 C 
BRANCH   8   9
ATOM      9  C   UNL     1       2.157 -10.458  -0.787  0.00  0.00    +0.000 C 
ATOM     10  C   UNL     1       2.133 -11.685   0.135  0.00  0.00    +0.000 C 
ATOM     11  O   UNL     1       0.883 -12.142  -0.429  0.00  0.00    +0.000 OA
ATOM     12  C   UNL     1       0.920 -11.098  -1.428  0.00  0.00    +0.000 C 
ENDBRANCH   8   9
ENDBRANCH   6   8
ENDBRANCH   1   2
BRANCH   1  13
ATOM     13  C   UNL     1       6.004  -6.985   2.481  0.00  0.00    +0.000 C 
BRANCH  13  18
ATOM     14  C   UNL     1       6.205  -5.410   7.296  0.00  0.00    +0.000 A 
ATOM     15  C   UNL     1       6.679  -6.600   6.751  0.00  0.00    +0.000 A 
ATOM     16  C   UNL     1       6.710  -6.750   5.363  0.00  0.00    +0.000 A 
ATOM     17  C   UNL     1       6.250  -5.719   4.551  0.00  0.00    +0.000 A 
ATOM     18  N   UNL     1       6.334  -5.739   3.165  0.00  0.00    +0.000 N 
ATOM     19  N   UNL     1       5.750  -4.579   5.067  0.00  0.00    +0.000 NA
ATOM     20  C   UNL     1       5.730  -4.447   6.421  0.00  0.00    +0.000 A 
ATOM     21  H   UNL     1       5.809  -4.915   2.877  0.00  0.00    +0.000 HD
BRANCH  14  23
ATOM     22  N   UNL     1       7.130  -5.789   9.507  0.00  0.00    +0.000 N 
ATOM     23  C   UNL     1       6.200  -5.136   8.744  0.00  0.00    +0.000 C 
ATOM     24  O   UNL     1       5.428  -4.326   9.246  0.00  0.00    +0.000 OA
ATOM     25  H   UNL     1       7.198  -5.508  10.478  0.00  0.00    +0.000 HD
ATOM     26  H   UNL     1       7.932  -6.255   9.104  0.00  0.00    +0.000 HD
ENDBRANCH  14  23
ENDBRANCH  13  18
ENDBRANCH   1  13
BRANCH   1  27
ATOM     27  C   UNL     1       4.997  -5.810   0.467  0.00  0.00    +0.000 C 
BRANCH  27  28
ATOM     28  O   UNL     1       5.023  -5.587  -0.943  0.00  0.00    +0.000 OA
ATOM     29  H   UNL     1       5.911  -5.808  -1.273  0.00  0.00    +0.000 HD
ENDBRANCH  27  28
ENDBRANCH   1  27
TORSDOF 8
