REMARK  Name = 
REMARK  5 active torsions:
REMARK  status: ('A' for Active; 'I' for Inactive)
REMARK    1  A    between atoms: C_1  and  C_2
REMARK    2  A    between atoms: C_6  and  C_7
REMARK    3  A    between atoms: C_7  and  N_8
REMARK    4  A    between atoms: N_8  and  C_9
REMARK    5  A    between atoms: C_12  and  C_13
REMARK                            x       y       z     vdW  Elec       q    Type
REMARK                         _______ _______ _______ _____ _____    ______ ____
ROOT
ATOM      1  C   UNL     1      -4.133  -3.260   0.749  0.00  0.00    +0.000 A 
ATOM      2  C   UNL     1      -5.360  -3.004   1.345  0.00  0.00    +0.000 A 
ATOM      3  N   UNL     1      -6.168  -3.944   1.892  0.00  0.00    +0.000 NA
ATOM      4  C   UNL     1      -5.711  -5.215   1.802  0.00  0.00    +0.000 A 
ATOM      5  N   UNL     1      -4.566  -5.600   1.210  0.00  0.00    +0.000 NA
ATOM      6  C   UNL     1      -3.817  -4.607   0.691  0.00  0.00    +0.000 A 
ENDROOT
BRANCH   4   7
ATOM      7  C   UNL     1      -6.581  -6.298   2.399  0.00  0.00    +0.000 C 
ATOM      8  N   UNL     1      -7.748  -5.880   2.988  0.00  0.00    +0.000 N 
ATOM      9  O   UNL     1      -6.297  -7.493   2.375  0.00  0.00    +0.000 OA
ATOM     10  H   UNL     1      -7.990  -4.895   2.998  0.00  0.00    +0.000 HD
ATOM     11  H   UNL     1      -8.371  -6.568   3.383  0.00  0.00    +0.000 HD
ENDBRANCH   4   7
BRANCH   1  12
ATOM     12  N   UNL     1      -3.384  -2.226   0.177  0.00  0.00    +0.000 N 
ATOM     13  H   UNL     1      -3.763  -1.973  -0.736  0.00  0.00    +0.000 HD
BRANCH  12  14
ATOM     14  C   UNL     1      -1.936  -2.435   0.080  0.00  0.00    +0.000 C 
BRANCH  14  20
ATOM     15  C   UNL     1      -0.894   1.967   2.282  0.00  0.00    +0.000 C 
ATOM     16  C   UNL     1      -0.690   1.019   1.139  0.00  0.00    +0.000 A 
ATOM     17  C   UNL     1       0.181   1.327   0.090  0.00  0.00    +0.000 A 
ATOM     18  C   UNL     1       0.353   0.435  -0.969  0.00  0.00    +0.000 A 
ATOM     19  C   UNL     1      -0.344  -0.775  -0.990  0.00  0.00    +0.000 A 
ATOM     20  C   UNL     1      -1.221  -1.105   0.050  0.00  0.00    +0.000 A 
ATOM     21  C   UNL     1      -1.379  -0.201   1.114  0.00  0.00    +0.000 A 
ENDBRANCH  14  20
ENDBRANCH  12  14
ENDBRANCH   1  12
TORSDOF 4
