REMARK  Name = 
REMARK  6 active torsions:
REMARK  status: ('A' for Active; 'I' for Inactive)
REMARK    1  A    between atoms: N_1  and  C_2
REMARK    2  A    between atoms: C_2  and  C_3
REMARK    3  A    between atoms: C_3  and  C_4
REMARK    4  A    between atoms: C_7  and  C_8
REMARK    5  A    between atoms: C_8  and  N_9
REMARK    6  A    between atoms: C_14  and  C_15
REMARK                            x       y       z     vdW  Elec       q    Type
REMARK                         _______ _______ _______ _____ _____    ______ ____
ROOT
ATOM      1  N   UNL     1       9.355   1.749   1.137  0.00  0.00    +0.000 N 
ATOM      2  N   UNL     1       9.629   0.652   1.876  0.00  0.00    +0.000 NA
ATOM      3  N   UNL     1      10.377   1.037   2.903  0.00  0.00    +0.000 NA
ATOM      4  C   UNL     1      10.583   2.387   2.802  0.00  0.00    +0.000 A 
ATOM      5  C   UNL     1      11.339   3.254   3.606  0.00  0.00    +0.000 A 
ATOM      6  C   UNL     1      11.398   4.611   3.255  0.00  0.00    +0.000 A 
ATOM      7  C   UNL     1      10.696   5.078   2.126  0.00  0.00    +0.000 A 
ATOM      8  C   UNL     1       9.938   4.223   1.318  0.00  0.00    +0.000 A 
ATOM      9  C   UNL     1       9.916   2.875   1.683  0.00  0.00    +0.000 A 
ENDROOT
BRANCH   6  10
ATOM     10  C   UNL     1      12.195   5.613   4.021  0.00  0.00    +0.000 C 
ATOM     11  N   UNL     1      12.901   5.202   5.115  0.00  0.00    +0.000 N 
ATOM     12  O   UNL     1      12.229   6.792   3.684  0.00  0.00    +0.000 OA
ATOM     13  H   UNL     1      12.930   4.262   5.478  0.00  0.00    +0.000 HD
ATOM     14  H   UNL     1      13.429   5.910   5.606  0.00  0.00    +0.000 HD
ENDBRANCH   6  10
BRANCH   1  15
ATOM     15  C   UNL     1       8.731   1.606  -0.166  0.00  0.00    +0.000 C 
BRANCH  15  19
ATOM     16  C   UNL     1       4.477   1.531   0.077  0.00  0.00    +0.000 A 
ATOM     17  C   UNL     1       5.103   2.762  -0.094  0.00  0.00    +0.000 A 
ATOM     18  C   UNL     1       6.493   2.806  -0.187  0.00  0.00    +0.000 A 
ATOM     19  C   UNL     1       7.232   1.624  -0.091  0.00  0.00    +0.000 A 
ATOM     20  C   UNL     1       6.520   0.443   0.085  0.00  0.00    +0.000 A 
ATOM     21  N   UNL     1       5.172   0.373   0.165  0.00  0.00    +0.000 NA
BRANCH  16  22
ATOM     22  C   UNL     1       2.977   1.444   0.199  0.00  0.00    +0.000 C 
BRANCH  22  23
ATOM     23  C   UNL     1       2.532   1.558   1.658  0.00  0.00    +0.000 C 
BRANCH  23  24
ATOM     24  N   UNL     1       1.072   1.488   1.769  0.00  0.00    +0.000 NA
ATOM     25  H   UNL     1       0.814   1.507   2.756  0.00  0.00    +0.000 HD
ATOM     26  H   UNL     1       0.753   0.585   1.417  0.00  0.00    +0.000 HD
ENDBRANCH  23  24
ENDBRANCH  22  23
ENDBRANCH  16  22
ENDBRANCH  15  19
ENDBRANCH   1  15
TORSDOF 6
