REMARK  Name = 
REMARK  4 active torsions:
REMARK  status: ('A' for Active; 'I' for Inactive)
REMARK    1  A    between atoms: C_2  and  C_3
REMARK    2  A    between atoms: C_6  and  C_7
REMARK    3  A    between atoms: C_7  and  N_8
REMARK    4  A    between atoms: C_12  and  C_13
REMARK                            x       y       z     vdW  Elec       q    Type
REMARK                         _______ _______ _______ _____ _____    ______ ____
ROOT
ATOM      1  N   UNL     1       8.195   1.466   0.783  0.00  0.00    +0.000 N 
ATOM      2  C   UNL     1       8.278   2.748   0.245  0.00  0.00    +0.000 A 
ATOM      3  N   UNL     1       7.691   3.100  -0.909  0.00  0.00    +0.000 NA
ATOM      4  C   UNL     1       7.817   4.400  -1.287  0.00  0.00    +0.000 A 
ATOM      5  C   UNL     1       8.496   5.352  -0.553  0.00  0.00    +0.000 A 
ATOM      6  C   UNL     1       9.077   4.883   0.597  0.00  0.00    +0.000 A 
ATOM      7  N   UNL     1       8.980   3.602   1.011  0.00  0.00    +0.000 NA
ATOM      8  H   UNL     1       8.892   1.428   1.519  0.00  0.00    +0.000 HD
ENDROOT
BRANCH   5   9
ATOM      9  C   UNL     1       8.615   6.741  -1.017  0.00  0.00    +0.000 C 
ATOM     10  N   UNL     1       8.818   7.718  -0.080  0.00  0.00    +0.000 N 
ATOM     11  O   UNL     1       8.523   7.014  -2.206  0.00  0.00    +0.000 OA
ATOM     12  H   UNL     1       8.759   7.585   0.920  0.00  0.00    +0.000 HD
ATOM     13  H   UNL     1       8.839   8.674  -0.418  0.00  0.00    +0.000 HD
ENDBRANCH   5   9
BRANCH   1  14
ATOM     14  C   UNL     1       7.858   0.254   0.042  0.00  0.00    +0.000 C 
ATOM     15  C   UNL     1       8.777  -0.318  -1.019  0.00  0.00    +0.000 C 
ATOM     16  C   UNL     1       8.765  -0.947   0.333  0.00  0.00    +0.000 C 
BRANCH  14  20
ATOM     17  C   UNL     1       3.717  -0.628  -0.315  0.00  0.00    +0.000 A 
ATOM     18  N   UNL     1       4.268   0.130  -1.279  0.00  0.00    +0.000 NA
ATOM     19  C   UNL     1       5.581   0.421  -1.120  0.00  0.00    +0.000 A 
ATOM     20  C   UNL     1       6.370  -0.021  -0.070  0.00  0.00    +0.000 A 
ATOM     21  C   UNL     1       5.663  -0.759   0.868  0.00  0.00    +0.000 A 
ATOM     22  N   UNL     1       4.355  -1.090   0.778  0.00  0.00    +0.000 NA
BRANCH  17  24
ATOM     23  N   UNL     1       1.232  -1.346  -0.616  0.00  0.00    +0.000 NA
ATOM     24  C   UNL     1       2.339  -1.018  -0.481  0.00  0.00    +0.000 C 
ENDBRANCH  17  24
ENDBRANCH  14  20
ENDBRANCH   1  14
TORSDOF 4
