REMARK  Name = 
REMARK  7 active torsions:
REMARK  status: ('A' for Active; 'I' for Inactive)
REMARK    1  A    between atoms: N_1  and  C_2
REMARK    2  A    between atoms: C_2  and  C_3
REMARK    3  A    between atoms: C_2  and  C_19
REMARK    4  A    between atoms: C_3  and  C_4
REMARK    5  A    between atoms: C_7  and  C_8
REMARK    6  A    between atoms: C_8  and  N_9
REMARK    7  A    between atoms: C_10  and  C_12
REMARK                            x       y       z     vdW  Elec       q    Type
REMARK                         _______ _______ _______ _____ _____    ______ ____
ROOT
ATOM      1  C   UNL     1       1.051   0.025   0.101  0.00  0.00    +0.000 C 
ENDROOT
BRANCH   1   2
ATOM      2  C   UNL     1       0.524  -0.406   1.457  0.00  0.00    +0.000 A 
ATOM      3  C   UNL     1       1.376  -0.596   2.551  0.00  0.00    +0.000 A 
ATOM      4  C   UNL     1       0.863  -0.945   3.809  0.00  0.00    +0.000 A 
ATOM      5  C   UNL     1      -0.516  -1.100   4.009  0.00  0.00    +0.000 A 
ATOM      6  C   UNL     1      -1.373  -0.865   2.927  0.00  0.00    +0.000 A 
ATOM      7  C   UNL     1      -0.858  -0.529   1.667  0.00  0.00    +0.000 A 
BRANCH   5   8
ATOM      8  C   UNL     1      -1.061  -1.484   5.363  0.00  0.00    +0.000 C 
BRANCH   8   9
ATOM      9  N   UNL     1      -1.303  -0.329   6.188  0.00  0.00    +0.000 N 
ATOM     10  C   UNL     1      -1.831  -0.422   7.459  0.00  0.00    +0.000 C 
ATOM     11  O   UNL     1      -2.136  -1.495   7.971  0.00  0.00    +0.000 OA
ATOM     12  H   UNL     1      -1.030   0.591   5.861  0.00  0.00    +0.000 HD
BRANCH  10  13
ATOM     13  C   UNL     1      -1.981   0.862   8.119  0.00  0.00    +0.000 A 
ATOM     14  C   UNL     1      -2.429   1.206   9.381  0.00  0.00    +0.000 A 
ATOM     15  C   UNL     1      -2.360   2.619   9.471  0.00  0.00    +0.000 A 
ATOM     16  C   UNL     1      -1.882   3.055   8.259  0.00  0.00    +0.000 A 
ATOM     17  O   UNL     1      -1.644   2.004   7.435  0.00  0.00    +0.000 OA
ENDBRANCH  10  13
ENDBRANCH   8   9
ENDBRANCH   5   8
ENDBRANCH   1   2
BRANCH   1  18
ATOM     18  C   UNL     1       2.136  -0.855  -0.582  0.00  0.00    +0.000 C 
BRANCH  18  19
ATOM     19  C   UNL     1       2.567  -0.271  -1.920  0.00  0.00    +0.000 A 
ATOM     20  C   UNL     1       1.704   0.013  -2.970  0.00  0.00    +0.000 A 
ATOM     21  S   UNL     1       2.494   0.613  -4.358  0.00  0.00    +0.000 S 
ATOM     22  C   UNL     1       4.016   0.516  -3.603  0.00  0.00    +0.000 A 
ATOM     23  N   UNL     1       5.150   0.877  -4.261  0.00  0.00    +0.000 NA
ATOM     24  C   UNL     1       6.230   0.737  -3.567  0.00  0.00    +0.000 A 
ATOM     25  N   UNL     1       6.281   0.273  -2.276  0.00  0.00    +0.000 N 
ATOM     26  C   UNL     1       5.161  -0.088  -1.566  0.00  0.00    +0.000 A 
ATOM     27  O   UNL     1       5.243  -0.476  -0.403  0.00  0.00    +0.000 OA
ATOM     28  C   UNL     1       3.923   0.037  -2.309  0.00  0.00    +0.000 A 
ATOM     29  H   UNL     1       7.159   0.197  -1.788  0.00  0.00    +0.000 HD
ENDBRANCH  18  19
BRANCH  18  30
ATOM     30  N   UNL     1       1.726  -2.236  -0.859  0.00  0.00    +0.000 NA
ATOM     31  H   UNL     1       2.524  -2.730  -1.261  0.00  0.00    +0.000 HD
ATOM     32  H   UNL     1       1.001  -2.251  -1.572  0.00  0.00    +0.000 HD
ENDBRANCH  18  30
ENDBRANCH   1  18
TORSDOF 7
