REMARK  Name = 
REMARK  8 active torsions:
REMARK  status: ('A' for Active; 'I' for Inactive)
REMARK    1  A    between atoms: N_1  and  C_2
REMARK    2  A    between atoms: C_2  and  C_3
REMARK    3  A    between atoms: C_2  and  C_17
REMARK    4  A    between atoms: C_3  and  N_4
REMARK    5  A    between atoms: C_5  and  C_7
REMARK    6  A    between atoms: C_20  and  C_21
REMARK    7  A    between atoms: C_21  and  N_22
REMARK    8  A    between atoms: C_23  and  C_25
REMARK                            x       y       z     vdW  Elec       q    Type
REMARK                         _______ _______ _______ _____ _____    ______ ____
ROOT
ATOM      1  C   UNL     1       2.398   0.142  -0.103  0.00  0.00    +0.000 C 
ENDROOT
BRANCH   1   2
ATOM      2  C   UNL     1       2.910   1.550  -0.442  0.00  0.00    +0.000 A 
ATOM      3  C   UNL     1       2.229   2.697  -0.043  0.00  0.00    +0.000 A 
ATOM      4  C   UNL     1       2.706   3.949  -0.432  0.00  0.00    +0.000 A 
ATOM      5  C   UNL     1       3.882   4.050  -1.174  0.00  0.00    +0.000 A 
ATOM      6  C   UNL     1       4.539   2.865  -1.474  0.00  0.00    +0.000 A 
ATOM      7  N   UNL     1       4.082   1.633  -1.136  0.00  0.00    +0.000 NA
BRANCH   5   8
ATOM      8  C   UNL     1       4.388   5.378  -1.652  0.00  0.00    +0.000 C 
BRANCH   8   9
ATOM      9  N   UNL     1       3.859   5.719  -2.952  0.00  0.00    +0.000 N 
ATOM     10  C   UNL     1       4.049   6.971  -3.500  0.00  0.00    +0.000 C 
ATOM     11  O   UNL     1       4.649   7.873  -2.926  0.00  0.00    +0.000 OA
ATOM     12  H   UNL     1       3.406   5.020  -3.533  0.00  0.00    +0.000 HD
BRANCH  10  13
ATOM     13  C   UNL     1       3.470   7.171  -4.867  0.00  0.00    +0.000 A 
ATOM     14  C   UNL     1       3.670   8.377  -5.510  0.00  0.00    +0.000 A 
ATOM     15  C   UNL     1       3.102   8.482  -6.754  0.00  0.00    +0.000 A 
ATOM     16  N   UNL     1       2.392   7.491  -7.324  0.00  0.00    +0.000 NA
ATOM     17  C   UNL     1       2.262   6.362  -6.609  0.00  0.00    +0.000 A 
ATOM     18  N   UNL     1       2.776   6.130  -5.393  0.00  0.00    +0.000 NA
ENDBRANCH  10  13
ENDBRANCH   8   9
ENDBRANCH   5   8
ENDBRANCH   1   2
BRANCH   1  19
ATOM     19  N   UNL     1       2.900  -0.864  -1.071  0.00  0.00    +0.000 NA
ATOM     20  H   UNL     1       3.896  -0.662  -1.199  0.00  0.00    +0.000 HD
ATOM     21  H   UNL     1       2.483  -0.649  -1.983  0.00  0.00    +0.000 HD
ENDBRANCH   1  19
BRANCH   1  22
ATOM     22  C   UNL     1       0.853   0.007   0.008  0.00  0.00    +0.000 C 
BRANCH  22  23
ATOM     23  N   UNL     1       0.133   0.363  -1.207  0.00  0.00    +0.000 N 
ATOM     24  C   UNL     1      -1.125  -0.110  -1.484  0.00  0.00    +0.000 C 
ATOM     25  O   UNL     1      -1.753  -0.821  -0.707  0.00  0.00    +0.000 OA
ATOM     26  H   UNL     1       0.585   0.990  -1.860  0.00  0.00    +0.000 HD
BRANCH  24  27
ATOM     27  C   UNL     1      -1.716   0.375  -2.735  0.00  0.00    +0.000 A 
ATOM     28  C   UNL     1      -3.090   0.520  -2.857  0.00  0.00    +0.000 A 
ATOM     29  S   UNL     1      -3.567   1.204  -4.348  0.00  0.00    +0.000 S 
ATOM     30  C   UNL     1      -1.957   1.270  -4.897  0.00  0.00    +0.000 A 
ATOM     31  N   UNL     1      -1.644   1.784  -6.119  0.00  0.00    +0.000 NA
ATOM     32  C   UNL     1      -0.390   1.738  -6.412  0.00  0.00    +0.000 A 
ATOM     33  N   UNL     1       0.585   1.213  -5.602  0.00  0.00    +0.000 N 
ATOM     34  C   UNL     1       0.317   0.665  -4.370  0.00  0.00    +0.000 A 
ATOM     35  O   UNL     1       1.209   0.174  -3.687  0.00  0.00    +0.000 OA
ATOM     36  C   UNL     1      -1.074   0.747  -3.970  0.00  0.00    +0.000 A 
ATOM     37  H   UNL     1       1.547   1.179  -5.902  0.00  0.00    +0.000 HD
ENDBRANCH  24  27
ENDBRANCH  22  23
ENDBRANCH   1  22
TORSDOF 8
