REMARK  Name = 
REMARK  10 active torsions:
REMARK  status: ('A' for Active; 'I' for Inactive)
REMARK    1  A    between atoms: C_1  and  C_2
REMARK    2  A    between atoms: C_2  and  N_3
REMARK    3  A    between atoms: N_3  and  C_4
REMARK    4  A    between atoms: C_4  and  C_5
REMARK    5  A    between atoms: C_8  and  O_9
REMARK    6  A    between atoms: O_9  and  C_10
REMARK    7  A    between atoms: C_10  and  C_11
REMARK    8  A    between atoms: C_14  and  C_15
REMARK    9  A    between atoms: C_15  and  N_16
REMARK   10  A    between atoms: C_17  and  C_19
REMARK                            x       y       z     vdW  Elec       q    Type
REMARK                         _______ _______ _______ _____ _____    ______ ____
ROOT
ATOM      1  C   UNL     1       6.434   3.661   8.245  0.00  0.00    +0.000 A 
ATOM      2  C   UNL     1       6.538   4.948   8.773  0.00  0.00    +0.000 A 
ATOM      3  C   UNL     1       6.949   5.124  10.097  0.00  0.00    +0.000 A 
ATOM      4  C   UNL     1       7.266   4.004  10.863  0.00  0.00    +0.000 A 
ATOM      5  N   UNL     1       7.171   2.744  10.366  0.00  0.00    +0.000 NA
ATOM      6  C   UNL     1       6.776   2.603   9.078  0.00  0.00    +0.000 A 
ENDROOT
BRANCH   1   7
ATOM      7  C   UNL     1       5.954   3.438   6.839  0.00  0.00    +0.000 C 
BRANCH   7   8
ATOM      8  O   UNL     1       7.057   3.468   5.936  0.00  0.00    +0.000 OA
BRANCH   8  12
ATOM      9  C   UNL     1       6.453   2.926   1.894  0.00  0.00    +0.000 A 
ATOM     10  C   UNL     1       5.324   2.920   2.710  0.00  0.00    +0.000 A 
ATOM     11  C   UNL     1       5.475   3.109   4.082  0.00  0.00    +0.000 A 
ATOM     12  C   UNL     1       6.748   3.296   4.614  0.00  0.00    +0.000 A 
ATOM     13  C   UNL     1       7.815   3.306   3.722  0.00  0.00    +0.000 A 
ATOM     14  N   UNL     1       7.701   3.128   2.383  0.00  0.00    +0.000 NA
BRANCH   9  15
ATOM     15  C   UNL     1       6.304   2.753   0.396  0.00  0.00    +0.000 C 
BRANCH  15  16
ATOM     16  N   UNL     1       5.409   3.741  -0.232  0.00  0.00    +0.000 NA
ATOM     17  H   UNL     1       5.353   3.532  -1.228  0.00  0.00    +0.000 HD
BRANCH  16  19
ATOM     18  C   UNL     1       4.976   6.094  -0.700  0.00  0.00    +0.000 C 
ATOM     19  C   UNL     1       5.930   5.101  -0.060  0.00  0.00    +0.000 C 
ENDBRANCH  16  19
ENDBRANCH  15  16
ENDBRANCH   9  15
ENDBRANCH   8  12
ENDBRANCH   7   8
ENDBRANCH   1   7
BRANCH   4  20
ATOM     20  C   UNL     1       7.714   4.156  12.302  0.00  0.00    +0.000 C 
BRANCH  20  21
ATOM     21  N   UNL     1       6.598   4.101  13.228  0.00  0.00    +0.000 N 
ATOM     22  C   UNL     1       6.607   4.763  14.422  0.00  0.00    +0.000 C 
ATOM     23  O   UNL     1       7.536   5.490  14.773  0.00  0.00    +0.000 OA
ATOM     24  H   UNL     1       5.997   3.290  13.121  0.00  0.00    +0.000 HD
BRANCH  22  25
ATOM     25  C   UNL     1       5.392   4.630  15.237  0.00  0.00    +0.000 A 
ATOM     26  C   UNL     1       5.030   5.642  16.118  0.00  0.00    +0.000 A 
ATOM     27  S   UNL     1       3.566   5.338  16.941  0.00  0.00    +0.000 S 
ATOM     28  C   UNL     1       3.393   3.822  16.189  0.00  0.00    +0.000 A 
ATOM     29  N   UNL     1       2.341   3.010  16.480  0.00  0.00    +0.000 NA
ATOM     30  C   UNL     1       2.351   1.879  15.856  0.00  0.00    +0.000 A 
ATOM     31  N   UNL     1       3.313   1.490  14.959  0.00  0.00    +0.000 N 
ATOM     32  C   UNL     1       4.364   2.296  14.599  0.00  0.00    +0.000 A 
ATOM     33  O   UNL     1       5.162   1.951  13.735  0.00  0.00    +0.000 OA
ATOM     34  C   UNL     1       4.420   3.565  15.299  0.00  0.00    +0.000 A 
ATOM     35  H   UNL     1       3.252   0.600  14.487  0.00  0.00    +0.000 HD
ENDBRANCH  22  25
ENDBRANCH  20  21
ENDBRANCH   4  20
TORSDOF 9
