REMARK  Name = 
REMARK  11 active torsions:
REMARK  status: ('A' for Active; 'I' for Inactive)
REMARK    1  A    between atoms: C_1  and  C_2
REMARK    2  A    between atoms: C_2  and  N_3
REMARK    3  A    between atoms: C_2  and  C_22
REMARK    4  A    between atoms: N_3  and  C_4
REMARK    5  A    between atoms: C_4  and  C_5
REMARK    6  A    between atoms: C_8  and  C_9
REMARK    7  A    between atoms: C_9  and  N_10
REMARK    8  A    between atoms: N_10  and  CA_11
REMARK    9  A    between atoms: CA_11  and  C_12
REMARK   10  A    between atoms: CA_11  and  C_14
REMARK   11  A    between atoms: C_12  and  O_13
REMARK                            x       y       z     vdW  Elec       q    Type
REMARK                         _______ _______ _______ _____ _____    ______ ____
ROOT
ATOM      1  C   UNL     1      -8.797  -0.602  -4.498  0.00  0.00    +0.000 A 
ATOM      2  N   UNL     1      -8.738   0.423  -3.623  0.00  0.00    +0.000 NA
ATOM      3  C   UNL     1      -8.385   0.119  -2.357  0.00  0.00    +0.000 A 
ATOM      4  C   UNL     1      -8.106  -1.163  -1.927  0.00  0.00    +0.000 A 
ATOM      5  C   UNL     1      -8.210  -2.134  -2.900  0.00  0.00    +0.000 A 
ATOM      6  N   UNL     1      -8.552  -1.890  -4.177  0.00  0.00    +0.000 NA
ENDROOT
BRANCH   1   7
ATOM      7  C   UNL     1      -9.344  -0.336  -5.890  0.00  0.00    +0.000 C 
BRANCH   7   8
ATOM      8  N   UNL     1      -8.601   0.635  -6.735  0.00  0.00    +0.000 NA
ATOM      9  H   UNL     1      -7.653   0.278  -6.858  0.00  0.00    +0.000 HD
BRANCH   8  11
ATOM     10  C   UNL     1     -10.714   1.202  -7.948  0.00  0.00    +0.000 C 
ATOM     11  C   UNL     1      -9.244   0.739  -8.053  0.00  0.00    +0.000 C 
BRANCH  11  12
ATOM     12  C   UNL     1      -8.535   1.746  -8.934  0.00  0.00    +0.000 A 
ATOM     13  C   UNL     1      -8.358   3.086  -8.622  0.00  0.00    +0.000 A 
ATOM     14  S   UNL     1      -8.195   4.058 -10.024  0.00  0.00    +0.000 S 
ATOM     15  C   UNL     1      -8.195   2.691 -11.041  0.00  0.00    +0.000 A 
ATOM     16  N   UNL     1      -8.213   2.801 -12.398  0.00  0.00    +0.000 NA
ATOM     17  C   UNL     1      -8.127   1.672 -13.021  0.00  0.00    +0.000 A 
ATOM     18  N   UNL     1      -7.984   0.448 -12.414  0.00  0.00    +0.000 N 
ATOM     19  C   UNL     1      -7.984   0.286 -11.047  0.00  0.00    +0.000 A 
ATOM     20  O   UNL     1      -7.797  -0.808 -10.526  0.00  0.00    +0.000 OA
ATOM     21  C   UNL     1      -8.179   1.519 -10.311  0.00  0.00    +0.000 A 
ATOM     22  H   UNL     1      -7.827  -0.385 -12.961  0.00  0.00    +0.000 HD
ENDBRANCH  11  12
ENDBRANCH   8  11
ENDBRANCH   7   8
ENDBRANCH   1   7
BRANCH   4  23
ATOM     23  C   UNL     1      -7.623  -1.476  -0.550  0.00  0.00    +0.000 C 
BRANCH  23  24
ATOM     24  N   UNL     1      -8.551  -1.048   0.496  0.00  0.00    +0.000 NA
ATOM     25  H   UNL     1      -9.479  -1.437   0.336  0.00  0.00    +0.000 HD
BRANCH  24  26
ATOM     26  CA  UNL     1      -8.073  -1.441   1.847  0.00  0.00    +0.000 C 
BRANCH  26  27
ATOM     27  C   UNL     1      -6.747  -0.775   2.203  0.00  0.00    +0.000 A 
ATOM     28  C   UNL     1      -5.599  -1.543   2.383  0.00  0.00    +0.000 A 
ATOM     29  N   UNL     1      -4.368  -0.999   2.537  0.00  0.00    +0.000 NA
ATOM     30  C   UNL     1      -4.328   0.349   2.512  0.00  0.00    +0.000 A 
ATOM     31  C   UNL     1      -5.461   1.124   2.349  0.00  0.00    +0.000 A 
ATOM     32  N   UNL     1      -6.696   0.586   2.207  0.00  0.00    +0.000 NA
ENDBRANCH  26  27
BRANCH  26  33
ATOM     33  C   UNL     1      -9.137  -1.126   2.929  0.00  0.00    +0.000 C 
BRANCH  33  34
ATOM     34  O   UNL     1      -9.500   0.251   2.991  0.00  0.00    +0.000 OA
ATOM     35  H   UNL     1      -8.717   0.758   2.685  0.00  0.00    +0.000 HD
ENDBRANCH  33  34
ENDBRANCH  26  33
ENDBRANCH  24  26
ENDBRANCH  23  24
ENDBRANCH   4  23
TORSDOF 10
