REMARK  Name = 
REMARK  7 active torsions:
REMARK  status: ('A' for Active; 'I' for Inactive)
REMARK    1  A    between atoms: C_1  and  C_2
REMARK    2  A    between atoms: C_2  and  C_3
REMARK    3  A    between atoms: C_2  and  C_15
REMARK    4  A    between atoms: C_3  and  N_4
REMARK    5  A    between atoms: N_4  and  C_5
REMARK    6  A    between atoms: C_8  and  S_9
REMARK    7  A    between atoms: S_9  and  N_10
REMARK                            x       y       z     vdW  Elec       q    Type
REMARK                         _______ _______ _______ _____ _____    ______ ____
ROOT
ATOM      1  C   UNL     1       2.971   0.200   3.695  0.00  0.00    +0.000 A 
ATOM      2  C   UNL     1       3.994  -0.676   4.082  0.00  0.00    +0.000 A 
ATOM      3  C   UNL     1       4.432  -0.743   5.408  0.00  0.00    +0.000 A 
ATOM      4  C   UNL     1       3.821   0.055   6.373  0.00  0.00    +0.000 A 
ATOM      5  C   UNL     1       2.757   0.887   6.030  0.00  0.00    +0.000 A 
ATOM      6  C   UNL     1       2.340   0.955   4.697  0.00  0.00    +0.000 A 
ENDROOT
BRANCH   4   7
ATOM      7  S   UNL     1       4.372  -0.023   8.049  0.00  0.00    +0.000 S 
ATOM      8  O   UNL     1       3.298   0.380   8.926  0.00  0.00    +0.000 OA
ATOM      9  O   UNL     1       5.124  -1.240   8.252  0.00  0.00    +0.000 OA
BRANCH   7  10
ATOM     10  N   UNL     1       5.496   1.223   8.090  0.00  0.00    +0.000 NA
ATOM     11  H   UNL     1       5.190   1.946   8.741  0.00  0.00    +0.000 HD
ATOM     12  H   UNL     1       6.424   0.848   8.288  0.00  0.00    +0.000 HD
ENDBRANCH   7  10
ENDBRANCH   4   7
BRANCH   1  13
ATOM     13  N   UNL     1       2.465   0.279   2.390  0.00  0.00    +0.000 N 
ATOM     14  H   UNL     1       2.231   1.235   2.134  0.00  0.00    +0.000 HD
BRANCH  13  15
ATOM     15  C   UNL     1       3.128  -0.456   1.327  0.00  0.00    +0.000 C 
BRANCH  15  17
ATOM     16  C   UNL     1       0.982  -0.439  -0.127  0.00  0.00    +0.000 C 
ATOM     17  C   UNL     1       2.451  -0.179   0.016  0.00  0.00    +0.000 C 
BRANCH  17  18
ATOM     18  C   UNL     1       3.285  -0.434  -1.168  0.00  0.00    +0.000 A 
ATOM     19  C   UNL     1       4.026   0.603  -1.741  0.00  0.00    +0.000 A 
ATOM     20  C   UNL     1       4.853   0.347  -2.837  0.00  0.00    +0.000 A 
ATOM     21  C   UNL     1       4.946  -0.943  -3.359  0.00  0.00    +0.000 A 
ATOM     22  C   UNL     1       4.211  -1.980  -2.790  0.00  0.00    +0.000 A 
ATOM     23  C   UNL     1       3.380  -1.726  -1.699  0.00  0.00    +0.000 A 
ENDBRANCH  17  18
ENDBRANCH  15  17
ENDBRANCH  13  15
ENDBRANCH   1  13
TORSDOF 6
