REMARK  Name = 
REMARK  8 active torsions:
REMARK  status: ('A' for Active; 'I' for Inactive)
REMARK    1  A    between atoms: C_2  and  C_4
REMARK    2  A    between atoms: C_7  and  N_8
REMARK    3  A    between atoms: N_8  and  C_9
REMARK    4  A    between atoms: C_9  and  C_10
REMARK    5  A    between atoms: C_10  and  N_11
REMARK    6  A    between atoms: C_13  and  N_14
REMARK    7  A    between atoms: N_14  and  C_15
REMARK    8  A    between atoms: C_17  and  O_18
REMARK                            x       y       z     vdW  Elec       q    Type
REMARK                         _______ _______ _______ _____ _____    ______ ____
ROOT
ATOM      1  C   UNL     1       4.987   2.703   5.566  0.00  0.00    +0.000 C 
ENDROOT
BRANCH   1   2
ATOM      2  N   UNL     1       5.415   2.671   4.166  0.00  0.00    +0.000 N 
ATOM      3  H   UNL     1       5.830   3.526   3.802  0.00  0.00    +0.000 HD
BRANCH   2   7
ATOM      4  C   UNL     1       3.274   0.512   1.229  0.00  0.00    +0.000 A 
ATOM      5  C   UNL     1       2.791   0.562   2.537  0.00  0.00    +0.000 A 
ATOM      6  C   UNL     1       3.478   1.293   3.513  0.00  0.00    +0.000 A 
ATOM      7  C   UNL     1       4.642   2.008   3.208  0.00  0.00    +0.000 A 
ATOM      8  C   UNL     1       5.121   1.938   1.893  0.00  0.00    +0.000 A 
ATOM      9  C   UNL     1       4.450   1.195   0.910  0.00  0.00    +0.000 A 
BRANCH   4  11
ATOM     10  N   UNL     1       1.264  -0.521   0.314  0.00  0.00    +0.000 N 
ATOM     11  C   UNL     1       2.607  -0.299   0.177  0.00  0.00    +0.000 C 
ATOM     12  O   UNL     1       3.221  -0.733  -0.789  0.00  0.00    +0.000 OA
ATOM     13  H   UNL     1       0.809  -1.006  -0.449  0.00  0.00    +0.000 HD
ATOM     14  H   UNL     1       0.684   0.010   0.946  0.00  0.00    +0.000 HD
ENDBRANCH   4  11
ENDBRANCH   2   7
ENDBRANCH   1   2
BRANCH   1  15
ATOM     15  C   UNL     1       5.981   3.463   6.438  0.00  0.00    +0.000 C 
BRANCH  15  16
ATOM     16  N   UNL     1       5.552   3.497   7.819  0.00  0.00    +0.000 N 
ATOM     17  C   UNL     1       4.810   4.458   8.440  0.00  0.00    +0.000 A 
ATOM     18  C   UNL     1       4.742   4.021   9.738  0.00  0.00    +0.000 A 
ATOM     19  N   UNL     1       5.385   2.824   9.858  0.00  0.00    +0.000 NA
ATOM     20  N   UNL     1       5.887   2.509   8.667  0.00  0.00    +0.000 NA
BRANCH  18  21
ATOM     21  N   UNL     1       4.139   4.680  10.746  0.00  0.00    +0.000 N 
ATOM     22  H   UNL     1       3.681   5.560  10.534  0.00  0.00    +0.000 HD
BRANCH  21  23
ATOM     23  C   UNL     1       3.699   4.054  11.956  0.00  0.00    +0.000 C 
ATOM     24  C   UNL     1       2.208   3.666  11.905  0.00  0.00    +0.000 C 
ATOM     25  C   UNL     1       1.988   4.413  13.234  0.00  0.00    +0.000 C 
ATOM     26  C   UNL     1       3.364   5.084  13.055  0.00  0.00    +0.000 C 
BRANCH  25  27
ATOM     27  O   UNL     1       1.811   3.602  14.411  0.00  0.00    +0.000 OA
ATOM     28  H   UNL     1       2.551   2.967  14.414  0.00  0.00    +0.000 HD
ENDBRANCH  25  27
ENDBRANCH  21  23
ENDBRANCH  18  21
ENDBRANCH  15  16
ENDBRANCH   1  15
TORSDOF 8
