REMARK  Name = 
REMARK  2 active torsions:
REMARK  status: ('A' for Active; 'I' for Inactive)
REMARK    1  A    between atoms: C_7  and  C_8
REMARK    2  A    between atoms: C_8  and  C_9
REMARK                            x       y       z     vdW  Elec       q    Type
REMARK                         _______ _______ _______ _____ _____    ______ ____
ROOT
ATOM      1  N   UNL     1       1.067   0.265  -0.404  0.00  0.00    +0.000 NA
ATOM      2  C   UNL     1       2.304   0.031  -0.137  0.00  0.00    +0.000 C 
ATOM      3  N   UNL     1       2.848   0.437   1.030  0.00  0.00    +0.000 N 
ATOM      4  N   UNL     1       3.174  -0.574  -1.002  0.00  0.00    +0.000 N 
ATOM      5  C   UNL     1       4.310  -1.384  -0.553  0.00  0.00    +0.000 C 
ATOM      6  C   UNL     1       5.503  -1.063  -1.446  0.00  0.00    +0.000 C 
ATOM      7  C   UNL     1       5.206  -1.389  -2.921  0.00  0.00    +0.000 C 
ATOM      8  C   UNL     1       3.911  -0.667  -3.344  0.00  0.00    +0.000 C 
ATOM      9  C   UNL     1       2.744  -0.883  -2.373  0.00  0.00    +0.000 C 
ATOM     10  H   UNL     1       0.629   0.720   0.396  0.00  0.00    +0.000 HD
ATOM     11  H   UNL     1       2.303   1.120   1.540  0.00  0.00    +0.000 HD
ATOM     12  H   UNL     1       3.802   0.756   0.917  0.00  0.00    +0.000 HD
ENDROOT
BRANCH   7  13
ATOM     13  C   UNL     1       5.130  -2.907  -3.208  0.00  0.00    +0.000 C 
BRANCH  13  14
ATOM     14  C   UNL     1       6.390  -3.640  -2.842  0.00  0.00    +0.000 A 
ATOM     15  C   UNL     1       7.642  -3.420  -3.386  0.00  0.00    +0.000 A 
ATOM     16  N   UNL     1       8.542  -4.228  -2.747  0.00  0.00    +0.000 N 
ATOM     17  C   UNL     1       7.903  -4.986  -1.795  0.00  0.00    +0.000 A 
ATOM     18  C   UNL     1       8.412  -5.917  -0.899  0.00  0.00    +0.000 A 
ATOM     19  N   UNL     1       7.567  -6.560  -0.063  0.00  0.00    +0.000 NA
ATOM     20  C   UNL     1       6.247  -6.281  -0.131  0.00  0.00    +0.000 A 
ATOM     21  C   UNL     1       5.675  -5.353  -0.991  0.00  0.00    +0.000 A 
ATOM     22  C   UNL     1       6.546  -4.669  -1.855  0.00  0.00    +0.000 A 
ATOM     23  H   UNL     1       9.534  -4.261  -2.939  0.00  0.00    +0.000 HD
ENDBRANCH  13  14
ENDBRANCH   7  13
TORSDOF 2
