REMARK  Name = 
REMARK  6 active torsions:
REMARK  status: ('A' for Active; 'I' for Inactive)
REMARK    1  A    between atoms: C_1  and  C_2
REMARK    2  A    between atoms: C_7  and  C_8
REMARK    3  A    between atoms: C_8  and  C_9
REMARK    4  A    between atoms: C_9  and  O_10
REMARK    5  A    between atoms: O_10  and  C_11
REMARK    6  A    between atoms: C_14  and  C_15
REMARK                            x       y       z     vdW  Elec       q    Type
REMARK                         _______ _______ _______ _____ _____    ______ ____
ROOT
ATOM      1  C   UNL     1       1.804   4.942  -4.863  0.00  0.00    +0.000 C 
ENDROOT
BRANCH   1   8
ATOM      2  C   UNL     1       2.207  -2.687  -0.917  0.00  0.00    +0.000 C 
ATOM      3  C   UNL     1       2.551  -1.671  -2.001  0.00  0.00    +0.000 C 
ATOM      4  C   UNL     1       2.200  -0.242  -1.537  0.00  0.00    +0.000 C 
ATOM      5  N   UNL     1       2.754   0.791  -2.426  0.00  0.00    +0.000 N 
ATOM      6  C   UNL     1       1.905   1.541  -3.223  0.00  0.00    +0.000 A 
ATOM      7  C   UNL     1       2.296   2.811  -3.626  0.00  0.00    +0.000 A 
ATOM      8  C   UNL     1       1.415   3.564  -4.384  0.00  0.00    +0.000 A 
ATOM      9  N   UNL     1       0.217   3.086  -4.756  0.00  0.00    +0.000 NA
ATOM     10  C   UNL     1      -0.081   1.853  -4.314  0.00  0.00    +0.000 A 
ATOM     11  N   UNL     1       0.697   1.061  -3.556  0.00  0.00    +0.000 NA
ATOM     12  C   UNL     1       4.136   0.567  -2.874  0.00  0.00    +0.000 C 
ATOM     13  C   UNL     1       4.355  -0.892  -3.299  0.00  0.00    +0.000 C 
ATOM     14  O   UNL     1       3.962  -1.803  -2.265  0.00  0.00    +0.000 OA
ENDBRANCH   1   8
BRANCH   1  15
ATOM     15  C   UNL     1       2.532   4.853  -6.202  0.00  0.00    +0.000 C 
BRANCH  15  16
ATOM     16  O   UNL     1       2.930   6.160  -6.649  0.00  0.00    +0.000 OA
BRANCH  16  17
ATOM     17  C   UNL     1       3.623   6.097  -7.845  0.00  0.00    +0.000 A 
ATOM     18  C   UNL     1       4.063   7.281  -8.432  0.00  0.00    +0.000 A 
ATOM     19  N   UNL     1       4.767   7.315  -9.600  0.00  0.00    +0.000 NA
ATOM     20  C   UNL     1       5.003   6.090 -10.153  0.00  0.00    +0.000 A 
ATOM     21  C   UNL     1       4.563   4.913  -9.570  0.00  0.00    +0.000 A 
ATOM     22  N   UNL     1       3.869   4.891  -8.405  0.00  0.00    +0.000 NA
BRANCH  20  23
ATOM     23  C   UNL     1       5.773   6.013 -11.426  0.00  0.00    +0.000 C 
ATOM     24  N   UNL     1       6.187   7.202 -11.957  0.00  0.00    +0.000 N 
ATOM     25  O   UNL     1       6.028   4.945 -11.969  0.00  0.00    +0.000 OA
ATOM     26  H   UNL     1       5.967   8.078 -11.497  0.00  0.00    +0.000 HD
ATOM     27  H   UNL     1       6.713   7.195 -12.820  0.00  0.00    +0.000 HD
ENDBRANCH  20  23
ENDBRANCH  16  17
ENDBRANCH  15  16
ENDBRANCH   1  15
TORSDOF 5
