REMARK  Name = 
REMARK  5 active torsions:
REMARK  status: ('A' for Active; 'I' for Inactive)
REMARK    1  A    between atoms: C_1  and  C_2
REMARK    2  A    between atoms: C_6  and  C_7
REMARK    3  A    between atoms: C_7  and  N_8
REMARK    4  A    between atoms: N_8  and  C_9
REMARK    5  A    between atoms: C_12  and  C_13
REMARK                            x       y       z     vdW  Elec       q    Type
REMARK                         _______ _______ _______ _____ _____    ______ ____
ROOT
ATOM      1  C   UNL     1       4.205   3.139  -0.481  0.00  0.00    +0.000 A 
ATOM      2  C   UNL     1       5.397   2.705  -1.057  0.00  0.00    +0.000 A 
ATOM      3  C   UNL     1       6.291   3.621  -1.621  0.00  0.00    +0.000 A 
ATOM      4  C   UNL     1       5.969   4.970  -1.582  0.00  0.00    +0.000 A 
ATOM      5  N   UNL     1       4.825   5.454  -1.031  0.00  0.00    +0.000 NA
ATOM      6  C   UNL     1       3.986   4.523  -0.499  0.00  0.00    +0.000 A 
ENDROOT
BRANCH   4   7
ATOM      7  C   UNL     1       6.909   5.965  -2.194  0.00  0.00    +0.000 C 
ATOM      8  N   UNL     1       6.534   7.276  -2.137  0.00  0.00    +0.000 N 
ATOM      9  O   UNL     1       7.964   5.627  -2.734  0.00  0.00    +0.000 OA
ATOM     10  H   UNL     1       5.652   7.528  -1.694  0.00  0.00    +0.000 HD
ATOM     11  H   UNL     1       7.128   7.976  -2.547  0.00  0.00    +0.000 HD
ENDBRANCH   4   7
BRANCH   1  12
ATOM     12  N   UNL     1       3.315   2.242   0.083  0.00  0.00    +0.000 N 
ATOM     13  H   UNL     1       3.562   1.252   0.132  0.00  0.00    +0.000 HD
BRANCH  12  14
ATOM     14  C   UNL     1       1.871   2.466   0.053  0.00  0.00    +0.000 C 
BRANCH  14  20
ATOM     15  C   UNL     1      -2.523   0.001   0.017  0.00  0.00    +0.000 C 
ATOM     16  C   UNL     1      -1.024  -0.009   0.017  0.00  0.00    +0.000 A 
ATOM     17  C   UNL     1      -0.312  -1.207   0.003  0.00  0.00    +0.000 A 
ATOM     18  C   UNL     1       1.073  -1.157  -0.012  0.00  0.00    +0.000 A 
ATOM     19  N   UNL     1       1.789  -0.011  -0.007  0.00  0.00    +0.000 NA
ATOM     20  C   UNL     1       1.091   1.157   0.020  0.00  0.00    +0.000 A 
ATOM     21  C   UNL     1      -0.306   1.192   0.025  0.00  0.00    +0.000 A 
ENDBRANCH  14  20
ENDBRANCH  12  14
ENDBRANCH   1  12
TORSDOF 4
