REMARK  Name = 
REMARK  5 active torsions:
REMARK  status: ('A' for Active; 'I' for Inactive)
REMARK    1  A    between atoms: C_2  and  C_5
REMARK    2  A    between atoms: C_8  and  C_9
REMARK    3  A    between atoms: C_13  and  N_14
REMARK    4  A    between atoms: N_14  and  C_15
REMARK    5  A    between atoms: C_15  and  C_16
REMARK                            x       y       z     vdW  Elec       q    Type
REMARK                         _______ _______ _______ _____ _____    ______ ____
ROOT
ATOM      1  C   UNL     1       3.532  -4.418   3.327  0.00  0.00    +0.000 A 
ATOM      2  C   UNL     1       2.880  -4.478   4.556  0.00  0.00    +0.000 A 
ATOM      3  N   UNL     1       3.100  -5.453   5.468  0.00  0.00    +0.000 NA
ATOM      4  C   UNL     1       4.018  -6.374   5.097  0.00  0.00    +0.000 A 
ATOM      5  C   UNL     1       4.652  -6.392   3.850  0.00  0.00    +0.000 A 
ATOM      6  N   UNL     1       4.414  -5.400   2.964  0.00  0.00    +0.000 NA
ENDROOT
BRANCH   1  10
ATOM      7  C   UNL     1       3.135  -0.969   0.873  0.00  0.00    +0.000 A 
ATOM      8  C   UNL     1       3.895  -2.041   0.405  0.00  0.00    +0.000 A 
ATOM      9  C   UNL     1       4.011  -3.198   1.177  0.00  0.00    +0.000 A 
ATOM     10  C   UNL     1       3.366  -3.266   2.411  0.00  0.00    +0.000 A 
ATOM     11  N   UNL     1       2.590  -2.241   2.855  0.00  0.00    +0.000 NA
ATOM     12  C   UNL     1       2.497  -1.127   2.091  0.00  0.00    +0.000 A 
BRANCH   7  14
ATOM     13  F   UNL     1       3.723   0.348  -1.034  0.00  0.00    +0.000 F 
ATOM     14  C   UNL     1       3.013   0.323   0.128  0.00  0.00    +0.000 C 
ATOM     15  F   UNL     1       3.456   1.385   0.856  0.00  0.00    +0.000 F 
ATOM     16  F   UNL     1       1.728   0.613  -0.212  0.00  0.00    +0.000 F 
ENDBRANCH   7  14
ENDBRANCH   1  10
BRANCH   5  17
ATOM     17  N   UNL     1       5.642  -7.348   3.593  0.00  0.00    +0.000 N 
ATOM     18  H   UNL     1       5.502  -8.195   4.135  0.00  0.00    +0.000 HD
BRANCH  17  19
ATOM     19  C   UNL     1       5.831  -7.696   2.183  0.00  0.00    +0.000 C 
BRANCH  19  20
ATOM     20  C   UNL     1       7.264  -8.131   1.949  0.00  0.00    +0.000 A 
ATOM     21  C   UNL     1       8.301  -7.219   2.142  0.00  0.00    +0.000 A 
ATOM     22  C   UNL     1       9.612  -7.632   1.929  0.00  0.00    +0.000 A 
ATOM     23  C   UNL     1       9.854  -8.940   1.527  0.00  0.00    +0.000 A 
ATOM     24  C   UNL     1       8.770  -9.784   1.356  0.00  0.00    +0.000 A 
ATOM     25  N   UNL     1       7.485  -9.414   1.559  0.00  0.00    +0.000 NA
ENDBRANCH  19  20
ENDBRANCH  17  19
ENDBRANCH   5  17
TORSDOF 5
