REMARK  Name = 
REMARK  12 active torsions:
REMARK  status: ('A' for Active; 'I' for Inactive)
REMARK    1  A    between atoms: C_1  and  C_2
REMARK    2  A    between atoms: C_2  and  C_3
REMARK    3  A    between atoms: C_2  and  C_4
REMARK    4  A    between atoms: C_2  and  O_5
REMARK    5  A    between atoms: O_5  and  C_6
REMARK    6  A    between atoms: C_6  and  C_7
REMARK    7  A    between atoms: C_7  and  C_8
REMARK    8  A    between atoms: C_8  and  N_9
REMARK    9  A    between atoms: C_12  and  C_13
REMARK   10  A    between atoms: C_13  and  N_14
REMARK   11  A    between atoms: C_19  and  C_20
REMARK   12  A    between atoms: C_20  and  O_22
REMARK                            x       y       z     vdW  Elec       q    Type
REMARK                         _______ _______ _______ _____ _____    ______ ____
ROOT
ATOM      1  N   UNL     1       6.905   0.127  -4.109  0.00  0.00    +0.000 NA
ATOM      2  C   UNL     1       6.626  -1.129  -4.819  0.00  0.00    +0.000 C 
ATOM      3  C   UNL     1       7.194  -1.097  -6.237  0.00  0.00    +0.000 C 
ATOM      4  C   UNL     1       6.604   0.057  -7.053  0.00  0.00    +0.000 C 
ATOM      5  C   UNL     1       6.913   1.357  -6.292  0.00  0.00    +0.000 C 
ATOM      6  C   UNL     1       6.427   1.313  -4.836  0.00  0.00    +0.000 C 
ENDROOT
BRANCH   1   7
ATOM      7  C   UNL     1       6.343   0.122  -2.741  0.00  0.00    +0.000 C 
BRANCH   7   8
ATOM      8  C   UNL     1       6.880  -0.983  -1.821  0.00  0.00    +0.000 C 
BRANCH   8   9
ATOM      9  C   UNL     1       8.398  -0.959  -1.687  0.00  0.00    +0.000 C 
BRANCH   9  10
ATOM     10  O   UNL     1       8.796   0.268  -1.082  0.00  0.00    +0.000 OA
BRANCH  10  12
ATOM     11  C   UNL     1      10.862   0.586  -2.377  0.00  0.00    +0.000 C 
ATOM     12  C   UNL     1      10.208   0.509  -0.993  0.00  0.00    +0.000 C 
ATOM     13  C   UNL     1      10.893  -0.546  -0.114  0.00  0.00    +0.000 C 
ATOM     14  C   UNL     1      10.347   1.881  -0.316  0.00  0.00    +0.000 C 
ENDBRANCH  10  12
ENDBRANCH   9  10
ENDBRANCH   8   9
ENDBRANCH   7   8
ENDBRANCH   1   7
BRANCH   4  15
ATOM     15  C   UNL     1       5.088  -0.077  -7.319  0.00  0.00    +0.000 C 
BRANCH  15  16
ATOM     16  N   UNL     1       4.688  -1.318  -7.959  0.00  0.00    +0.000 N 
ATOM     17  N   UNL     1       4.381  -2.377  -7.178  0.00  0.00    +0.000 NA
ATOM     18  C   UNL     1       3.982  -3.308  -8.045  0.00  0.00    +0.000 A 
ATOM     19  C   UNL     1       3.996  -2.848  -9.377  0.00  0.00    +0.000 A 
ATOM     20  C   UNL     1       3.656  -3.393 -10.627  0.00  0.00    +0.000 A 
ATOM     21  C   UNL     1       3.800  -2.597 -11.776  0.00  0.00    +0.000 A 
ATOM     22  C   UNL     1       4.310  -1.296 -11.680  0.00  0.00    +0.000 A 
ATOM     23  C   UNL     1       4.652  -0.741 -10.438  0.00  0.00    +0.000 A 
ATOM     24  C   UNL     1       4.475  -1.542  -9.300  0.00  0.00    +0.000 A 
BRANCH  21  25
ATOM     25  C   UNL     1       3.427  -3.205 -13.077  0.00  0.00    +0.000 C 
ATOM     26  O   UNL     1       3.527  -4.399 -13.301  0.00  0.00    +0.000 OA
BRANCH  25  27
ATOM     27  O   UNL     1       2.929  -2.328 -13.972  0.00  0.00    +0.000 OA
ATOM     28  H   UNL     1       2.716  -1.447 -13.613  0.00  0.00    +0.000 HD
ENDBRANCH  25  27
ENDBRANCH  21  25
ENDBRANCH  15  16
ENDBRANCH   4  15
TORSDOF 9
