REMARK  Name = 
REMARK  4 active torsions:
REMARK  status: ('A' for Active; 'I' for Inactive)
REMARK    1  A    between atoms: C_2  and  C_4
REMARK    2  A    between atoms: C_7  and  C_8
REMARK    3  A    between atoms: C_8  and  C_9
REMARK    4  A    between atoms: C_9  and  C_10
REMARK                            x       y       z     vdW  Elec       q    Type
REMARK                         _______ _______ _______ _____ _____    ______ ____
ROOT
ATOM      1  C   UNL     1       3.294   0.952  -0.370  0.00  0.00    +0.000 A 
ATOM      2  C   UNL     1       2.498   2.045  -0.750  0.00  0.00    +0.000 A 
ATOM      3  C   UNL     1       3.090   3.223  -1.219  0.00  0.00    +0.000 A 
ATOM      4  C   UNL     1       4.484   3.356  -1.288  0.00  0.00    +0.000 A 
ATOM      5  C   UNL     1       5.269   2.267  -0.870  0.00  0.00    +0.000 A 
ATOM      6  C   UNL     1       4.685   1.082  -0.407  0.00  0.00    +0.000 A 
ENDROOT
BRANCH   1   8
ATOM      7  N   UNL     1       1.456  -0.637  -0.473  0.00  0.00    +0.000 N 
ATOM      8  C   UNL     1       2.683  -0.339   0.050  0.00  0.00    +0.000 C 
ATOM      9  O   UNL     1       3.265  -1.115   0.797  0.00  0.00    +0.000 OA
ATOM     10  H   UNL     1       1.080  -1.549  -0.262  0.00  0.00    +0.000 HD
ATOM     11  H   UNL     1       1.083  -0.151  -1.278  0.00  0.00    +0.000 HD
ENDBRANCH   1   8
BRANCH   4  12
ATOM     12  C   UNL     1       5.178   4.568  -1.906  0.00  0.00    +0.000 C 
BRANCH  12  13
ATOM     13  C   UNL     1       4.486   5.911  -1.682  0.00  0.00    +0.000 C 
ATOM     14  C   UNL     1       3.496   6.319  -2.760  0.00  0.00    +0.000 C 
ATOM     15  C   UNL     1       4.751   7.104  -2.612  0.00  0.00    +0.000 C 
BRANCH  13  16
ATOM     16  C   UNL     1       4.341   6.361  -0.233  0.00  0.00    +0.000 A 
ATOM     17  C   UNL     1       5.413   6.955   0.460  0.00  0.00    +0.000 A 
ATOM     18  C   UNL     1       5.207   7.446   1.737  0.00  0.00    +0.000 A 
ATOM     19  N   UNL     1       4.033   7.373   2.389  0.00  0.00    +0.000 NA
ATOM     20  C   UNL     1       3.014   6.778   1.729  0.00  0.00    +0.000 A 
ATOM     21  C   UNL     1       3.120   6.275   0.442  0.00  0.00    +0.000 A 
ENDBRANCH  13  16
ENDBRANCH  12  13
ENDBRANCH   4  12
TORSDOF 4
