REMARK  Name = 
REMARK  6 active torsions:
REMARK  status: ('A' for Active; 'I' for Inactive)
REMARK    1  A    between atoms: C_2  and  C_4
REMARK    2  A    between atoms: N_11  and  C_12
REMARK    3  A    between atoms: C_12  and  C_13
REMARK    4  A    between atoms: C_16  and  C_17
REMARK    5  A    between atoms: C_17  and  N_18
REMARK    6  A    between atoms: C_19  and  C_21
REMARK                            x       y       z     vdW  Elec       q    Type
REMARK                         _______ _______ _______ _____ _____    ______ ____
ROOT
ATOM      1  C   UNL     1       4.524  -0.259  -4.094  0.00  0.00    +0.000 A 
ATOM      2  C   UNL     1       4.956  -1.590  -4.003  0.00  0.00    +0.000 A 
ATOM      3  C   UNL     1       4.374  -2.585  -4.799  0.00  0.00    +0.000 A 
ATOM      4  C   UNL     1       3.363  -2.265  -5.715  0.00  0.00    +0.000 A 
ATOM      5  C   UNL     1       2.903  -0.943  -5.772  0.00  0.00    +0.000 A 
ATOM      6  C   UNL     1       3.483   0.050  -4.978  0.00  0.00    +0.000 A 
ENDROOT
BRANCH   1   7
ATOM      7  C   UNL     1       5.164   0.829  -3.273  0.00  0.00    +0.000 C 
BRANCH   7  15
ATOM      8  C   UNL     1       8.352   3.276  -5.262  0.00  0.00    +0.000 A 
ATOM      9  C   UNL     1       9.713   3.469  -5.498  0.00  0.00    +0.000 A 
ATOM     10  C   UNL     1      10.428   3.119  -4.338  0.00  0.00    +0.000 A 
ATOM     11  C   UNL     1       9.500   2.734  -3.408  0.00  0.00    +0.000 A 
ATOM     12  N   UNL     1       8.230   2.734  -3.977  0.00  0.00    +0.000 N 
ATOM     13  C   UNL     1       7.099   2.295  -3.248  0.00  0.00    +0.000 C 
ATOM     14  O   UNL     1       7.044   2.516  -2.046  0.00  0.00    +0.000 OA
ATOM     15  N   UNL     1       6.259   1.477  -3.961  0.00  0.00    +0.000 N 
ATOM     16  H   UNL     1       6.281   1.466  -4.976  0.00  0.00    +0.000 HD
BRANCH   8  18
ATOM     17  N   UNL     1       7.523   4.633  -7.024  0.00  0.00    +0.000 N 
ATOM     18  C   UNL     1       7.256   3.631  -6.131  0.00  0.00    +0.000 C 
ATOM     19  O   UNL     1       6.141   3.122  -6.101  0.00  0.00    +0.000 OA
ATOM     20  H   UNL     1       6.756   4.978  -7.584  0.00  0.00    +0.000 HD
ATOM     21  H   UNL     1       8.358   5.199  -6.966  0.00  0.00    +0.000 HD
ENDBRANCH   8  18
ENDBRANCH   7  15
ENDBRANCH   1   7
BRANCH   4  22
ATOM     22  C   UNL     1       2.765  -3.318  -6.613  0.00  0.00    +0.000 C 
BRANCH  22  23
ATOM     23  N   UNL     1       1.573  -3.885  -6.039  0.00  0.00    +0.000 N 
ATOM     24  C   UNL     1       0.827  -4.813  -6.721  0.00  0.00    +0.000 C 
ATOM     25  O   UNL     1       1.051  -5.098  -7.894  0.00  0.00    +0.000 OA
ATOM     26  H   UNL     1       1.470  -3.804  -5.033  0.00  0.00    +0.000 HD
BRANCH  24  27
ATOM     27  C   UNL     1      -0.270  -5.446  -5.978  0.00  0.00    +0.000 A 
ATOM     28  C   UNL     1      -1.361  -5.969  -6.660  0.00  0.00    +0.000 A 
ATOM     29  S   UNL     1      -2.507  -6.719  -5.643  0.00  0.00    +0.000 S 
ATOM     30  C   UNL     1      -1.553  -6.425  -4.264  0.00  0.00    +0.000 A 
ATOM     31  N   UNL     1      -1.922  -6.901  -3.043  0.00  0.00    +0.000 NA
ATOM     32  C   UNL     1      -1.096  -6.621  -2.091  0.00  0.00    +0.000 A 
ATOM     33  N   UNL     1       0.049  -5.882  -2.241  0.00  0.00    +0.000 N 
ATOM     34  C   UNL     1       0.440  -5.346  -3.445  0.00  0.00    +0.000 A 
ATOM     35  O   UNL     1       1.419  -4.614  -3.527  0.00  0.00    +0.000 OA
ATOM     36  C   UNL     1      -0.420  -5.690  -4.563  0.00  0.00    +0.000 A 
ATOM     37  H   UNL     1       0.629  -5.656  -1.445  0.00  0.00    +0.000 HD
ENDBRANCH  24  27
ENDBRANCH  22  23
ENDBRANCH   4  22
TORSDOF 6
