REMARK  Name = 
REMARK  7 active torsions:
REMARK  status: ('A' for Active; 'I' for Inactive)
REMARK    1  A    between atoms: C_1  and  C_2
REMARK    2  A    between atoms: C_7  and  C_8
REMARK    3  A    between atoms: N_10  and  C_11
REMARK    4  A    between atoms: C_11  and  C_12
REMARK    5  A    between atoms: C_15  and  C_16
REMARK    6  A    between atoms: C_16  and  N_17
REMARK    7  A    between atoms: C_18  and  C_20
REMARK                            x       y       z     vdW  Elec       q    Type
REMARK                         _______ _______ _______ _____ _____    ______ ____
ROOT
ATOM      1  C   UNL     1       4.489  -3.814   0.130  0.00  0.00    +0.000 A 
ATOM      2  C   UNL     1       5.338  -4.916   0.125  0.00  0.00    +0.000 A 
ATOM      3  C   UNL     1       6.721  -4.731   0.128  0.00  0.00    +0.000 A 
ATOM      4  C   UNL     1       7.223  -3.434   0.104  0.00  0.00    +0.000 A 
ATOM      5  N   UNL     1       6.413  -2.345   0.112  0.00  0.00    +0.000 NA
ATOM      6  C   UNL     1       5.077  -2.556   0.125  0.00  0.00    +0.000 A 
ENDROOT
BRANCH   1   7
ATOM      7  C   UNL     1       2.995  -3.978   0.076  0.00  0.00    +0.000 C 
BRANCH   7  10
ATOM      8  C   UNL     1       1.183  -4.133  -1.579  0.00  0.00    +0.000 C 
ATOM      9  O   UNL     1       0.329  -4.176  -0.699  0.00  0.00    +0.000 OA
ATOM     10  N   UNL     1       2.528  -4.038  -1.294  0.00  0.00    +0.000 N 
ATOM     11  H   UNL     1       3.201  -4.295  -2.000  0.00  0.00    +0.000 HD
BRANCH   8  18
ATOM     12  C   UNL     1       2.582  -2.692  -3.958  0.00  0.00    +0.000 C 
ATOM     13  C   UNL     1       1.392  -3.596  -4.087  0.00  0.00    +0.000 A 
ATOM     14  N   UNL     1       0.925  -3.707  -5.365  0.00  0.00    +0.000 NA
ATOM     15  C   UNL     1      -0.184  -4.444  -5.583  0.00  0.00    +0.000 A 
ATOM     16  C   UNL     1      -0.865  -5.105  -4.582  0.00  0.00    +0.000 A 
ATOM     17  C   UNL     1      -0.377  -5.001  -3.281  0.00  0.00    +0.000 A 
ATOM     18  C   UNL     1       0.774  -4.242  -3.010  0.00  0.00    +0.000 A 
ENDBRANCH   8  18
ENDBRANCH   7  10
ENDBRANCH   1   7
BRANCH   4  19
ATOM     19  C   UNL     1       8.713  -3.195   0.081  0.00  0.00    +0.000 C 
BRANCH  19  20
ATOM     20  N   UNL     1       9.268  -3.069   1.409  0.00  0.00    +0.000 N 
ATOM     21  C   UNL     1       9.956  -4.083   2.021  0.00  0.00    +0.000 C 
ATOM     22  O   UNL     1      10.117  -5.183   1.498  0.00  0.00    +0.000 OA
ATOM     23  H   UNL     1       9.004  -2.238   1.930  0.00  0.00    +0.000 HD
BRANCH  21  24
ATOM     24  C   UNL     1      10.536  -3.763   3.314  0.00  0.00    +0.000 A 
ATOM     25  C   UNL     1      11.574  -4.480   3.882  0.00  0.00    +0.000 A 
ATOM     26  O   UNL     1      11.949  -3.954   5.076  0.00  0.00    +0.000 OA
ATOM     27  C   UNL     1      11.136  -2.889   5.321  0.00  0.00    +0.000 A 
ATOM     28  N   UNL     1      11.208  -2.130   6.441  0.00  0.00    +0.000 NA
ATOM     29  C   UNL     1      10.311  -1.199   6.489  0.00  0.00    +0.000 A 
ATOM     30  N   UNL     1       9.367  -0.958   5.516  0.00  0.00    +0.000 N 
ATOM     31  C   UNL     1       9.305  -1.668   4.341  0.00  0.00    +0.000 A 
ATOM     32  O   UNL     1       8.527  -1.389   3.438  0.00  0.00    +0.000 OA
ATOM     33  C   UNL     1      10.260  -2.743   4.262  0.00  0.00    +0.000 A 
ATOM     34  H   UNL     1       8.705  -0.203   5.614  0.00  0.00    +0.000 HD
ENDBRANCH  21  24
ENDBRANCH  19  20
ENDBRANCH   4  19
TORSDOF 6
