REMARK  Name = 
REMARK  4 active torsions:
REMARK  status: ('A' for Active; 'I' for Inactive)
REMARK    1  A    between atoms: N_1  and  C_2
REMARK    2  A    between atoms: C_2  and  C_3
REMARK    3  A    between atoms: C_7  and  C_8
REMARK    4  A    between atoms: C_8  and  N_9
REMARK                            x       y       z     vdW  Elec       q    Type
REMARK                         _______ _______ _______ _____ _____    ______ ____
ROOT
ATOM      1  C   UNL     1       4.698  -0.100   2.612  0.00  0.00    +0.000 A 
ATOM      2  C   UNL     1       3.766  -0.322   1.605  0.00  0.00    +0.000 A 
ATOM      3  N   UNL     1       2.718   0.490   1.345  0.00  0.00    +0.000 NA
ATOM      4  C   UNL     1       2.584   1.582   2.129  0.00  0.00    +0.000 A 
ATOM      5  C   UNL     1       3.445   1.904   3.171  0.00  0.00    +0.000 A 
ATOM      6  C   UNL     1       4.522   1.041   3.404  0.00  0.00    +0.000 A 
ENDROOT
BRANCH   1   7
ATOM      7  C   UNL     1       5.849  -1.040   2.828  0.00  0.00    +0.000 C 
BRANCH   7   8
ATOM      8  N   UNL     1       5.794  -1.677   4.138  0.00  0.00    +0.000 NA
ATOM      9  H   UNL     1       6.563  -2.339   4.219  0.00  0.00    +0.000 HD
ATOM     10  H   UNL     1       4.939  -2.230   4.205  0.00  0.00    +0.000 HD
ENDBRANCH   7   8
ENDBRANCH   1   7
BRANCH   5  11
ATOM     11  C   UNL     1       3.171   3.081   4.054  0.00  0.00    +0.000 C 
BRANCH  11  12
ATOM     12  N   UNL     1       3.908   4.292   3.694  0.00  0.00    +0.000 N 
ATOM     13  C   UNL     1       5.175   4.570   4.155  0.00  0.00    +0.000 A 
ATOM     14  C   UNL     1       5.324   5.936   4.172  0.00  0.00    +0.000 A 
ATOM     15  C   UNL     1       4.151   6.509   3.608  0.00  0.00    +0.000 A 
ATOM     16  C   UNL     1       3.709   7.821   3.401  0.00  0.00    +0.000 A 
ATOM     17  N   UNL     1       2.545   8.065   2.748  0.00  0.00    +0.000 NA
ATOM     18  C   UNL     1       1.828   7.014   2.294  0.00  0.00    +0.000 A 
ATOM     19  C   UNL     1       2.148   5.679   2.495  0.00  0.00    +0.000 A 
ATOM     20  C   UNL     1       3.334   5.450   3.201  0.00  0.00    +0.000 A 
ENDBRANCH  11  12
ENDBRANCH   5  11
TORSDOF 4
