REMARK  Name = 
REMARK  7 active torsions:
REMARK  status: ('A' for Active; 'I' for Inactive)
REMARK    1  A    between atoms: C_1  and  C_2
REMARK    2  A    between atoms: C_2  and  N_3
REMARK    3  A    between atoms: C_2  and  C_17
REMARK    4  A    between atoms: C_4  and  C_6
REMARK    5  A    between atoms: N_12  and  C_13
REMARK    6  A    between atoms: N_21  and  C_22
REMARK    7  A    between atoms: C_22  and  C_23
REMARK                            x       y       z     vdW  Elec       q    Type
REMARK                         _______ _______ _______ _____ _____    ______ ____
ROOT
ATOM      1  C   UNL     1       2.941  -0.716  -1.192  0.00  0.00    +0.000 C 
ATOM      2  C   UNL     1       2.521   0.126   0.019  0.00  0.00    +0.000 C 
ENDROOT
BRANCH   2   3
ATOM      3  C   UNL     1       3.211   1.473   0.053  0.00  0.00    +0.000 A 
ATOM      4  C   UNL     1       3.555   2.180  -1.097  0.00  0.00    +0.000 A 
ATOM      5  C   UNL     1       4.335   3.327  -0.994  0.00  0.00    +0.000 A 
ATOM      6  C   UNL     1       4.704   3.802   0.260  0.00  0.00    +0.000 A 
ATOM      7  N   UNL     1       5.544   4.919   0.288  0.00  0.00    +0.000 N 
ATOM      8  N   UNL     1       4.294   3.202   1.391  0.00  0.00    +0.000 NA
ATOM      9  C   UNL     1       3.571   2.057   1.267  0.00  0.00    +0.000 A 
ATOM     10  H   UNL     1       6.447   4.655  -0.090  0.00  0.00    +0.000 HD
BRANCH   7  11
ATOM     11  C   UNL     1       5.699   5.591   1.570  0.00  0.00    +0.000 C 
BRANCH  11  12
ATOM     12  C   UNL     1       6.313   6.949   1.302  0.00  0.00    +0.000 A 
ATOM     13  C   UNL     1       5.512   7.983   0.821  0.00  0.00    +0.000 A 
ATOM     14  N   UNL     1       5.996   9.204   0.490  0.00  0.00    +0.000 NA
ATOM     15  C   UNL     1       7.330   9.350   0.638  0.00  0.00    +0.000 A 
ATOM     16  C   UNL     1       8.142   8.325   1.096  0.00  0.00    +0.000 A 
ATOM     17  N   UNL     1       7.659   7.106   1.434  0.00  0.00    +0.000 NA
ENDBRANCH  11  12
ENDBRANCH   7  11
ENDBRANCH   2   3
BRANCH   2  18
ATOM     18  N   UNL     1       1.083   0.292   0.041  0.00  0.00    +0.000 N 
ATOM     19  C   UNL     1       0.242  -0.668   0.561  0.00  0.00    +0.000 C 
ATOM     20  O   UNL     1       0.654  -1.646   1.169  0.00  0.00    +0.000 OA
ATOM     21  H   UNL     1       0.709   0.936  -0.645  0.00  0.00    +0.000 HD
BRANCH  19  22
ATOM     22  C   UNL     1      -1.193  -0.400   0.409  0.00  0.00    +0.000 A 
ATOM     23  C   UNL     1      -2.106  -0.941   1.305  0.00  0.00    +0.000 A 
ATOM     24  S   UNL     1      -3.707  -0.406   1.051  0.00  0.00    +0.000 S 
ATOM     25  C   UNL     1      -3.243   0.520  -0.300  0.00  0.00    +0.000 A 
ATOM     26  N   UNL     1      -4.142   1.274  -0.980  0.00  0.00    +0.000 NA
ATOM     27  C   UNL     1      -3.654   1.899  -2.001  0.00  0.00    +0.000 A 
ATOM     28  N   UNL     1      -2.346   1.827  -2.436  0.00  0.00    +0.000 N 
ATOM     29  C   UNL     1      -1.920   2.538  -3.622  0.00  0.00    +0.000 C 
ATOM     30  C   UNL     1      -1.402   1.058  -1.765  0.00  0.00    +0.000 A 
ATOM     31  O   UNL     1      -0.233   0.963  -2.135  0.00  0.00    +0.000 OA
ATOM     32  C   UNL     1      -1.897   0.389  -0.576  0.00  0.00    +0.000 A 
ENDBRANCH  19  22
ENDBRANCH   2  18
TORSDOF 5
