REMARK  Name = 
REMARK  9 active torsions:
REMARK  status: ('A' for Active; 'I' for Inactive)
REMARK    1  A    between atoms: C_1  and  C_2
REMARK    2  A    between atoms: C_2  and  C_3
REMARK    3  A    between atoms: C_3  and  N_4
REMARK    4  A    between atoms: C_3  and  C_17
REMARK    5  A    between atoms: C_5  and  C_7
REMARK    6  A    between atoms: C_20  and  C_21
REMARK    7  A    between atoms: C_21  and  N_22
REMARK    8  A    between atoms: N_22  and  C_23
REMARK    9  A    between atoms: C_23  and  C_24
REMARK                            x       y       z     vdW  Elec       q    Type
REMARK                         _______ _______ _______ _____ _____    ______ ____
ROOT
ATOM      1  C   UNL     1       3.047  -0.377   1.441  0.00  0.00    +0.000 C 
ENDROOT
BRANCH   1   2
ATOM      2  C   UNL     1       4.566  -0.346   1.431  0.00  0.00    +0.000 A 
ATOM      3  C   UNL     1       5.262   0.818   1.773  0.00  0.00    +0.000 A 
ATOM      4  C   UNL     1       6.657   0.822   1.776  0.00  0.00    +0.000 A 
ATOM      5  C   UNL     1       7.334  -0.341   1.425  0.00  0.00    +0.000 A 
ATOM      6  N   UNL     1       6.688  -1.469   1.046  0.00  0.00    +0.000 NA
ATOM      7  C   UNL     1       5.337  -1.441   1.046  0.00  0.00    +0.000 A 
BRANCH   5   8
ATOM      8  C   UNL     1       8.848  -0.390   1.426  0.00  0.00    +0.000 C 
BRANCH   8   9
ATOM      9  N   UNL     1       9.435  -0.810   0.152  0.00  0.00    +0.000 NA
ATOM     10  H   UNL     1       9.000  -1.700  -0.112  0.00  0.00    +0.000 HD
BRANCH   9  11
ATOM     11  C   UNL     1       9.143   0.139  -0.940  0.00  0.00    +0.000 C 
BRANCH  11  12
ATOM     12  C   UNL     1       9.792  -0.288  -2.246  0.00  0.00    +0.000 A 
ATOM     13  N   UNL     1       9.385  -1.458  -2.789  0.00  0.00    +0.000 NA
ATOM     14  C   UNL     1      10.058  -1.880  -3.873  0.00  0.00    +0.000 A 
ATOM     15  C   UNL     1      11.096  -1.181  -4.440  0.00  0.00    +0.000 A 
ATOM     16  C   UNL     1      11.413   0.011  -3.835  0.00  0.00    +0.000 A 
ATOM     17  N   UNL     1      10.780   0.484  -2.746  0.00  0.00    +0.000 NA
ENDBRANCH  11  12
ENDBRANCH   9  11
ENDBRANCH   8   9
ENDBRANCH   5   8
ENDBRANCH   1   2
BRANCH   1  18
ATOM     18  N   UNL     1       2.567   0.002   0.125  0.00  0.00    +0.000 N 
ATOM     19  C   UNL     1       1.436   0.749  -0.080  0.00  0.00    +0.000 C 
ATOM     20  O   UNL     1       0.765   1.192   0.848  0.00  0.00    +0.000 OA
ATOM     21  H   UNL     1       3.027  -0.430  -0.669  0.00  0.00    +0.000 HD
BRANCH  19  22
ATOM     22  C   UNL     1       1.090   1.040  -1.478  0.00  0.00    +0.000 A 
ATOM     23  C   UNL     1       0.290   2.136  -1.776  0.00  0.00    +0.000 A 
ATOM     24  S   UNL     1       0.005   2.342  -3.445  0.00  0.00    +0.000 S 
ATOM     25  C   UNL     1       0.903   0.949  -3.823  0.00  0.00    +0.000 A 
ATOM     26  N   UNL     1       1.036   0.534  -5.116  0.00  0.00    +0.000 NA
ATOM     27  C   UNL     1       1.717  -0.553  -5.258  0.00  0.00    +0.000 A 
ATOM     28  N   UNL     1       2.281  -1.263  -4.231  0.00  0.00    +0.000 N 
ATOM     29  C   UNL     1       2.206  -0.860  -2.918  0.00  0.00    +0.000 A 
ATOM     30  O   UNL     1       2.780  -1.482  -2.028  0.00  0.00    +0.000 OA
ATOM     31  C   UNL     1       1.432   0.346  -2.698  0.00  0.00    +0.000 A 
ATOM     32  H   UNL     1       2.816  -2.099  -4.412  0.00  0.00    +0.000 HD
ENDBRANCH  19  22
ENDBRANCH   1  18
BRANCH   1  34
ATOM     33  C   UNL     1       0.995  -1.852   2.013  0.00  0.00    +0.000 C 
ATOM     34  C   UNL     1       2.506  -1.753   1.892  0.00  0.00    +0.000 C 
ENDBRANCH   1  34
TORSDOF 8
