REMARK  Name = 
REMARK  7 active torsions:
REMARK  status: ('A' for Active; 'I' for Inactive)
REMARK    1  A    between atoms: C_2  and  C_20
REMARK    2  A    between atoms: N_3  and  C_4
REMARK    3  A    between atoms: C_4  and  C_5
REMARK    4  A    between atoms: C_8  and  C_9
REMARK    5  A    between atoms: C_9  and  O_10
REMARK    6  A    between atoms: O_10  and  C_11
REMARK    7  A    between atoms: C_11  and  C_12
REMARK                            x       y       z     vdW  Elec       q    Type
REMARK                         _______ _______ _______ _____ _____    ______ ____
ROOT
ATOM      1  C   UNL     1       2.322  -2.433   0.684  0.00  0.00    +0.000 C 
ENDROOT
BRANCH   1   2
ATOM      2  C   UNL     1       3.279  -3.569   0.977  0.00  0.00    +0.000 A 
ATOM      3  C   UNL     1       4.588  -3.307   1.378  0.00  0.00    +0.000 A 
ATOM      4  C   UNL     1       5.450  -4.375   1.633  0.00  0.00    +0.000 A 
ATOM      5  C   UNL     1       4.996  -5.686   1.481  0.00  0.00    +0.000 A 
ATOM      6  C   UNL     1       3.674  -5.852   1.083  0.00  0.00    +0.000 A 
ATOM      7  N   UNL     1       2.813  -4.836   0.830  0.00  0.00    +0.000 NA
BRANCH   5   8
ATOM      8  C   UNL     1       5.882  -6.873   1.732  0.00  0.00    +0.000 C 
BRANCH   8   9
ATOM      9  O   UNL     1       5.960  -7.631   0.529  0.00  0.00    +0.000 OA
BRANCH   9  10
ATOM     10  C   UNL     1       6.798  -8.781   0.658  0.00  0.00    +0.000 C 
BRANCH  10  11
ATOM     11  C   UNL     1       6.853  -9.535  -0.648  0.00  0.00    +0.000 A 
ATOM     12  C   UNL     1       6.755  -8.865  -1.865  0.00  0.00    +0.000 A 
ATOM     13  N   UNL     1       6.821  -9.491  -3.065  0.00  0.00    +0.000 NA
ATOM     14  C   UNL     1       6.992 -10.828  -3.006  0.00  0.00    +0.000 A 
ATOM     15  C   UNL     1       7.105 -11.507  -1.805  0.00  0.00    +0.000 A 
ATOM     16  N   UNL     1       7.048 -10.882  -0.605  0.00  0.00    +0.000 NA
ENDBRANCH  10  11
ENDBRANCH   9  10
ENDBRANCH   8   9
ENDBRANCH   5   8
ENDBRANCH   1   2
BRANCH   1  19
ATOM     17  O   UNL     1       3.945  -0.339  -0.293  0.00  0.00    +0.000 OA
ATOM     18  C   UNL     1       3.225  -0.949  -1.079  0.00  0.00    +0.000 C 
ATOM     19  N   UNL     1       2.391  -1.966  -0.686  0.00  0.00    +0.000 N 
ATOM     20  H   UNL     1       1.888  -2.468  -1.412  0.00  0.00    +0.000 HD
BRANCH  18  21
ATOM     21  C   UNL     1       3.174  -0.662  -2.564  0.00  0.00    +0.000 A 
ATOM     22  N   UNL     1       2.283  -1.419  -3.353  0.00  0.00    +0.000 NA
ATOM     23  C   UNL     1       2.286  -1.158  -4.629  0.00  0.00    +0.000 A 
ATOM     24  N   UNL     1       3.070  -0.224  -5.237  0.00  0.00    +0.000 N 
ATOM     25  C   UNL     1       3.932   0.526  -4.507  0.00  0.00    +0.000 A 
ATOM     26  N   UNL     1       4.766   1.456  -4.882  0.00  0.00    +0.000 NA
ATOM     27  C   UNL     1       5.384   1.856  -3.704  0.00  0.00    +0.000 A 
ATOM     28  C   UNL     1       4.974   1.215  -2.594  0.00  0.00    +0.000 A 
ATOM     29  C   UNL     1       3.987   0.290  -3.047  0.00  0.00    +0.000 A 
ATOM     30  H   UNL     1       3.050  -0.078  -6.236  0.00  0.00    +0.000 HD
ENDBRANCH  18  21
ENDBRANCH   1  19
TORSDOF 7
