REMARK  Name = 
REMARK  14 active torsions:
REMARK  status: ('A' for Active; 'I' for Inactive)
REMARK    1  A    between atoms: C_1  and  N_2
REMARK    2  A    between atoms: N_2  and  C_3
REMARK    3  A    between atoms: N_2  and  C_4
REMARK    4  A    between atoms: C_4  and  C_5
REMARK    5  A    between atoms: C_5  and  S_6
REMARK    6  A    between atoms: S_6  and  N_9
REMARK    7  A    between atoms: N_9  and  C_10
REMARK    8  A    between atoms: N_9  and  C_11
REMARK    9  A    between atoms: C_11  and  C_12
REMARK   10  A    between atoms: C_16  and  N_17
REMARK   11  A    between atoms: N_17  and  C_18
REMARK   12  A    between atoms: C_18  and  C_19
REMARK   13  A    between atoms: C_19  and  C_22
REMARK   14  A    between atoms: C_25  and  C_26
REMARK                            x       y       z     vdW  Elec       q    Type
REMARK                         _______ _______ _______ _____ _____    ______ ____
ROOT
ATOM      1  C   UNL     1       8.782   2.958  -3.461  0.00  0.00    +0.000 A 
ATOM      2  C   UNL     1       9.497   2.108  -4.294  0.00  0.00    +0.000 A 
ATOM      3  N   UNL     1      10.846   2.058  -4.339  0.00  0.00    +0.000 NA
ATOM      4  C   UNL     1      11.514   2.919  -3.531  0.00  0.00    +0.000 A 
ATOM      5  C   UNL     1      10.918   3.849  -2.677  0.00  0.00    +0.000 A 
ATOM      6  C   UNL     1       9.527   3.790  -2.613  0.00  0.00    +0.000 A 
ENDROOT
BRANCH   5   7
ATOM      7  N   UNL     1      11.686   4.663  -1.849  0.00  0.00    +0.000 N 
ATOM      8  H   UNL     1      12.598   4.893  -2.246  0.00  0.00    +0.000 HD
BRANCH   7   9
ATOM      9  C   UNL     1      11.072   5.799  -1.123  0.00  0.00    +0.000 C 
BRANCH   9  10
ATOM     10  C   UNL     1      12.125   6.642  -0.359  0.00  0.00    +0.000 C 
ATOM     11  F   UNL     1      12.811   5.816   0.487  0.00  0.00    +0.000 F 
ATOM     12  F   UNL     1      13.057   7.063  -1.273  0.00  0.00    +0.000 F 
BRANCH  10  13
ATOM     13  C   UNL     1      11.504   7.807   0.388  0.00  0.00    +0.000 A 
ATOM     14  C   UNL     1      11.014   7.636   1.693  0.00  0.00    +0.000 A 
ATOM     15  C   UNL     1      10.509   8.723   2.410  0.00  0.00    +0.000 A 
ATOM     16  C   UNL     1      10.496  10.001   1.839  0.00  0.00    +0.000 A 
ATOM     17  C   UNL     1      10.946  10.175   0.526  0.00  0.00    +0.000 A 
ATOM     18  C   UNL     1      11.445   9.083  -0.194  0.00  0.00    +0.000 A 
BRANCH  16  19
ATOM     19  C   UNL     1       9.995  11.136   2.659  0.00  0.00    +0.000 C 
ATOM     20  N   UNL     1      10.460  12.385   2.356  0.00  0.00    +0.000 N 
ATOM     21  O   UNL     1       9.230  10.959   3.598  0.00  0.00    +0.000 OA
ATOM     22  H   UNL     1      11.270  12.539   1.773  0.00  0.00    +0.000 HD
ATOM     23  H   UNL     1      10.199  13.124   3.000  0.00  0.00    +0.000 HD
ENDBRANCH  16  19
ENDBRANCH  10  13
ENDBRANCH   9  10
ENDBRANCH   7   9
ENDBRANCH   5   7
BRANCH   1  24
ATOM     24  C   UNL     1       7.274   2.935  -3.402  0.00  0.00    +0.000 C 
BRANCH  24  25
ATOM     25  N   UNL     1       6.553   4.127  -3.962  0.00  0.00    +0.000 NA
ATOM     26  C   UNL     1       6.995   5.431  -3.402  0.00  0.00    +0.000 C 
BRANCH  25  27
ATOM     27  S   UNL     1       4.839   3.978  -3.885  0.00  0.00    +0.000 S 
ATOM     28  O   UNL     1       4.271   5.214  -4.387  0.00  0.00    +0.000 OA
ATOM     29  O   UNL     1       4.511   3.497  -2.562  0.00  0.00    +0.000 OA
BRANCH  27  30
ATOM     30  C   UNL     1       4.509   2.700  -5.083  0.00  0.00    +0.000 C 
BRANCH  30  31
ATOM     31  C   UNL     1       3.000   2.557  -5.264  0.00  0.00    +0.000 C 
BRANCH  31  33
ATOM     32  C   UNL     1       1.158   1.362  -6.243  0.00  0.00    +0.000 C 
ATOM     33  N   UNL     1       2.621   1.474  -6.198  0.00  0.00    +0.000 NA
ATOM     34  C   UNL     1       3.135   1.706  -7.550  0.00  0.00    +0.000 C 
ENDBRANCH  31  33
ENDBRANCH  30  31
ENDBRANCH  27  30
ENDBRANCH  25  27
ENDBRANCH  24  25
ENDBRANCH   1  24
TORSDOF 11
