REMARK  Name = 
REMARK  2 active torsions:
REMARK  status: ('A' for Active; 'I' for Inactive)
REMARK    1  A    between atoms: N_1  and  C_2
REMARK    2  A    between atoms: C_2  and  C_3
REMARK                            x       y       z     vdW  Elec       q    Type
REMARK                         _______ _______ _______ _____ _____    ______ ____
ROOT
ATOM      1  C   UNL     1       2.994  -0.968  -1.051  0.00  0.00    +0.000 C 
ATOM      2  C   UNL     1       3.765  -0.552  -2.241  0.00  0.00    +0.000 C 
ATOM      3  N   UNL     1       3.803  -1.699  -2.974  0.00  0.00    +0.000 N 
ATOM      4  C   UNL     1       4.271  -2.145  -4.167  0.00  0.00    +0.000 A 
ATOM      5  C   UNL     1       3.919  -3.481  -4.221  0.00  0.00    +0.000 A 
ATOM      6 BR   UNL     1       4.270  -4.669  -5.625  0.00  0.00    +0.000 Br
ATOM      7  C   UNL     1       3.222  -3.840  -3.039  0.00  0.00    +0.000 A 
ATOM      8  C   UNL     1       3.157  -2.696  -2.287  0.00  0.00    +0.000 A 
ATOM      9  N   UNL     1       2.646  -2.243  -1.097  0.00  0.00    +0.000 NA
ENDROOT
BRANCH   1  10
ATOM     10  C   UNL     1       2.592  -0.015   0.038  0.00  0.00    +0.000 C 
BRANCH  10  11
ATOM     11  N   UNL     1       1.290   0.559  -0.311  0.00  0.00    +0.000 NA
ATOM     12  H   UNL     1       0.905   1.026   0.509  0.00  0.00    +0.000 HD
ATOM     13  H   UNL     1       0.646  -0.211  -0.512  0.00  0.00    +0.000 HD
ENDBRANCH  10  11
ENDBRANCH   1  10
TORSDOF 2
