REMARK  Name = 
REMARK  7 active torsions:
REMARK  status: ('A' for Active; 'I' for Inactive)
REMARK    1  A    between atoms: N_1  and  C_2
REMARK    2  A    between atoms: C_2  and  C_3
REMARK    3  A    between atoms: C_2  and  C_15
REMARK    4  A    between atoms: C_3  and  C_5
REMARK    5  A    between atoms: C_18  and  C_19
REMARK    6  A    between atoms: C_19  and  O_20
REMARK    7  A    between atoms: C_19  and  C_21
REMARK                            x       y       z     vdW  Elec       q    Type
REMARK                         _______ _______ _______ _____ _____    ______ ____
ROOT
ATOM      1  C   UNL     1       2.536   0.206  -0.038  0.00  0.00    +0.000 C 
ENDROOT
BRANCH   1   2
ATOM      2  C   UNL     1       2.844  -1.116   0.639  0.00  0.00    +0.000 A 
ATOM      3  C   UNL     1       3.395  -1.139   1.931  0.00  0.00    +0.000 A 
ATOM      4  C   UNL     1       3.703  -2.353   2.559  0.00  0.00    +0.000 A 
ATOM      5  C   UNL     1       3.463  -3.579   1.922  0.00  0.00    +0.000 A 
ATOM      6  C   UNL     1       2.928  -3.537   0.625  0.00  0.00    +0.000 A 
ATOM      7  C   UNL     1       2.646  -2.332  -0.015  0.00  0.00    +0.000 A 
BRANCH   5   8
ATOM      8  C   UNL     1       3.812  -4.871   2.653  0.00  0.00    +0.000 C 
BRANCH   8   9
ATOM      9  C   UNL     1       3.586  -6.229   1.934  0.00  0.00    +0.000 C 
ATOM     10  C   UNL     1       4.482  -6.390   0.689  0.00  0.00    +0.000 C 
ATOM     11  C   UNL     1       3.960  -7.402  -0.317  0.00  0.00    +0.000 C 
ATOM     12  O   UNL     1       2.563  -7.234  -0.533  0.00  0.00    +0.000 OA
ATOM     13  C   UNL     1       1.824  -7.557   0.640  0.00  0.00    +0.000 C 
ATOM     14  C   UNL     1       2.085  -6.529   1.723  0.00  0.00    +0.000 C 
ENDBRANCH   8   9
BRANCH   8  15
ATOM     15  O   UNL     1       3.068  -4.908   3.879  0.00  0.00    +0.000 OA
ATOM     16  H   UNL     1       2.227  -4.446   3.715  0.00  0.00    +0.000 HD
ENDBRANCH   8  15
ENDBRANCH   5   8
ENDBRANCH   1   2
BRANCH   1  17
ATOM     17  N   UNL     1       3.738   0.676  -0.773  0.00  0.00    +0.000 NA
ATOM     18  H   UNL     1       3.507   1.575  -1.196  0.00  0.00    +0.000 HD
ATOM     19  H   UNL     1       3.867   0.050  -1.570  0.00  0.00    +0.000 HD
ENDBRANCH   1  17
BRANCH   1  20
ATOM     20  C   UNL     1       1.316   0.127  -1.003  0.00  0.00    +0.000 C 
ATOM     21  O   UNL     1       1.506   0.138  -2.226  0.00  0.00    +0.000 OA
BRANCH  20  22
ATOM     22  C   UNL     1      -0.050  -0.110  -0.493  0.00  0.00    +0.000 A 
ATOM     23  C   UNL     1      -0.941  -0.869  -1.242  0.00  0.00    +0.000 A 
ATOM     24  S   UNL     1      -2.435  -1.135  -0.465  0.00  0.00    +0.000 S 
ATOM     25  C   UNL     1      -1.959  -0.206   0.879  0.00  0.00    +0.000 A 
ATOM     26  N   UNL     1      -2.791  -0.041   1.941  0.00  0.00    +0.000 NA
ATOM     27  C   UNL     1      -2.314   0.706   2.877  0.00  0.00    +0.000 A 
ATOM     28  N   UNL     1      -1.090   1.318   2.839  0.00  0.00    +0.000 N 
ATOM     29  C   UNL     1      -0.269   1.270   1.739  0.00  0.00    +0.000 A 
ATOM     30  O   UNL     1       0.697   2.013   1.640  0.00  0.00    +0.000 OA
ATOM     31  C   UNL     1      -0.698   0.341   0.712  0.00  0.00    +0.000 A 
ATOM     32  H   UNL     1      -0.813   1.961   3.569  0.00  0.00    +0.000 HD
ENDBRANCH  20  22
ENDBRANCH   1  20
TORSDOF 7
