REMARK  Name = 
REMARK  5 active torsions:
REMARK  status: ('A' for Active; 'I' for Inactive)
REMARK    1  A    between atoms: C_1  and  C_2
REMARK    2  A    between atoms: C_2  and  O_3
REMARK    3  A    between atoms: C_10  and  C_11
REMARK    4  A    between atoms: C_12  and  C_13
REMARK    5  A    between atoms: C_16  and  C_17
REMARK                            x       y       z     vdW  Elec       q    Type
REMARK                         _______ _______ _______ _____ _____    ______ ____
ROOT
ATOM      1  C   UNL     1       3.133   2.319   0.216  0.00  0.00    +0.000 C 
ATOM      2  C   UNL     1       4.009   1.178  -0.321  0.00  0.00    +0.000 C 
ATOM      3  C   UNL     1       4.040   1.131  -1.871  0.00  0.00    +0.000 C 
ATOM      4  N   UNL     1       2.777   0.632  -2.403  0.00  0.00    +0.000 N 
ATOM      5  C   UNL     1       2.025   1.385  -3.259  0.00  0.00    +0.000 A 
ATOM      6  N   UNL     1       0.862   0.898  -3.715  0.00  0.00    +0.000 NA
ATOM      7  C   UNL     1       0.171   1.652  -4.588  0.00  0.00    +0.000 A 
ATOM      8  C   UNL     1       0.589   2.884  -5.025  0.00  0.00    +0.000 A 
ATOM      9  C   UNL     1       1.784   3.317  -4.502  0.00  0.00    +0.000 A 
ATOM     10  N   UNL     1       2.493   2.586  -3.623  0.00  0.00    +0.000 NA
ATOM     11  C   UNL     1       2.313  -0.626  -1.836  0.00  0.00    +0.000 C 
ATOM     12  C   UNL     1       2.320  -0.533  -0.301  0.00  0.00    +0.000 C 
ATOM     13  O   UNL     1       3.573  -0.075   0.234  0.00  0.00    +0.000 OA
ENDROOT
BRANCH   2  14
ATOM     14  O   UNL     1       5.353   1.394   0.126  0.00  0.00    +0.000 OA
ATOM     15  H   UNL     1       5.484   2.351   0.220  0.00  0.00    +0.000 HD
ENDBRANCH   2  14
BRANCH   9  16
ATOM     16  C   UNL     1       2.355   4.606  -4.908  0.00  0.00    +0.000 C 
ATOM     17  C   UNL     1       3.514   5.099  -4.435  0.00  0.00    +0.000 C 
BRANCH  17  18
ATOM     18  C   UNL     1       4.104   6.361  -4.875  0.00  0.00    +0.000 A 
ATOM     19  N   UNL     1       3.455   7.075  -5.816  0.00  0.00    +0.000 NA
ATOM     20  C   UNL     1       4.051   8.213  -6.224  0.00  0.00    +0.000 A 
ATOM     21  C   UNL     1       5.249   8.670  -5.722  0.00  0.00    +0.000 A 
ATOM     22  C   UNL     1       5.834   7.865  -4.769  0.00  0.00    +0.000 A 
ATOM     23  N   UNL     1       5.281   6.712  -4.321  0.00  0.00    +0.000 NA
BRANCH  21  24
ATOM     24  C   UNL     1       5.829   9.921  -6.232  0.00  0.00    +0.000 C 
ATOM     25  N   UNL     1       6.705  10.599  -5.434  0.00  0.00    +0.000 N 
ATOM     26  O   UNL     1       5.505  10.359  -7.327  0.00  0.00    +0.000 OA
ATOM     27  H   UNL     1       6.830  10.419  -4.448  0.00  0.00    +0.000 HD
ATOM     28  H   UNL     1       6.999  11.507  -5.776  0.00  0.00    +0.000 HD
ENDBRANCH  21  24
ENDBRANCH  17  18
ENDBRANCH   9  16
TORSDOF 4
