REMARK  Name = 
REMARK  6 active torsions:
REMARK  status: ('A' for Active; 'I' for Inactive)
REMARK    1  A    between atoms: C_2  and  C_4
REMARK    2  A    between atoms: C_7  and  O_8
REMARK    3  A    between atoms: O_8  and  C_9
REMARK    4  A    between atoms: C_9  and  C_10
REMARK    5  A    between atoms: C_15  and  N_16
REMARK    6  A    between atoms: C_19  and  O_20
REMARK                            x       y       z     vdW  Elec       q    Type
REMARK                         _______ _______ _______ _____ _____    ______ ____
ROOT
ATOM      1  C   UNL     1       6.043  -1.108   6.971  0.00  0.00    +0.000 A 
ATOM      2  C   UNL     1       6.387   0.135   7.505  0.00  0.00    +0.000 A 
ATOM      3  C   UNL     1       7.223   0.199   8.615  0.00  0.00    +0.000 A 
ATOM      4  F   UNL     1       7.526   1.394   9.136  0.00  0.00    +0.000 F 
ATOM      5  C   UNL     1       7.732  -0.953   9.201  0.00  0.00    +0.000 A 
ATOM      6  C   UNL     1       7.413  -2.224   8.691  0.00  0.00    +0.000 A 
ATOM      7  C   UNL     1       6.571  -2.266   7.567  0.00  0.00    +0.000 A 
ENDROOT
BRANCH   6   8
ATOM      8  N   UNL     1       7.914  -3.384   9.251  0.00  0.00    +0.000 N 
ATOM      9  C   UNL     1       9.207  -3.391   9.932  0.00  0.00    +0.000 C 
ATOM     10  C   UNL     1       9.012  -3.681  11.413  0.00  0.00    +0.000 C 
ATOM     11  C   UNL     1       8.181  -4.943  11.639  0.00  0.00    +0.000 C 
ATOM     12  C   UNL     1       6.868  -4.914  10.860  0.00  0.00    +0.000 C 
ATOM     13  C   UNL     1       7.077  -4.578   9.384  0.00  0.00    +0.000 C 
BRANCH  11  14
ATOM     14  O   UNL     1       8.937  -6.109  11.306  0.00  0.00    +0.000 OA
ATOM     15  H   UNL     1       9.155  -6.084  10.360  0.00  0.00    +0.000 HD
ENDBRANCH  11  14
ENDBRANCH   6   8
BRANCH   1  16
ATOM     16  C   UNL     1       5.089  -1.217   5.803  0.00  0.00    +0.000 C 
BRANCH  16  17
ATOM     17  O   UNL     1       5.788  -1.136   4.547  0.00  0.00    +0.000 OA
BRANCH  17  21
ATOM     18  C   UNL     1       3.167  -1.434   1.366  0.00  0.00    +0.000 A 
ATOM     19  C   UNL     1       4.531  -1.281   1.106  0.00  0.00    +0.000 A 
ATOM     20  C   UNL     1       5.430  -1.177   2.181  0.00  0.00    +0.000 A 
ATOM     21  C   UNL     1       4.920  -1.235   3.475  0.00  0.00    +0.000 A 
ATOM     22  N   UNL     1       3.604  -1.382   3.737  0.00  0.00    +0.000 NA
ATOM     23  C   UNL     1       2.757  -1.467   2.688  0.00  0.00    +0.000 A 
BRANCH  18  25
ATOM     24  N   UNL     1       2.524  -2.093  -0.874  0.00  0.00    +0.000 N 
ATOM     25  C   UNL     1       2.142  -1.548   0.313  0.00  0.00    +0.000 C 
ATOM     26  O   UNL     1       0.982  -1.193   0.512  0.00  0.00    +0.000 OA
ATOM     27  H   UNL     1       1.790  -2.257  -1.553  0.00  0.00    +0.000 HD
ATOM     28  H   UNL     1       3.377  -2.625  -0.972  0.00  0.00    +0.000 HD
ENDBRANCH  18  25
ENDBRANCH  17  21
ENDBRANCH  16  17
ENDBRANCH   1  16
TORSDOF 6
