REMARK  Name = 
REMARK  3 active torsions:
REMARK  status: ('A' for Active; 'I' for Inactive)
REMARK    1  A    between atoms: C_2  and  C_4
REMARK    2  A    between atoms: N_8  and  C_9
REMARK    3  A    between atoms: C_9  and  C_10
REMARK                            x       y       z     vdW  Elec       q    Type
REMARK                         _______ _______ _______ _____ _____    ______ ____
ROOT
ATOM      1  C   UNL     1       3.495   3.550  -1.101  0.00  0.00    +0.000 A 
ATOM      2  C   UNL     1       2.707   3.914  -0.017  0.00  0.00    +0.000 A 
ATOM      3  C   UNL     1       3.278   3.974   1.254  0.00  0.00    +0.000 A 
ATOM      4  C   UNL     1       4.625   3.680   1.420  0.00  0.00    +0.000 A 
ATOM      5  N   UNL     1       5.244   3.633   2.671  0.00  0.00    +0.000 N 
ATOM      6  N   UNL     1       5.397   3.323   0.373  0.00  0.00    +0.000 NA
ATOM      7  C   UNL     1       4.828   3.251  -0.862  0.00  0.00    +0.000 A 
ATOM      8  H   UNL     1       6.226   3.439   2.483  0.00  0.00    +0.000 HD
ENDROOT
BRANCH   1  10
ATOM      9  N   UNL     1       1.838   4.175  -2.755  0.00  0.00    +0.000 N 
ATOM     10  C   UNL     1       2.929   3.405  -2.459  0.00  0.00    +0.000 C 
ATOM     11  O   UNL     1       3.411   2.636  -3.279  0.00  0.00    +0.000 OA
ATOM     12  H   UNL     1       1.462   4.109  -3.691  0.00  0.00    +0.000 HD
ATOM     13  H   UNL     1       1.555   4.966  -2.191  0.00  0.00    +0.000 HD
ENDBRANCH   1  10
BRANCH   5  14
ATOM     14  C   UNL     1       4.969   4.537   3.806  0.00  0.00    +0.000 C 
ATOM     15  C   UNL     1       4.868   3.805   5.142  0.00  0.00    +0.000 C 
ATOM     16  C   UNL     1       3.684   4.542   4.615  0.00  0.00    +0.000 C 
BRANCH  14  17
ATOM     17  C   UNL     1       5.744   5.844   3.734  0.00  0.00    +0.000 A 
ATOM     18  C   UNL     1       7.028   5.992   4.279  0.00  0.00    +0.000 A 
ATOM     19  C   UNL     1       7.749   7.170   4.090  0.00  0.00    +0.000 A 
ATOM     20  C   UNL     1       7.150   8.187   3.370  0.00  0.00    +0.000 A 
ATOM     21 CL   UNL     1       7.997   9.636   3.021  0.00  0.00    +0.000 Cl
ATOM     22  N   UNL     1       5.905   8.125   2.862  0.00  0.00    +0.000 NA
ATOM     23  C   UNL     1       5.243   6.959   3.054  0.00  0.00    +0.000 A 
ENDBRANCH  14  17
ENDBRANCH   5  14
TORSDOF 3
