REMARK  Name = 
REMARK  7 active torsions:
REMARK  status: ('A' for Active; 'I' for Inactive)
REMARK    1  A    between atoms: N_1  and  C_2
REMARK    2  A    between atoms: C_2  and  C_3
REMARK    3  A    between atoms: C_2  and  C_17
REMARK    4  A    between atoms: C_3  and  N_4
REMARK    5  A    between atoms: N_7  and  C_8
REMARK    6  A    between atoms: C_8  and  C_9
REMARK    7  A    between atoms: C_17  and  C_19
REMARK                            x       y       z     vdW  Elec       q    Type
REMARK                         _______ _______ _______ _____ _____    ______ ____
ROOT
ATOM      1  C   UNL     1       0.499  -1.664   0.551  0.00  0.00    +0.000 C 
ENDROOT
BRANCH   1   2
ATOM      2  N   UNL     1       0.841  -2.733  -0.421  0.00  0.00    +0.000 NA
ATOM      3  H   UNL     1       0.447  -3.610  -0.079  0.00  0.00    +0.000 HD
ATOM      4  H   UNL     1       1.854  -2.872  -0.386  0.00  0.00    +0.000 HD
ENDBRANCH   1   2
BRANCH   1   5
ATOM      5  C   UNL     1       1.216  -1.926   1.900  0.00  0.00    +0.000 C 
ATOM      6  O   UNL     1       2.274  -2.564   1.912  0.00  0.00    +0.000 OA
BRANCH   5   7
ATOM      7  C   UNL     1       0.725  -1.309   3.145  0.00  0.00    +0.000 A 
ATOM      8  C   UNL     1       1.620  -0.970   4.153  0.00  0.00    +0.000 A 
ATOM      9  S   UNL     1       0.900  -0.115   5.443  0.00  0.00    +0.000 S 
ATOM     10  C   UNL     1      -0.638  -0.211   4.718  0.00  0.00    +0.000 A 
ATOM     11  N   UNL     1      -1.722   0.378   5.288  0.00  0.00    +0.000 NA
ATOM     12  C   UNL     1      -2.823   0.219   4.631  0.00  0.00    +0.000 A 
ATOM     13  N   UNL     1      -2.944  -0.508   3.476  0.00  0.00    +0.000 N 
ATOM     14  C   UNL     1      -1.907  -1.249   2.964  0.00  0.00    +0.000 A 
ATOM     15  O   UNL     1      -2.111  -2.121   2.130  0.00  0.00    +0.000 OA
ATOM     16  C   UNL     1      -0.614  -0.959   3.554  0.00  0.00    +0.000 A 
ATOM     17  H   UNL     1      -3.854  -0.684   3.074  0.00  0.00    +0.000 HD
ENDBRANCH   5   7
ENDBRANCH   1   5
BRANCH   1  18
ATOM     18  C   UNL     1       0.870  -0.240   0.060  0.00  0.00    +0.000 C 
BRANCH  18  19
ATOM     19  N   UNL     1       0.239   0.221  -1.201  0.00  0.00    +0.000 NA
ATOM     20  C   UNL     1       0.768   1.543  -1.598  0.00  0.00    +0.000 C 
ATOM     21  C   UNL     1       0.287   2.692  -0.680  0.00  0.00    +0.000 C 
ATOM     22  N   UNL     1      -1.183   2.857  -0.628  0.00  0.00    +0.000 NA
ATOM     23  C   UNL     1      -1.784   1.529  -0.320  0.00  0.00    +0.000 C 
ATOM     24  C   UNL     1      -1.234   0.320  -1.136  0.00  0.00    +0.000 C 
BRANCH  22  25
ATOM     25  C   UNL     1      -1.762   3.417  -1.871  0.00  0.00    +0.000 C 
BRANCH  25  26
ATOM     26  C   UNL     1      -1.120   4.730  -2.401  0.00  0.00    +0.000 C 
ATOM     27  C   UNL     1      -1.308   5.949  -1.476  0.00  0.00    +0.000 C 
ATOM     28  C   UNL     1      -2.611   6.718  -1.701  0.00  0.00    +0.000 C 
ATOM     29  N   UNL     1      -2.858   7.011  -3.112  0.00  0.00    +0.000 NA
ATOM     30  C   UNL     1      -2.927   5.771  -3.882  0.00  0.00    +0.000 C 
ATOM     31  C   UNL     1      -1.593   5.039  -3.832  0.00  0.00    +0.000 C 
ATOM     32  H   UNL     1      -2.098   7.586  -3.470  0.00  0.00    +0.000 HD
ENDBRANCH  25  26
ENDBRANCH  22  25
ENDBRANCH  18  19
ENDBRANCH   1  18
TORSDOF 7
