REMARK  Name = 
REMARK  6 active torsions:
REMARK  status: ('A' for Active; 'I' for Inactive)
REMARK    1  A    between atoms: C_1  and  C_2
REMARK    2  A    between atoms: C_2  and  N_3
REMARK    3  A    between atoms: C_2  and  C_16
REMARK    4  A    between atoms: C_4  and  C_6
REMARK    5  A    between atoms: C_19  and  O_20
REMARK    6  A    between atoms: O_20  and  C_21
REMARK                            x       y       z     vdW  Elec       q    Type
REMARK                         _______ _______ _______ _____ _____    ______ ____
ROOT
ATOM      1  C   UNL     1       2.921   0.273   1.524  0.00  0.00    +0.000 C 
ATOM      2  C   UNL     1       2.456  -0.203   0.140  0.00  0.00    +0.000 C 
ENDROOT
BRANCH   2   3
ATOM      3  C   UNL     1       3.143  -1.480  -0.285  0.00  0.00    +0.000 A 
ATOM      4  C   UNL     1       3.427  -2.525   0.597  0.00  0.00    +0.000 A 
ATOM      5  C   UNL     1       4.240  -3.574   0.182  0.00  0.00    +0.000 A 
ATOM      6  C   UNL     1       4.770  -3.543  -1.103  0.00  0.00    +0.000 A 
ATOM      7  N   UNL     1       4.397  -2.628  -2.024  0.00  0.00    +0.000 NA
ATOM      8  C   UNL     1       3.597  -1.623  -1.595  0.00  0.00    +0.000 A 
BRANCH   6   9
ATOM      9  O   UNL     1       5.674  -4.482  -1.539  0.00  0.00    +0.000 OA
BRANCH   9  10
ATOM     10  C   UNL     1       6.759  -4.728  -0.707  0.00  0.00    +0.000 A 
ATOM     11  N   UNL     1       7.370  -5.908  -0.903  0.00  0.00    +0.000 NA
ATOM     12  C   UNL     1       8.384  -6.196  -0.065  0.00  0.00    +0.000 A 
ATOM     13  C   UNL     1       8.799  -5.365   0.948  0.00  0.00    +0.000 A 
ATOM     14  C   UNL     1       8.121  -4.175   1.051  0.00  0.00    +0.000 A 
ATOM     15  N   UNL     1       7.109  -3.829   0.238  0.00  0.00    +0.000 NA
ENDBRANCH   9  10
ENDBRANCH   6   9
ENDBRANCH   2   3
BRANCH   2  16
ATOM     16  N   UNL     1       1.013  -0.336   0.103  0.00  0.00    +0.000 N 
ATOM     17  C   UNL     1       0.214   0.758  -0.131  0.00  0.00    +0.000 C 
ATOM     18  O   UNL     1       0.672   1.840  -0.489  0.00  0.00    +0.000 OA
ATOM     19  H   UNL     1       0.611  -1.150   0.558  0.00  0.00    +0.000 HD
BRANCH  17  20
ATOM     20  C   UNL     1      -1.229   0.574   0.043  0.00  0.00    +0.000 A 
ATOM     21  C   UNL     1      -2.118   1.332  -0.705  0.00  0.00    +0.000 A 
ATOM     22  S   UNL     1      -3.753   1.040  -0.319  0.00  0.00    +0.000 S 
ATOM     23  C   UNL     1      -3.321  -0.067   0.901  0.00  0.00    +0.000 A 
ATOM     24  N   UNL     1      -4.265  -0.634   1.696  0.00  0.00    +0.000 NA
ATOM     25  C   UNL     1      -3.792  -1.409   2.613  0.00  0.00    +0.000 A 
ATOM     26  N   UNL     1      -2.463  -1.700   2.782  0.00  0.00    +0.000 N 
ATOM     27  C   UNL     1      -1.481  -1.211   1.952  0.00  0.00    +0.000 A 
ATOM     28  O   UNL     1      -0.315  -1.583   2.043  0.00  0.00    +0.000 OA
ATOM     29  C   UNL     1      -1.955  -0.266   0.960  0.00  0.00    +0.000 A 
ATOM     30  H   UNL     1      -2.165  -2.353   3.491  0.00  0.00    +0.000 HD
ENDBRANCH  17  20
ENDBRANCH   2  16
TORSDOF 5
