REMARK  Name = 
REMARK  11 active torsions:
REMARK  status: ('A' for Active; 'I' for Inactive)
REMARK    1  A    between atoms: C_1  and  C_2
REMARK    2  A    between atoms: C_2  and  N_3
REMARK    3  A    between atoms: C_2  and  C_19
REMARK    4  A    between atoms: N_3  and  C_4
REMARK    5  A    between atoms: C_4  and  C_5
REMARK    6  A    between atoms: C_8  and  C_9
REMARK    7  A    between atoms: C_9  and  O_10
REMARK    8  A    between atoms: C_9  and  C_11
REMARK    9  A    between atoms: C_11  and  N_12
REMARK   10  A    between atoms: C_19  and  C_21
REMARK   11  A    between atoms: N_27  and  C_28
REMARK                            x       y       z     vdW  Elec       q    Type
REMARK                         _______ _______ _______ _____ _____    ______ ____
ROOT
ATOM      1  N   UNL     1       1.115   0.024   0.059  0.00  0.00    +0.000 NA
ATOM      2  H   UNL     1       0.783   0.422  -0.825  0.00  0.00    +0.000 HD
ENDROOT
BRANCH   1   4
ATOM      3  C   UNL     1       2.938  -1.062  -1.088  0.00  0.00    +0.000 C 
ATOM      4  C   UNL     1       2.592  -0.054   0.007  0.00  0.00    +0.000 C 
BRANCH   4   5
ATOM      5  C   UNL     1       3.220   1.324  -0.333  0.00  0.00    +0.000 C 
ATOM      6  O   UNL     1       2.639   2.099  -1.098  0.00  0.00    +0.000 OA
BRANCH   5   7
ATOM      7  C   UNL     1       4.538   1.661   0.223  0.00  0.00    +0.000 A 
ATOM      8  C   UNL     1       5.508   0.711   0.497  0.00  0.00    +0.000 A 
ATOM      9  S   UNL     1       6.982   1.382   1.035  0.00  0.00    +0.000 S 
ATOM     10  C   UNL     1       6.366   2.963   0.928  0.00  0.00    +0.000 A 
ATOM     11  N   UNL     1       7.148   4.031   1.224  0.00  0.00    +0.000 NA
ATOM     12  C   UNL     1       6.570   5.175   1.072  0.00  0.00    +0.000 A 
ATOM     13  N   UNL     1       5.258   5.365   0.681  0.00  0.00    +0.000 N 
ATOM     14  C   UNL     1       4.723   6.704   0.571  0.00  0.00    +0.000 C 
ATOM     15  C   UNL     1       4.392   4.286   0.475  0.00  0.00    +0.000 A 
ATOM     16  O   UNL     1       3.180   4.429   0.335  0.00  0.00    +0.000 OA
ATOM     17  C   UNL     1       5.045   2.984   0.527  0.00  0.00    +0.000 A 
ENDBRANCH   5   7
ENDBRANCH   4   5
ENDBRANCH   1   4
BRANCH   1  18
ATOM     18  C   UNL     1       0.636   0.889   1.139  0.00  0.00    +0.000 C 
BRANCH  18  19
ATOM     19  C   UNL     1      -0.871   0.958   1.118  0.00  0.00    +0.000 A 
ATOM     20  C   UNL     1      -1.661  -0.185   1.318  0.00  0.00    +0.000 A 
ATOM     21  C   UNL     1      -3.055  -0.108   1.230  0.00  0.00    +0.000 A 
ATOM     22  C   UNL     1      -3.686   1.110   0.932  0.00  0.00    +0.000 A 
ATOM     23  C   UNL     1      -2.891   2.253   0.786  0.00  0.00    +0.000 A 
ATOM     24  C   UNL     1      -1.503   2.176   0.866  0.00  0.00    +0.000 A 
BRANCH  22  25
ATOM     25  C   UNL     1      -5.197   1.168   0.792  0.00  0.00    +0.000 C 
BRANCH  25  26
ATOM     26  O   UNL     1      -5.759   1.455   2.078  0.00  0.00    +0.000 OA
ATOM     27  H   UNL     1      -5.210   2.154   2.473  0.00  0.00    +0.000 HD
ENDBRANCH  25  26
BRANCH  25  28
ATOM     28  C   UNL     1      -5.749   2.222  -0.219  0.00  0.00    +0.000 C 
BRANCH  28  29
ATOM     29  N   UNL     1      -5.228   2.137  -1.595  0.00  0.00    +0.000 NA
ATOM     30  C   UNL     1      -5.649   0.922  -2.294  0.00  0.00    +0.000 C 
ATOM     31  C   UNL     1      -6.986   1.273  -2.921  0.00  0.00    +0.000 C 
ATOM     32  O   UNL     1      -7.025   2.700  -3.019  0.00  0.00    +0.000 OA
ATOM     33  C   UNL     1      -5.816   3.181  -2.435  0.00  0.00    +0.000 C 
ENDBRANCH  28  29
ENDBRANCH  25  28
ENDBRANCH  22  25
ENDBRANCH  18  19
ENDBRANCH   1  18
TORSDOF 9
