REMARK  Name = 
REMARK  5 active torsions:
REMARK  status: ('A' for Active; 'I' for Inactive)
REMARK    1  A    between atoms: N_1  and  C_2
REMARK    2  A    between atoms: C_2  and  C_3
REMARK    3  A    between atoms: C_6  and  O_7
REMARK    4  A    between atoms: O_7  and  C_8
REMARK    5  A    between atoms: C_8  and  C_9
REMARK                            x       y       z     vdW  Elec       q    Type
REMARK                         _______ _______ _______ _____ _____    ______ ____
ROOT
ATOM      1  C   UNL     1       3.019  -0.561  -1.337  0.00  0.00    +0.000 A 
ATOM      2  N   UNL     1       2.896  -1.912  -1.477  0.00  0.00    +0.000 NA
ATOM      3  C   UNL     1       3.222  -2.446  -2.675  0.00  0.00    +0.000 A 
ATOM      4  C   UNL     1       3.638  -1.702  -3.772  0.00  0.00    +0.000 A 
ATOM      5  C   UNL     1       3.811  -0.334  -3.596  0.00  0.00    +0.000 A 
ATOM      6  C   UNL     1       3.491   0.253  -2.370  0.00  0.00    +0.000 A 
ATOM      7 CL   UNL     1       3.676   1.960  -2.209  0.00  0.00    +0.000 Cl
ENDROOT
BRANCH   1   8
ATOM      8  C   UNL     1       2.512  -0.010  -0.024  0.00  0.00    +0.000 C 
BRANCH   8   9
ATOM      9  N   UNL     1       1.086   0.327  -0.090  0.00  0.00    +0.000 NA
ATOM     10  H   UNL     1       0.758   0.547   0.848  0.00  0.00    +0.000 HD
ATOM     11  H   UNL     1       0.582  -0.514  -0.375  0.00  0.00    +0.000 HD
ENDBRANCH   8   9
ENDBRANCH   1   8
BRANCH   4  12
ATOM     12  O   UNL     1       3.883  -2.195  -5.024  0.00  0.00    +0.000 OA
BRANCH  12  13
ATOM     13  C   UNL     1       3.211  -3.425  -5.319  0.00  0.00    +0.000 C 
BRANCH  13  14
ATOM     14  C   UNL     1       3.072  -3.630  -6.801  0.00  0.00    +0.000 A 
ATOM     15  C   UNL     1       1.949  -4.284  -7.320  0.00  0.00    +0.000 A 
ATOM     16  C   UNL     1       1.843  -4.498  -8.690  0.00  0.00    +0.000 A 
ATOM     17  C   UNL     1       2.875  -4.063  -9.500  0.00  0.00    +0.000 A 
ATOM     18  N   UNL     1       3.985  -3.447  -9.036  0.00  0.00    +0.000 NA
ATOM     19  C   UNL     1       4.059  -3.246  -7.701  0.00  0.00    +0.000 A 
ENDBRANCH  13  14
ENDBRANCH  12  13
ENDBRANCH   4  12
TORSDOF 5
