REMARK  Name = 
REMARK  4 active torsions:
REMARK  status: ('A' for Active; 'I' for Inactive)
REMARK    1  A    between atoms: C_5  and  N_6
REMARK    2  A    between atoms: N_6  and  C_7
REMARK    3  A    between atoms: C_7  and  C_8
REMARK    4  A    between atoms: C_12  and  N_13
REMARK                            x       y       z     vdW  Elec       q    Type
REMARK                         _______ _______ _______ _____ _____    ______ ____
ROOT
ATOM      1  C   UNL     1       3.491  -3.931   0.048  0.00  0.00    +0.000 A 
ATOM      2  C   UNL     1       2.579  -4.980   0.046  0.00  0.00    +0.000 A 
ATOM      3  N   UNL     1       2.956  -6.270  -0.035  0.00  0.00    +0.000 NA
ATOM      4  C   UNL     1       4.295  -6.466  -0.111  0.00  0.00    +0.000 A 
ATOM      5  C   UNL     1       5.255  -5.444  -0.092  0.00  0.00    +0.000 A 
ATOM      6  N   UNL     1       4.836  -4.162   0.008  0.00  0.00    +0.000 NA
ENDROOT
BRANCH   5   7
ATOM      7  N   UNL     1       6.606  -5.725  -0.156  0.00  0.00    +0.000 N 
ATOM      8  C   UNL     1       7.578  -4.823   0.468  0.00  0.00    +0.000 C 
ATOM      9  C   UNL     1       8.635  -4.321  -0.540  0.00  0.00    +0.000 C 
ATOM     10  N   UNL     1       9.256  -5.397  -1.344  0.00  0.00    +0.000 NA
ATOM     11  C   UNL     1       8.180  -6.131  -2.038  0.00  0.00    +0.000 C 
ATOM     12  C   UNL     1       7.127  -6.737  -1.080  0.00  0.00    +0.000 C 
ATOM     13  H   UNL     1       9.720  -6.042  -0.704  0.00  0.00    +0.000 HD
ENDBRANCH   5   7
BRANCH   1  14
ATOM     14  C   UNL     1       2.987  -2.502   0.022  0.00  0.00    +0.000 C 
BRANCH  14  15
ATOM     15  N   UNL     1       2.754  -1.963   1.357  0.00  0.00    +0.000 N 
ATOM     16  H   UNL     1       2.424  -2.631   2.048  0.00  0.00    +0.000 HD
BRANCH  15  21
ATOM     17  C   UNL     1       1.701   1.573   0.792  0.00  0.00    +0.000 A 
ATOM     18  C   UNL     1       1.480   1.930   2.110  0.00  0.00    +0.000 A 
ATOM     19  N   UNL     1       1.644   1.082   3.143  0.00  0.00    +0.000 NA
ATOM     20  C   UNL     1       2.045  -0.177   2.832  0.00  0.00    +0.000 A 
ATOM     21  C   UNL     1       2.270  -0.668   1.541  0.00  0.00    +0.000 A 
ATOM     22  C   UNL     1       2.111   0.265   0.514  0.00  0.00    +0.000 A 
ENDBRANCH  15  21
ENDBRANCH  14  15
ENDBRANCH   1  14
TORSDOF 4
