REMARK  Name = 
REMARK  5 active torsions:
REMARK  status: ('A' for Active; 'I' for Inactive)
REMARK    1  A    between atoms: C_2  and  C_3
REMARK    2  A    between atoms: C_6  and  C_7
REMARK    3  A    between atoms: C_7  and  N_8
REMARK    4  A    between atoms: N_8  and  C_9
REMARK    5  A    between atoms: C_13  and  C_14
REMARK                            x       y       z     vdW  Elec       q    Type
REMARK                         _______ _______ _______ _____ _____    ______ ____
ROOT
ATOM      1  N   UNL     1       4.029   1.049   1.115  0.00  0.00    +0.000 N 
ATOM      2  H   UNL     1       3.199   1.477   1.513  0.00  0.00    +0.000 HD
ENDROOT
BRANCH   1   3
ATOM      3  C   UNL     1       5.161   1.877   1.199  0.00  0.00    +0.000 A 
ATOM      4  C   UNL     1       6.358   1.673   0.522  0.00  0.00    +0.000 A 
ATOM      5  C   UNL     1       7.449   2.523   0.744  0.00  0.00    +0.000 A 
ATOM      6  C   UNL     1       7.355   3.585   1.651  0.00  0.00    +0.000 A 
ATOM      7  C   UNL     1       6.165   3.832   2.349  0.00  0.00    +0.000 A 
ATOM      8  C   UNL     1       5.099   2.945   2.114  0.00  0.00    +0.000 A 
BRANCH   7   9
ATOM      9  C   UNL     1       5.975   5.006   3.237  0.00  0.00    +0.000 A 
ATOM     10  C   UNL     1       6.591   6.239   2.956  0.00  0.00    +0.000 A 
ATOM     11  C   UNL     1       6.306   7.383   3.708  0.00  0.00    +0.000 A 
ATOM     12  C   UNL     1       5.395   7.325   4.757  0.00  0.00    +0.000 A 
ATOM     13  C   UNL     1       4.794   6.113   5.079  0.00  0.00    +0.000 A 
ATOM     14  C   UNL     1       5.095   4.967   4.337  0.00  0.00    +0.000 A 
ENDBRANCH   7   9
ENDBRANCH   1   3
BRANCH   1  15
ATOM     15  C   UNL     1       3.774  -0.017   0.144  0.00  0.00    +0.000 C 
ATOM     16  C   UNL     1       4.537  -1.325   0.152  0.00  0.00    +0.000 C 
ATOM     17  C   UNL     1       3.185  -1.277   0.780  0.00  0.00    +0.000 C 
BRANCH  15  21
ATOM     18  C   UNL     1       2.004   1.151  -3.675  0.00  0.00    +0.000 A 
ATOM     19  C   UNL     1       3.390   1.146  -3.513  0.00  0.00    +0.000 A 
ATOM     20  C   UNL     1       3.954   0.802  -2.278  0.00  0.00    +0.000 A 
ATOM     21  C   UNL     1       3.157   0.450  -1.175  0.00  0.00    +0.000 A 
ATOM     22  C   UNL     1       1.762   0.514  -1.349  0.00  0.00    +0.000 A 
ATOM     23  C   UNL     1       1.188   0.846  -2.582  0.00  0.00    +0.000 A 
BRANCH  18  25
ATOM     24  N   UNL     1       0.947   1.662  -5.986  0.00  0.00    +0.000 NA
ATOM     25  C   UNL     1       1.419   1.437  -4.947  0.00  0.00    +0.000 C 
ENDBRANCH  18  25
ENDBRANCH  15  21
ENDBRANCH   1  15
TORSDOF 5
