REMARK  Name = 
REMARK  7 active torsions:
REMARK  status: ('A' for Active; 'I' for Inactive)
REMARK    1  A    between atoms: C_1  and  C_2
REMARK    2  A    between atoms: C_2  and  N_3
REMARK    3  A    between atoms: C_2  and  C_21
REMARK    4  A    between atoms: C_4  and  C_6
REMARK    5  A    between atoms: C_9  and  C_10
REMARK    6  A    between atoms: C_10  and  N_11
REMARK    7  A    between atoms: C_12  and  C_14
REMARK                            x       y       z     vdW  Elec       q    Type
REMARK                         _______ _______ _______ _____ _____    ______ ____
ROOT
ATOM      1  N   UNL     1       3.123   0.623  -1.131  0.00  0.00    +0.000 N 
ATOM      2  C   UNL     1       2.612   0.726  -2.407  0.00  0.00    +0.000 C 
ATOM      3  O   UNL     1       1.711   0.027  -2.853  0.00  0.00    +0.000 OA
ATOM      4  H   UNL     1       3.596   1.437  -0.750  0.00  0.00    +0.000 HD
ENDROOT
BRANCH   2   5
ATOM      5  C   UNL     1       3.213   1.791  -3.257  0.00  0.00    +0.000 A 
ATOM      6  C   UNL     1       4.564   2.137  -3.135  0.00  0.00    +0.000 A 
ATOM      7  C   UNL     1       5.115   3.124  -3.959  0.00  0.00    +0.000 A 
ATOM      8  C   UNL     1       4.324   3.784  -4.910  0.00  0.00    +0.000 A 
ATOM      9  C   UNL     1       2.979   3.409  -5.050  0.00  0.00    +0.000 A 
ATOM     10  C   UNL     1       2.427   2.417  -4.230  0.00  0.00    +0.000 A 
BRANCH   8  11
ATOM     11  C   UNL     1       4.917   4.864  -5.779  0.00  0.00    +0.000 C 
BRANCH  11  12
ATOM     12  N   UNL     1       5.492   4.328  -6.986  0.00  0.00    +0.000 N 
ATOM     13  C   UNL     1       6.031   5.155  -7.952  0.00  0.00    +0.000 C 
ATOM     14  O   UNL     1       6.049   6.375  -7.827  0.00  0.00    +0.000 OA
ATOM     15  H   UNL     1       5.548   3.325  -7.113  0.00  0.00    +0.000 HD
BRANCH  13  16
ATOM     16  C   UNL     1       6.564   4.469  -9.105  0.00  0.00    +0.000 A 
ATOM     17  C   UNL     1       7.200   4.927 -10.238  0.00  0.00    +0.000 A 
ATOM     18  C   UNL     1       7.460   3.763 -10.983  0.00  0.00    +0.000 A 
ATOM     19  N   UNL     1       7.027   2.664 -10.363  0.00  0.00    +0.000 NA
ATOM     20  O   UNL     1       6.463   3.109  -9.180  0.00  0.00    +0.000 OA
ENDBRANCH  13  16
ENDBRANCH  11  12
ENDBRANCH   8  11
ENDBRANCH   2   5
BRANCH   1  22
ATOM     21  C   UNL     1       2.928  -1.782  -0.596  0.00  0.00    +0.000 C 
ATOM     22  C   UNL     1       2.669  -0.344  -0.141  0.00  0.00    +0.000 C 
BRANCH  22  23
ATOM     23  C   UNL     1       1.241  -0.043   0.259  0.00  0.00    +0.000 A 
ATOM     24  C   UNL     1       0.204  -0.964   0.258  0.00  0.00    +0.000 A 
ATOM     25  S   UNL     1      -1.303  -0.297   0.700  0.00  0.00    +0.000 S 
ATOM     26  C   UNL     1      -0.622   1.247   0.915  0.00  0.00    +0.000 A 
ATOM     27  N   UNL     1      -1.391   2.312   1.263  0.00  0.00    +0.000 NA
ATOM     28  C   UNL     1      -0.738   3.420   1.381  0.00  0.00    +0.000 A 
ATOM     29  N   UNL     1       0.617   3.557   1.205  0.00  0.00    +0.000 N 
ATOM     30  C   UNL     1       1.442   2.503   0.875  0.00  0.00    +0.000 A 
ATOM     31  O   UNL     1       2.657   2.647   0.764  0.00  0.00    +0.000 OA
ATOM     32  C   UNL     1       0.742   1.245   0.690  0.00  0.00    +0.000 A 
ATOM     33  H   UNL     1       1.063   4.453   1.332  0.00  0.00    +0.000 HD
ENDBRANCH  22  23
ENDBRANCH   1  22
TORSDOF 6
