REMARK  Name = 
REMARK  5 active torsions:
REMARK  status: ('A' for Active; 'I' for Inactive)
REMARK    1  A    between atoms: N_1  and  C_2
REMARK    2  A    between atoms: C_2  and  C_3
REMARK    3  A    between atoms: C_3  and  C_4
REMARK    4  A    between atoms: C_7  and  C_8
REMARK    5  A    between atoms: C_8  and  C_9
REMARK                            x       y       z     vdW  Elec       q    Type
REMARK                         _______ _______ _______ _____ _____    ______ ____
ROOT
ATOM      1  C   UNL     1       4.397  -0.863   1.303  0.00  0.00    +0.000 A 
ATOM      2  C   UNL     1       5.085   0.345   1.475  0.00  0.00    +0.000 A 
ATOM      3  C   UNL     1       6.482   0.367   1.552  0.00  0.00    +0.000 A 
ATOM      4  C   UNL     1       7.221  -0.821   1.454  0.00  0.00    +0.000 A 
ATOM      5  C   UNL     1       6.529  -2.027   1.269  0.00  0.00    +0.000 A 
ATOM      6  C   UNL     1       5.134  -2.048   1.191  0.00  0.00    +0.000 A 
ENDROOT
BRANCH   1   7
ATOM      7  C   UNL     1       2.889  -0.893   1.232  0.00  0.00    +0.000 C 
BRANCH   7   8
ATOM      8  C   UNL     1       2.371  -0.728  -0.201  0.00  0.00    +0.000 C 
BRANCH   8   9
ATOM      9  N   UNL     1       0.908  -0.757  -0.241  0.00  0.00    +0.000 NA
ATOM     10  H   UNL     1       0.597  -0.612  -1.200  0.00  0.00    +0.000 HD
ATOM     11  H   UNL     1       0.535   0.022   0.300  0.00  0.00    +0.000 HD
ENDBRANCH   8   9
ENDBRANCH   7   8
ENDBRANCH   1   7
BRANCH   4  12
ATOM     12  C   UNL     1       8.730  -0.816   1.545  0.00  0.00    +0.000 C 
BRANCH  12  13
ATOM     13  C   UNL     1       9.068  -1.015   2.980  0.00  0.00    +0.000 A 
ATOM     14  C   UNL     1       9.342  -0.039   3.922  0.00  0.00    +0.000 A 
ATOM     15  O   UNL     1       9.600  -0.583   5.142  0.00  0.00    +0.000 OA
ATOM     16  C   UNL     1       9.498  -1.930   4.995  0.00  0.00    +0.000 A 
ATOM     17  C   UNL     1       9.649  -2.887   5.989  0.00  0.00    +0.000 A 
ATOM     18  C   UNL     1       9.479  -4.194   5.552  0.00  0.00    +0.000 A 
ATOM     19  F   UNL     1       9.572  -5.203   6.428  0.00  0.00    +0.000 F 
ATOM     20  C   UNL     1       9.206  -4.460   4.214  0.00  0.00    +0.000 A 
ATOM     21  N   UNL     1       9.064  -3.529   3.235  0.00  0.00    +0.000 NA
ATOM     22  C   UNL     1       9.201  -2.249   3.674  0.00  0.00    +0.000 A 
ENDBRANCH  12  13
ENDBRANCH   4  12
TORSDOF 5
