REMARK  Name = 
REMARK  6 active torsions:
REMARK  status: ('A' for Active; 'I' for Inactive)
REMARK    1  A    between atoms: C_2  and  C_4
REMARK    2  A    between atoms: C_8  and  O_9
REMARK    3  A    between atoms: O_9  and  C_10
REMARK    4  A    between atoms: C_10  and  C_11
REMARK    5  A    between atoms: C_13  and  C_14
REMARK    6  A    between atoms: C_23  and  N_24
REMARK                            x       y       z     vdW  Elec       q    Type
REMARK                         _______ _______ _______ _____ _____    ______ ____
ROOT
ATOM      1  C   UNL     1       1.876   6.368   2.151  0.00  0.00    +0.000 A 
ATOM      2  N   UNL     1       2.189   7.420   1.332  0.00  0.00    +0.000 NA
ATOM      3  C   UNL     1       2.063   8.665   1.855  0.00  0.00    +0.000 A 
ATOM      4  C   UNL     1       1.605   8.822   3.161  0.00  0.00    +0.000 A 
ATOM      5  N   UNL     1       1.281   7.789   3.979  0.00  0.00    +0.000 NA
ATOM      6  C   UNL     1       1.436   6.555   3.468  0.00  0.00    +0.000 A 
ENDROOT
BRANCH   3   7
ATOM      7  C   UNL     1       2.490   9.796   1.010  0.00  0.00    +0.000 A 
ATOM      8  C   UNL     1       1.906  11.073   1.121  0.00  0.00    +0.000 A 
ATOM      9  C   UNL     1       2.378  12.160   0.377  0.00  0.00    +0.000 A 
ATOM     10  C   UNL     1       3.440  11.990  -0.505  0.00  0.00    +0.000 A 
ATOM     11  C   UNL     1       4.011  10.730  -0.657  0.00  0.00    +0.000 A 
ATOM     12 CL   UNL     1       5.321  10.517  -1.752  0.00  0.00    +0.000 Cl
ATOM     13  C   UNL     1       3.541   9.643   0.084  0.00  0.00    +0.000 A 
ENDBRANCH   3   7
BRANCH   6  14
ATOM     14  N   UNL     1       1.180   5.523   4.362  0.00  0.00    +0.000 N 
ATOM     15  H   UNL     1       0.853   5.951   5.226  0.00  0.00    +0.000 HD
ATOM     16  H   UNL     1       0.534   4.824   4.022  0.00  0.00    +0.000 HD
ENDBRANCH   6  14
BRANCH   1  17
ATOM     17  C   UNL     1       2.035   4.988   1.566  0.00  0.00    +0.000 C 
BRANCH  17  18
ATOM     18  O   UNL     1       3.350   4.492   1.821  0.00  0.00    +0.000 OA
BRANCH  18  23
ATOM     19  C   UNL     1       3.171   1.091   0.360  0.00  0.00    +0.000 A 
ATOM     20  C   UNL     1       4.466   0.707   0.677  0.00  0.00    +0.000 A 
ATOM     21  N   UNL     1       5.354   1.520   1.297  0.00  0.00    +0.000 NA
ATOM     22  C   UNL     1       4.911   2.756   1.634  0.00  0.00    +0.000 A 
ATOM     23  C   UNL     1       3.626   3.227   1.383  0.00  0.00    +0.000 A 
ATOM     24  C   UNL     1       2.742   2.371   0.728  0.00  0.00    +0.000 A 
BRANCH  19  26
ATOM     25  N   UNL     1       1.284   0.635  -1.100  0.00  0.00    +0.000 N 
ATOM     26  C   UNL     1       2.284   0.125  -0.320  0.00  0.00    +0.000 C 
ATOM     27  O   UNL     1       2.451  -1.082  -0.214  0.00  0.00    +0.000 OA
ATOM     28  H   UNL     1       0.766  -0.041  -1.651  0.00  0.00    +0.000 HD
ATOM     29  H   UNL     1       1.292   1.587  -1.439  0.00  0.00    +0.000 HD
ENDBRANCH  19  26
ENDBRANCH  18  23
ENDBRANCH  17  18
ENDBRANCH   1  17
TORSDOF 6
