REMARK  Name = 
REMARK  8 active torsions:
REMARK  status: ('A' for Active; 'I' for Inactive)
REMARK    1  A    between atoms: C_1  and  C_2
REMARK    2  A    between atoms: C_2  and  C_3
REMARK    3  A    between atoms: C_2  and  C_4
REMARK    4  A    between atoms: C_2  and  C_19
REMARK    5  A    between atoms: C_5  and  C_6
REMARK    6  A    between atoms: C_11  and  C_12
REMARK    7  A    between atoms: C_22  and  S_23
REMARK    8  A    between atoms: S_23  and  N_24
REMARK                            x       y       z     vdW  Elec       q    Type
REMARK                         _______ _______ _______ _____ _____    ______ ____
ROOT
ATOM      1  C   UNL     1       0.952  -0.115   0.171  0.00  0.00    +0.000 C 
ATOM      2  C   UNL     1       2.497  -0.083   0.126  0.00  0.00    +0.000 C 
ATOM      3  C   UNL     1       2.994  -1.465   0.613  0.00  0.00    +0.000 C 
ENDROOT
BRANCH   2   4
ATOM      4  C   UNL     1       2.986   1.085   1.007  0.00  0.00    +0.000 A 
ATOM      5  C   UNL     1       3.751   0.886   2.171  0.00  0.00    +0.000 A 
ATOM      6  C   UNL     1       4.216   1.965   2.925  0.00  0.00    +0.000 A 
ATOM      7  C   UNL     1       3.924   3.264   2.518  0.00  0.00    +0.000 A 
ATOM      8  C   UNL     1       3.132   3.498   1.396  0.00  0.00    +0.000 A 
ATOM      9  C   UNL     1       2.673   2.413   0.645  0.00  0.00    +0.000 A 
BRANCH   7  10
ATOM     10  S   UNL     1       4.615   4.628   3.398  0.00  0.00    +0.000 S 
ATOM     11  O   UNL     1       3.800   5.800   3.191  0.00  0.00    +0.000 OA
ATOM     12  O   UNL     1       5.034   4.192   4.713  0.00  0.00    +0.000 OA
BRANCH  10  13
ATOM     13  N   UNL     1       6.024   4.876   2.521  0.00  0.00    +0.000 NA
ATOM     14  H   UNL     1       6.007   5.791   2.072  0.00  0.00    +0.000 HD
ATOM     15  H   UNL     1       6.842   4.697   3.101  0.00  0.00    +0.000 HD
ENDBRANCH  10  13
ENDBRANCH   7  10
ENDBRANCH   2   4
BRANCH   2  16
ATOM     16  C   UNL     1       3.060   0.082  -1.289  0.00  0.00    +0.000 C 
ATOM     17  C   UNL     1       2.356   0.191  -2.428  0.00  0.00    +0.000 C 
BRANCH  17  18
ATOM     18  C   UNL     1       2.950   0.341  -3.763  0.00  0.00    +0.000 A 
ATOM     19  C   UNL     1       4.138   1.043  -3.976  0.00  0.00    +0.000 A 
ATOM     20  C   UNL     1       4.634   1.195  -5.267  0.00  0.00    +0.000 A 
ATOM     21  C   UNL     1       3.934   0.663  -6.349  0.00  0.00    +0.000 A 
ATOM     22  F   UNL     1       4.449   0.871  -7.571  0.00  0.00    +0.000 F 
ATOM     23  C   UNL     1       2.731  -0.045  -6.189  0.00  0.00    +0.000 A 
ATOM     24  C   UNL     1       2.259  -0.189  -4.868  0.00  0.00    +0.000 A 
BRANCH  23  25
ATOM     25  C   UNL     1       1.988  -0.618  -7.336  0.00  0.00    +0.000 A 
ATOM     26  C   UNL     1       0.589  -0.733  -7.345  0.00  0.00    +0.000 A 
ATOM     27  C   UNL     1      -0.079  -1.288  -8.437  0.00  0.00    +0.000 A 
ATOM     28  C   UNL     1       0.671  -1.714  -9.517  0.00  0.00    +0.000 A 
ATOM     29  N   UNL     1       2.013  -1.631  -9.566  0.00  0.00    +0.000 NA
ATOM     30  C   UNL     1       2.631  -1.093  -8.484  0.00  0.00    +0.000 A 
ENDBRANCH  23  25
ENDBRANCH  17  18
ENDBRANCH   2  16
TORSDOF 6
