REMARK  Name = 
REMARK  9 active torsions:
REMARK  status: ('A' for Active; 'I' for Inactive)
REMARK    1  A    between atoms: C_1  and  O_2
REMARK    2  A    between atoms: O_2  and  C_3
REMARK    3  A    between atoms: C_6  and  C_7
REMARK    4  A    between atoms: C_11  and  O_12
REMARK    5  A    between atoms: O_12  and  C_13
REMARK    6  A    between atoms: C_13  and  C_14
REMARK    7  A    between atoms: C_18  and  C_19
REMARK    8  A    between atoms: C_23  and  C_24
REMARK    9  A    between atoms: C_28  and  C_29
REMARK                            x       y       z     vdW  Elec       q    Type
REMARK                         _______ _______ _______ _____ _____    ______ ____
ROOT
ATOM      1  C   UNL     1       3.970   0.083   3.653  0.00  0.00    +0.000 A 
ATOM      2  N   UNL     1       3.988   1.369   4.092  0.00  0.00    +0.000 NA
ATOM      3  C   UNL     1       4.335   1.593   5.365  0.00  0.00    +0.000 A 
ATOM      4  C   UNL     1       4.700   0.590   6.240  0.00  0.00    +0.000 A 
ATOM      5  C   UNL     1       4.692  -0.757   5.825  0.00  0.00    +0.000 A 
ATOM      6  C   UNL     1       4.282  -1.019   4.488  0.00  0.00    +0.000 A 
ATOM      7  C   UNL     1       4.154  -2.414   3.922  0.00  0.00    +0.000 C 
ENDROOT
BRANCH   5   8
ATOM      8  C   UNL     1       5.094  -1.793   6.818  0.00  0.00    +0.000 A 
ATOM      9  C   UNL     1       4.746  -1.695   8.172  0.00  0.00    +0.000 A 
ATOM     10  N   UNL     1       5.076  -2.586   9.140  0.00  0.00    +0.000 NA
ATOM     11  C   UNL     1       5.767  -3.680   8.747  0.00  0.00    +0.000 A 
ATOM     12  C   UNL     1       6.165  -3.906   7.441  0.00  0.00    +0.000 A 
ATOM     13  C   UNL     1       5.860  -2.921   6.489  0.00  0.00    +0.000 A 
BRANCH  12  14
ATOM     14  C   UNL     1       6.842  -5.146   6.990  0.00  0.00    +0.000 C 
ATOM     15  N   UNL     1       7.177  -6.098   7.911  0.00  0.00    +0.000 N 
ATOM     16  O   UNL     1       7.082  -5.337   5.803  0.00  0.00    +0.000 OA
ATOM     17  H   UNL     1       7.024  -6.048   8.906  0.00  0.00    +0.000 HD
ATOM     18  H   UNL     1       7.616  -6.937   7.550  0.00  0.00    +0.000 HD
ENDBRANCH  12  14
ENDBRANCH   5   8
BRANCH   1  19
ATOM     19  C   UNL     1       3.531  -0.070   2.206  0.00  0.00    +0.000 C 
BRANCH  19  20
ATOM     20  O   UNL     1       4.641  -0.033   1.307  0.00  0.00    +0.000 OA
BRANCH  20  26
ATOM     21  C   UNL     1       3.125  -0.355  -0.660  0.00  0.00    +0.000 A 
ATOM     22  C   UNL     1       3.064  -0.465  -2.054  0.00  0.00    +0.000 A 
ATOM     23  C   UNL     1       4.217  -0.364  -2.831  0.00  0.00    +0.000 A 
ATOM     24  C   UNL     1       5.461  -0.137  -2.236  0.00  0.00    +0.000 A 
ATOM     25  C   UNL     1       5.531  -0.027  -0.841  0.00  0.00    +0.000 A 
ATOM     26  C   UNL     1       4.373  -0.137  -0.043  0.00  0.00    +0.000 A 
BRANCH  24  27
ATOM     27  C   UNL     1       6.639  -0.030  -3.149  0.00  0.00    +0.000 C 
ATOM     28  N   UNL     1       7.869   0.218  -2.610  0.00  0.00    +0.000 N 
ATOM     29  O   UNL     1       6.521  -0.158  -4.362  0.00  0.00    +0.000 OA
ATOM     30  H   UNL     1       8.055   0.361  -1.629  0.00  0.00    +0.000 HD
ATOM     31  H   UNL     1       8.638   0.298  -3.257  0.00  0.00    +0.000 HD
ENDBRANCH  24  27
BRANCH  21  33
ATOM     32  C   UNL     1       0.870  -1.099  -0.402  0.00  0.00    +0.000 C 
ATOM     33  O   UNL     1       1.998  -0.403   0.114  0.00  0.00    +0.000 OA
ENDBRANCH  21  33
ENDBRANCH  20  26
ENDBRANCH  19  20
ENDBRANCH   1  19
TORSDOF 7
