REMARK  Name = 
REMARK  5 active torsions:
REMARK  status: ('A' for Active; 'I' for Inactive)
REMARK    1  A    between atoms: N_1  and  C_2
REMARK    2  A    between atoms: C_2  and  C_3
REMARK    3  A    between atoms: C_5  and  C_6
REMARK    4  A    between atoms: C_6  and  N_7
REMARK    5  A    between atoms: C_14  and  C_15
REMARK                            x       y       z     vdW  Elec       q    Type
REMARK                         _______ _______ _______ _____ _____    ______ ____
ROOT
ATOM      1  N   UNL     1       1.971   4.359   2.791  0.00  0.00    +0.000 N 
ATOM      2  C   UNL     1       1.978   5.728   2.900  0.00  0.00    +0.000 A 
ATOM      3  C   UNL     1       0.681   6.149   3.087  0.00  0.00    +0.000 A 
ATOM      4  C   UNL     1      -0.149   4.996   3.105  0.00  0.00    +0.000 A 
ATOM      5  C   UNL     1      -1.538   4.802   3.214  0.00  0.00    +0.000 A 
ATOM      6  C   UNL     1      -2.056   3.504   3.168  0.00  0.00    +0.000 A 
ATOM      7  F   UNL     1      -3.392   3.367   3.218  0.00  0.00    +0.000 F 
ATOM      8  C   UNL     1      -1.225   2.393   3.067  0.00  0.00    +0.000 A 
ATOM      9  C   UNL     1       0.169   2.574   3.021  0.00  0.00    +0.000 A 
ATOM     10  C   UNL     1       0.686   3.882   2.985  0.00  0.00    +0.000 A 
ENDROOT
BRANCH   8  11
ATOM     11  C   UNL     1      -1.742   1.002   2.953  0.00  0.00    +0.000 C 
ATOM     12  N   UNL     1      -3.092   0.808   2.989  0.00  0.00    +0.000 N 
ATOM     13  O   UNL     1      -0.983   0.051   2.805  0.00  0.00    +0.000 OA
ATOM     14  H   UNL     1      -3.757   1.567   3.078  0.00  0.00    +0.000 HD
ATOM     15  H   UNL     1      -3.444  -0.133   2.874  0.00  0.00    +0.000 HD
ENDBRANCH   8  11
BRANCH   1  16
ATOM     16  C   UNL     1       3.153   3.565   2.481  0.00  0.00    +0.000 C 
BRANCH  16  19
ATOM     17  C   UNL     1       2.600   1.214   0.604  0.00  0.00    +0.000 C 
ATOM     18  C   UNL     1       2.325   2.658   0.214  0.00  0.00    +0.000 C 
ATOM     19  C   UNL     1       3.418   3.395   0.969  0.00  0.00    +0.000 C 
ATOM     20  C   UNL     1       4.582   2.437   0.731  0.00  0.00    +0.000 C 
ATOM     21  O   UNL     1       4.038   1.104   0.689  0.00  0.00    +0.000 OA
BRANCH  17  22
ATOM     22  C   UNL     1       1.981   0.157  -0.315  0.00  0.00    +0.000 C 
BRANCH  22  23
ATOM     23  N   UNL     1       2.500   0.215  -1.684  0.00  0.00    +0.000 NA
ATOM     24  H   UNL     1       2.128  -0.576  -2.208  0.00  0.00    +0.000 HD
ATOM     25  H   UNL     1       3.510   0.074  -1.631  0.00  0.00    +0.000 HD
ENDBRANCH  22  23
ENDBRANCH  17  22
ENDBRANCH  16  19
ENDBRANCH   1  16
TORSDOF 5
