REMARK  Name = 
REMARK  7 active torsions:
REMARK  status: ('A' for Active; 'I' for Inactive)
REMARK    1  A    between atoms: C_1  and  C_2
REMARK    2  A    between atoms: C_2  and  C_3
REMARK    3  A    between atoms: C_6  and  O_7
REMARK    4  A    between atoms: O_7  and  C_8
REMARK    5  A    between atoms: C_15  and  C_16
REMARK    6  A    between atoms: C_15  and  C_17
REMARK    7  A    between atoms: C_21  and  C_22
REMARK                            x       y       z     vdW  Elec       q    Type
REMARK                         _______ _______ _______ _____ _____    ______ ____
ROOT
ATOM      1  C   UNL     1       0.813  -0.104  -0.159  0.00  0.00    +0.000 C 
ATOM      2  C   UNL     1       2.315  -0.160   0.033  0.00  0.00    +0.000 C 
ATOM      3  C   UNL     1       3.164   0.601  -0.965  0.00  0.00    +0.000 C 
ATOM      4  C   UNL     1       3.191  -0.909  -1.020  0.00  0.00    +0.000 C 
ATOM      5  C   UNL     1       4.509  -1.553  -0.614  0.00  0.00    +0.000 C 
ENDROOT
BRANCH   2   6
ATOM      6  C   UNL     1       2.755  -0.161   1.490  0.00  0.00    +0.000 A 
ATOM      7  C   UNL     1       2.777  -1.327   2.252  0.00  0.00    +0.000 A 
ATOM      8  C   UNL     1       3.305  -1.327   3.544  0.00  0.00    +0.000 A 
ATOM      9  C   UNL     1       3.837  -0.153   4.060  0.00  0.00    +0.000 A 
ATOM     10  N   UNL     1       3.720   1.019   3.400  0.00  0.00    +0.000 NA
ATOM     11  C   UNL     1       3.180   0.986   2.156  0.00  0.00    +0.000 A 
BRANCH   9  12
ATOM     12  O   UNL     1       4.433  -0.029   5.263  0.00  0.00    +0.000 OA
BRANCH  12  13
ATOM     13  C   UNL     1       5.285  -1.079   5.677  0.00  0.00    +0.000 C 
ATOM     14  F   UNL     1       5.390  -2.110   4.810  0.00  0.00    +0.000 F 
ATOM     15  F   UNL     1       6.530  -0.594   5.885  0.00  0.00    +0.000 F 
ATOM     16  F   UNL     1       4.826  -1.566   6.853  0.00  0.00    +0.000 F 
ENDBRANCH  12  13
ENDBRANCH   9  12
ENDBRANCH   2   6
BRANCH   4  17
ATOM     17  C   UNL     1       2.477  -1.669  -2.143  0.00  0.00    +0.000 A 
ATOM     18  C   UNL     1       2.320  -1.155  -3.439  0.00  0.00    +0.000 A 
ATOM     19  C   UNL     1       1.686  -1.916  -4.414  0.00  0.00    +0.000 A 
ATOM     20  N   UNL     1       1.219  -3.165  -4.216  0.00  0.00    +0.000 NA
ATOM     21  C   UNL     1       1.389  -3.666  -2.963  0.00  0.00    +0.000 A 
ATOM     22  C   UNL     1       1.982  -2.962  -1.921  0.00  0.00    +0.000 A 
BRANCH  21  23
ATOM     23  C   UNL     1       0.943  -5.075  -2.727  0.00  0.00    +0.000 C 
ATOM     24  N   UNL     1       0.414  -5.725  -3.813  0.00  0.00    +0.000 N 
ATOM     25  O   UNL     1       1.056  -5.632  -1.643  0.00  0.00    +0.000 OA
ATOM     26  H   UNL     1       0.371  -5.253  -4.710  0.00  0.00    +0.000 HD
ATOM     27  H   UNL     1       0.151  -6.694  -3.728  0.00  0.00    +0.000 HD
ENDBRANCH  21  23
ENDBRANCH   4  17
TORSDOF 5
