REMARK  Name = 
REMARK  9 active torsions:
REMARK  status: ('A' for Active; 'I' for Inactive)
REMARK    1  A    between atoms: C_1  and  C_2
REMARK    2  A    between atoms: C_2  and  C_3
REMARK    3  A    between atoms: C_3  and  N_4
REMARK    4  A    between atoms: C_10  and  C_11
REMARK    5  A    between atoms: N_13  and  C_14
REMARK    6  A    between atoms: C_14  and  C_15
REMARK    7  A    between atoms: C_18  and  C_19
REMARK    8  A    between atoms: C_19  and  N_20
REMARK    9  A    between atoms: C_21  and  C_23
REMARK                            x       y       z     vdW  Elec       q    Type
REMARK                         _______ _______ _______ _____ _____    ______ ____
ROOT
ATOM      1  C   UNL     1       8.076  -7.061  -0.977  0.00  0.00    +0.000 C 
ENDROOT
BRANCH   1   2
ATOM      2  C   UNL     1       9.406  -7.767  -0.863  0.00  0.00    +0.000 A 
ATOM      3  C   UNL     1       9.949  -8.064   0.395  0.00  0.00    +0.000 A 
ATOM      4  C   UNL     1      11.183  -8.718   0.509  0.00  0.00    +0.000 A 
ATOM      5  C   UNL     1      11.914  -9.066  -0.635  0.00  0.00    +0.000 A 
ATOM      6  C   UNL     1      11.374  -8.764  -1.892  0.00  0.00    +0.000 A 
ATOM      7  C   UNL     1      10.139  -8.113  -2.005  0.00  0.00    +0.000 A 
BRANCH   5   8
ATOM      8  C   UNL     1      13.241  -9.774  -0.522  0.00  0.00    +0.000 C 
BRANCH   8   9
ATOM      9  N   UNL     1      13.076 -11.205  -0.500  0.00  0.00    +0.000 N 
ATOM     10  C   UNL     1      14.158 -12.060  -0.466  0.00  0.00    +0.000 C 
ATOM     11  O   UNL     1      15.316 -11.652  -0.478  0.00  0.00    +0.000 OA
ATOM     12  H   UNL     1      12.142 -11.581  -0.441  0.00  0.00    +0.000 HD
BRANCH  10  13
ATOM     13  C   UNL     1      13.828 -13.467  -0.409  0.00  0.00    +0.000 A 
ATOM     14  C   UNL     1      12.614 -14.139  -0.409  0.00  0.00    +0.000 A 
ATOM     15  C   UNL     1      12.875 -15.527  -0.319  0.00  0.00    +0.000 A 
ATOM     16  C   UNL     1      14.239 -15.684  -0.276  0.00  0.00    +0.000 A 
ATOM     17  N   UNL     1      14.807 -14.440  -0.341  0.00  0.00    +0.000 N 
ATOM     18  H   UNL     1      15.800 -14.239  -0.335  0.00  0.00    +0.000 HD
ENDBRANCH  10  13
ENDBRANCH   8   9
ENDBRANCH   5   8
ENDBRANCH   1   2
BRANCH   1  21
ATOM     19  C   UNL     1       7.159  -4.788  -1.085  0.00  0.00    +0.000 C 
ATOM     20  O   UNL     1       6.012  -5.202  -1.231  0.00  0.00    +0.000 OA
ATOM     21  N   UNL     1       8.244  -5.630  -1.041  0.00  0.00    +0.000 N 
ATOM     22  H   UNL     1       9.117  -5.269  -0.674  0.00  0.00    +0.000 HD
BRANCH  19  29
ATOM     23  N   UNL     1      10.566  -2.241   0.866  0.00  0.00    +0.000 N 
ATOM     24  C   UNL     1      10.365  -0.893   0.630  0.00  0.00    +0.000 A 
ATOM     25  N   UNL     1       9.371  -0.383  -0.023  0.00  0.00    +0.000 NA
ATOM     26  C   UNL     1       8.488  -1.293  -0.503  0.00  0.00    +0.000 A 
ATOM     27  S   UNL     1       7.129  -0.810  -1.408  0.00  0.00    +0.000 S 
ATOM     28  C   UNL     1       6.599  -2.424  -1.580  0.00  0.00    +0.000 A 
ATOM     29  C   UNL     1       7.450  -3.351  -0.994  0.00  0.00    +0.000 A 
ATOM     30  C   UNL     1       8.542  -2.662  -0.342  0.00  0.00    +0.000 A 
ATOM     31  C   UNL     1       9.640  -3.189   0.443  0.00  0.00    +0.000 A 
ATOM     32  O   UNL     1       9.743  -4.385   0.702  0.00  0.00    +0.000 OA
BRANCH  23  33
ATOM     33  C   UNL     1      11.738  -2.692   1.607  0.00  0.00    +0.000 C 
BRANCH  33  35
ATOM     34  C   UNL     1      13.295  -2.751  -0.412  0.00  0.00    +0.000 C 
ATOM     35  C   UNL     1      12.714  -3.523   0.763  0.00  0.00    +0.000 C 
ENDBRANCH  33  35
ENDBRANCH  23  33
ENDBRANCH  19  29
ENDBRANCH   1  21
TORSDOF 8
