REMARK  Name = 
REMARK  9 active torsions:
REMARK  status: ('A' for Active; 'I' for Inactive)
REMARK    1  A    between atoms: N_1  and  C_2
REMARK    2  A    between atoms: C_2  and  C_3
REMARK    3  A    between atoms: C_2  and  C_24
REMARK    4  A    between atoms: C_3  and  C_4
REMARK    5  A    between atoms: C_7  and  C_8
REMARK    6  A    between atoms: C_8  and  N_9
REMARK    7  A    between atoms: C_10  and  C_12
REMARK    8  A    between atoms: N_26  and  C_27
REMARK    9  A    between atoms: C_27  and  C_28
REMARK                            x       y       z     vdW  Elec       q    Type
REMARK                         _______ _______ _______ _____ _____    ______ ____
ROOT
ATOM      1  C   UNL     1       2.597  -2.501   0.585  0.00  0.00    +0.000 A 
ATOM      2  C   UNL     1       2.704  -3.833   0.165  0.00  0.00    +0.000 A 
ATOM      3  C   UNL     1       2.438  -4.889   1.044  0.00  0.00    +0.000 A 
ATOM      4  C   UNL     1       2.051  -4.635   2.366  0.00  0.00    +0.000 A 
ATOM      5  C   UNL     1       1.962  -3.302   2.792  0.00  0.00    +0.000 A 
ATOM      6  C   UNL     1       2.221  -2.246   1.910  0.00  0.00    +0.000 A 
ENDROOT
BRANCH   1   7
ATOM      7  C   UNL     1       2.941  -1.374  -0.366  0.00  0.00    +0.000 C 
BRANCH   7   8
ATOM      8  C   UNL     1       1.784  -0.825  -1.234  0.00  0.00    +0.000 C 
BRANCH   8   9
ATOM      9  C   UNL     1       2.313   0.344  -2.104  0.00  0.00    +0.000 C 
ATOM     10  O   UNL     1       3.495   0.681  -2.128  0.00  0.00    +0.000 OA
ATOM     11  N   UNL     1       1.346   0.985  -2.844  0.00  0.00    +0.000 N 
ATOM     12  H   UNL     1       0.477   0.484  -3.007  0.00  0.00    +0.000 HD
BRANCH  11  13
ATOM     13  C   UNL     1       1.694   2.062  -3.742  0.00  0.00    +0.000 C 
BRANCH  13  14
ATOM     14  C   UNL     1       0.542   2.984  -3.880  0.00  0.00    +0.000 A 
ATOM     15  C   UNL     1       0.360   4.317  -3.568  0.00  0.00    +0.000 A 
ATOM     16  C   UNL     1      -0.964   4.640  -3.949  0.00  0.00    +0.000 A 
ATOM     17  C   UNL     1      -1.504   3.489  -4.471  0.00  0.00    +0.000 A 
ATOM     18  O   UNL     1      -0.598   2.478  -4.436  0.00  0.00    +0.000 OA
ENDBRANCH  13  14
ENDBRANCH  11  13
ENDBRANCH   8   9
BRANCH   8  19
ATOM     19  N   UNL     1       1.175  -1.836  -2.132  0.00  0.00    +0.000 NA
ATOM     20  H   UNL     1       0.962  -2.666  -1.575  0.00  0.00    +0.000 HD
ATOM     21  H   UNL     1       1.881  -2.138  -2.806  0.00  0.00    +0.000 HD
ENDBRANCH   8  19
ENDBRANCH   7   8
ENDBRANCH   1   7
BRANCH   4  22
ATOM     22  C   UNL     1       1.769  -5.760   3.331  0.00  0.00    +0.000 C 
BRANCH  22  23
ATOM     23  N   UNL     1       2.956  -6.160   4.042  0.00  0.00    +0.000 N 
ATOM     24  C   UNL     1       2.935  -7.187   4.954  0.00  0.00    +0.000 C 
ATOM     25  O   UNL     1       1.918  -7.828   5.197  0.00  0.00    +0.000 OA
ATOM     26  H   UNL     1       3.720  -5.493   4.069  0.00  0.00    +0.000 HD
BRANCH  24  27
ATOM     27  C   UNL     1       4.225  -7.522   5.574  0.00  0.00    +0.000 A 
ATOM     28  C   UNL     1       4.451  -8.808   6.046  0.00  0.00    +0.000 A 
ATOM     29  S   UNL     1       6.020  -9.035   6.679  0.00  0.00    +0.000 S 
ATOM     30  C   UNL     1       6.429  -7.406   6.396  0.00  0.00    +0.000 A 
ATOM     31  N   UNL     1       7.652  -6.921   6.745  0.00  0.00    +0.000 NA
ATOM     32  C   UNL     1       7.816  -5.664   6.496  0.00  0.00    +0.000 A 
ATOM     33  N   UNL     1       6.871  -4.849   5.927  0.00  0.00    +0.000 N 
ATOM     34  C   UNL     1       5.638  -5.304   5.529  0.00  0.00    +0.000 A 
ATOM     35  O   UNL     1       4.834  -4.562   4.971  0.00  0.00    +0.000 OA
ATOM     36  C   UNL     1       5.397  -6.710   5.803  0.00  0.00    +0.000 A 
ATOM     37  H   UNL     1       7.065  -3.876   5.746  0.00  0.00    +0.000 HD
ENDBRANCH  24  27
ENDBRANCH  22  23
ENDBRANCH   4  22
TORSDOF 9
