REMARK  Name = 
REMARK  6 active torsions:
REMARK  status: ('A' for Active; 'I' for Inactive)
REMARK    1  A    between atoms: N_1  and  C_2
REMARK    2  A    between atoms: C_2  and  C_18
REMARK    3  A    between atoms: C_3  and  C_4
REMARK    4  A    between atoms: C_7  and  C_8
REMARK    5  A    between atoms: C_8  and  N_9
REMARK    6  A    between atoms: N_9  and  C_10
REMARK                            x       y       z     vdW  Elec       q    Type
REMARK                         _______ _______ _______ _____ _____    ______ ____
ROOT
ATOM      1  C   UNL     1       3.474   0.182  -1.300  0.00  0.00    +0.000 C 
ATOM      2  C   UNL     1       2.947   1.030  -0.394  0.00  0.00    +0.000 C 
ENDROOT
BRANCH   1   3
ATOM      3  C   UNL     1       4.041  -1.069  -0.871  0.00  0.00    +0.000 A 
ATOM      4  C   UNL     1       3.273  -2.209  -0.740  0.00  0.00    +0.000 A 
ATOM      5  S   UNL     1       4.202  -3.557  -0.242  0.00  0.00    +0.000 S 
ATOM      6  C   UNL     1       5.637  -2.634  -0.214  0.00  0.00    +0.000 A 
ATOM      7  N   UNL     1       6.831  -3.194   0.127  0.00  0.00    +0.000 NA
ATOM      8  C   UNL     1       7.826  -2.371   0.094  0.00  0.00    +0.000 A 
ATOM      9  N   UNL     1       7.745  -1.046  -0.250  0.00  0.00    +0.000 N 
ATOM     10  C   UNL     1       6.564  -0.438  -0.614  0.00  0.00    +0.000 A 
ATOM     11  O   UNL     1       6.531   0.745  -0.937  0.00  0.00    +0.000 OA
ATOM     12  C   UNL     1       5.415  -1.320  -0.579  0.00  0.00    +0.000 A 
ATOM     13  H   UNL     1       8.565  -0.459  -0.263  0.00  0.00    +0.000 HD
ENDBRANCH   1   3
BRANCH   2  14
ATOM     14  C   UNL     1       2.300   2.316  -0.691  0.00  0.00    +0.000 A 
ATOM     15  C   UNL     1       1.348   2.841   0.172  0.00  0.00    +0.000 A 
ATOM     16  N   UNL     1       0.693   3.998  -0.072  0.00  0.00    +0.000 NA
ATOM     17  C   UNL     1       1.018   4.649  -1.223  0.00  0.00    +0.000 A 
ATOM     18  C   UNL     1       1.981   4.128  -2.079  0.00  0.00    +0.000 A 
ATOM     19  N   UNL     1       2.639   2.965  -1.837  0.00  0.00    +0.000 NA
BRANCH  17  20
ATOM     20  C   UNL     1       0.289   5.940  -1.567  0.00  0.00    +0.000 C 
BRANCH  20  21
ATOM     21  N   UNL     1      -0.187   6.605  -0.361  0.00  0.00    +0.000 NA
ATOM     22  H   UNL     1       0.557   6.656   0.331  0.00  0.00    +0.000 HD
BRANCH  21  23
ATOM     23  C   UNL     1      -0.963   7.828  -0.496  0.00  0.00    +0.000 C 
ATOM     24  C   UNL     1      -0.269   9.010  -1.194  0.00  0.00    +0.000 C 
ATOM     25  C   UNL     1       0.810   9.673  -0.340  0.00  0.00    +0.000 C 
ATOM     26  N   UNL     1       0.320  10.053   0.987  0.00  0.00    +0.000 NA
ATOM     27  C   UNL     1      -0.215   8.888   1.694  0.00  0.00    +0.000 C 
ATOM     28  C   UNL     1      -1.377   8.258   0.923  0.00  0.00    +0.000 C 
ATOM     29  H   UNL     1      -0.423  10.746   0.886  0.00  0.00    +0.000 HD
ENDBRANCH  21  23
ENDBRANCH  20  21
ENDBRANCH  17  20
ENDBRANCH   2  14
BRANCH   1  30
ATOM     30  N   UNL     1       3.473   0.422  -2.663  0.00  0.00    +0.000 N 
ATOM     31  H   UNL     1       3.345   1.427  -2.835  0.00  0.00    +0.000 HD
ATOM     32  H   UNL     1       4.321   0.085  -3.110  0.00  0.00    +0.000 HD
ENDBRANCH   1  30
TORSDOF 6
