REMARK  Name = 
REMARK  6 active torsions:
REMARK  status: ('A' for Active; 'I' for Inactive)
REMARK    1  A    between atoms: C_2  and  C_19
REMARK    2  A    between atoms: N_3  and  C_4
REMARK    3  A    between atoms: C_4  and  C_5
REMARK    4  A    between atoms: N_9  and  C_10
REMARK    5  A    between atoms: C_10  and  C_11
REMARK    6  A    between atoms: C_14  and  O_15
REMARK                            x       y       z     vdW  Elec       q    Type
REMARK                         _______ _______ _______ _____ _____    ______ ____
ROOT
ATOM      1  C   UNL     1       2.071  -2.098  -1.324  0.00  0.00    +0.000 C 
ENDROOT
BRANCH   1   2
ATOM      2  C   UNL     1       3.286  -2.968  -1.690  0.00  0.00    +0.000 C 
ATOM      3  C   UNL     1       3.734  -3.902  -0.555  0.00  0.00    +0.000 C 
ATOM      4  C   UNL     1       4.295  -3.113   0.624  0.00  0.00    +0.000 C 
ATOM      5  C   UNL     1       5.370  -2.114   0.181  0.00  0.00    +0.000 C 
ATOM      6  N   UNL     1       4.946  -1.275  -0.949  0.00  0.00    +0.000 NA
ATOM      7  C   UNL     1       4.473  -2.074  -2.087  0.00  0.00    +0.000 C 
BRANCH   6   8
ATOM      8  C   UNL     1       5.951  -0.263  -1.330  0.00  0.00    +0.000 C 
BRANCH   8   9
ATOM      9  C   UNL     1       7.300  -0.798  -1.768  0.00  0.00    +0.000 A 
ATOM     10  C   UNL     1       7.521  -1.197  -3.096  0.00  0.00    +0.000 A 
ATOM     11  C   UNL     1       8.709  -1.835  -3.458  0.00  0.00    +0.000 A 
ATOM     12  C   UNL     1       9.687  -2.053  -2.494  0.00  0.00    +0.000 A 
ATOM     13  C   UNL     1       9.526  -1.590  -1.195  0.00  0.00    +0.000 A 
ATOM     14  C   UNL     1       8.334  -0.964  -0.832  0.00  0.00    +0.000 A 
BRANCH  12  15
ATOM     15  O   UNL     1      10.821  -2.753  -2.784  0.00  0.00    +0.000 OA
ATOM     16  H   UNL     1      10.652  -3.275  -3.586  0.00  0.00    +0.000 HD
ENDBRANCH  12  15
ENDBRANCH   8   9
ENDBRANCH   6   8
ENDBRANCH   1   2
BRANCH   1  19
ATOM     17  O   UNL     1       0.016  -3.216  -2.935  0.00  0.00    +0.000 OA
ATOM     18  C   UNL     1      -0.032  -3.364  -1.716  0.00  0.00    +0.000 C 
ATOM     19  N   UNL     1       0.938  -2.878  -0.883  0.00  0.00    +0.000 N 
ATOM     20  H   UNL     1       0.842  -2.987   0.121  0.00  0.00    +0.000 HD
BRANCH  18  21
ATOM     21  C   UNL     1      -1.130  -4.097  -1.070  0.00  0.00    +0.000 A 
ATOM     22  C   UNL     1      -1.949  -4.918  -1.832  0.00  0.00    +0.000 A 
ATOM     23  S   UNL     1      -3.178  -5.684  -0.932  0.00  0.00    +0.000 S 
ATOM     24  C   UNL     1      -2.679  -4.921   0.504  0.00  0.00    +0.000 A 
ATOM     25  N   UNL     1      -3.346  -5.125   1.671  0.00  0.00    +0.000 NA
ATOM     26  C   UNL     1      -2.873  -4.475   2.681  0.00  0.00    +0.000 A 
ATOM     27  N   UNL     1      -1.786  -3.643   2.632  0.00  0.00    +0.000 N 
ATOM     28  C   UNL     1      -1.057  -3.438   1.486  0.00  0.00    +0.000 A 
ATOM     29  O   UNL     1      -0.039  -2.751   1.508  0.00  0.00    +0.000 OA
ATOM     30  C   UNL     1      -1.568  -4.119   0.309  0.00  0.00    +0.000 A 
ATOM     31  H   UNL     1      -1.445  -3.186   3.464  0.00  0.00    +0.000 HD
ENDBRANCH  18  21
ENDBRANCH   1  19
TORSDOF 6
