REMARK  Name = 
REMARK  10 active torsions:
REMARK  status: ('A' for Active; 'I' for Inactive)
REMARK    1  A    between atoms: C_1  and  O_2
REMARK    2  A    between atoms: O_2  and  C_3
REMARK    3  A    between atoms: C_10  and  C_11
REMARK    4  A    between atoms: N_13  and  C_14
REMARK    5  A    between atoms: C_14  and  C_15
REMARK    6  A    between atoms: C_18  and  C_19
REMARK    7  A    between atoms: C_19  and  N_20
REMARK    8  A    between atoms: N_20  and  C_21
REMARK    9  A    between atoms: C_21  and  C_22
REMARK   10  A    between atoms: C_21  and  C_23
REMARK                            x       y       z     vdW  Elec       q    Type
REMARK                         _______ _______ _______ _____ _____    ______ ____
ROOT
ATOM      1  C   UNL     1       1.795   2.141   2.579  0.00  0.00    +0.000 A 
ATOM      2  C   UNL     1       0.516   1.677   2.241  0.00  0.00    +0.000 A 
ATOM      3  C   UNL     1      -0.455   2.550   1.727  0.00  0.00    +0.000 A 
ATOM      4  C   UNL     1      -0.187   3.920   1.576  0.00  0.00    +0.000 A 
ATOM      5  C   UNL     1       1.081   4.383   1.951  0.00  0.00    +0.000 A 
ATOM      6  C   UNL     1       2.063   3.506   2.430  0.00  0.00    +0.000 A 
ENDROOT
BRANCH   1   7
ATOM      7  C   UNL     1       2.865   1.183   3.045  0.00  0.00    +0.000 C 
BRANCH   7  10
ATOM      8  C   UNL     1       4.657  -0.245   2.137  0.00  0.00    +0.000 C 
ATOM      9  O   UNL     1       4.963  -0.633   3.273  0.00  0.00    +0.000 OA
ATOM     10  N   UNL     1       3.635   0.645   1.945  0.00  0.00    +0.000 N 
ATOM     11  H   UNL     1       3.478   1.041   1.027  0.00  0.00    +0.000 HD
BRANCH   8  19
ATOM     12  C   UNL     1       4.306   0.322  -1.231  0.00  0.00    +0.000 A 
ATOM     13  N   UNL     1       4.390   0.371  -2.573  0.00  0.00    +0.000 NA
ATOM     14  C   UNL     1       5.326  -0.354  -3.177  0.00  0.00    +0.000 A 
ATOM     15  N   UNL     1       6.216  -1.146  -2.593  0.00  0.00    +0.000 NA
ATOM     16  C   UNL     1       6.107  -1.160  -1.250  0.00  0.00    +0.000 A 
ATOM     17  S   UNL     1       7.165  -2.121  -0.335  0.00  0.00    +0.000 S 
ATOM     18  C   UNL     1       6.433  -1.628   1.118  0.00  0.00    +0.000 A 
ATOM     19  C   UNL     1       5.383  -0.731   0.949  0.00  0.00    +0.000 A 
ATOM     20  C   UNL     1       5.192  -0.458  -0.475  0.00  0.00    +0.000 A 
BRANCH  12  22
ATOM     21  C   UNL     1       2.228   1.282  -1.512  0.00  0.00    +0.000 C 
ATOM     22  O   UNL     1       3.344   1.106  -0.637  0.00  0.00    +0.000 OA
ENDBRANCH  12  22
ENDBRANCH   8  19
ENDBRANCH   7  10
ENDBRANCH   1   7
BRANCH   4  23
ATOM     23  C   UNL     1      -1.184   4.891   0.959  0.00  0.00    +0.000 C 
BRANCH  23  24
ATOM     24  N   UNL     1      -2.430   4.973   1.722  0.00  0.00    +0.000 NA
ATOM     25  H   UNL     1      -2.192   5.287   2.664  0.00  0.00    +0.000 HD
BRANCH  24  26
ATOM     26  C   UNL     1      -3.428   5.920   1.189  0.00  0.00    +0.000 C 
ATOM     27  C   UNL     1      -3.893   5.588  -0.239  0.00  0.00    +0.000 C 
BRANCH  26  28
ATOM     28  C   UNL     1      -4.641   5.957   2.124  0.00  0.00    +0.000 A 
ATOM     29  C   UNL     1      -5.055   7.154   2.739  0.00  0.00    +0.000 A 
ATOM     30  C   UNL     1      -6.194   7.186   3.553  0.00  0.00    +0.000 A 
ATOM     31  C   UNL     1      -6.912   6.017   3.771  0.00  0.00    +0.000 A 
ATOM     32  F   UNL     1      -8.006   6.046   4.544  0.00  0.00    +0.000 F 
ATOM     33  C   UNL     1      -6.508   4.817   3.200  0.00  0.00    +0.000 A 
ATOM     34  C   UNL     1      -5.381   4.787   2.379  0.00  0.00    +0.000 A 
ENDBRANCH  26  28
ENDBRANCH  24  26
ENDBRANCH  23  24
ENDBRANCH   4  23
TORSDOF 8
