REMARK  Name = 
REMARK  10 active torsions:
REMARK  status: ('A' for Active; 'I' for Inactive)
REMARK    1  A    between atoms: C_2  and  C_23
REMARK    2  A    between atoms: N_3  and  C_4
REMARK    3  A    between atoms: C_4  and  C_5
REMARK    4  A    between atoms: C_8  and  C_9
REMARK    5  A    between atoms: C_9  and  CA_10
REMARK    6  A    between atoms: CA_10  and  C_11
REMARK    7  A    between atoms: CA_10  and  N_13
REMARK    8  A    between atoms: C_11  and  O_12
REMARK    9  A    between atoms: N_13  and  C_14
REMARK   10  A    between atoms: C_14  and  C_15
REMARK                            x       y       z     vdW  Elec       q    Type
REMARK                         _______ _______ _______ _____ _____    ______ ____
ROOT
ATOM      1  C   UNL     1       3.158  -3.372   0.956  0.00  0.00    +0.000 A 
ATOM      2  C   UNL     1       4.477  -3.035   1.251  0.00  0.00    +0.000 A 
ATOM      3  C   UNL     1       5.361  -4.040   1.631  0.00  0.00    +0.000 A 
ATOM      4  C   UNL     1       4.907  -5.355   1.747  0.00  0.00    +0.000 A 
ATOM      5  C   UNL     1       3.577  -5.601   1.432  0.00  0.00    +0.000 A 
ATOM      6  N   UNL     1       2.699  -4.646   1.054  0.00  0.00    +0.000 NA
ENDROOT
BRANCH   1   7
ATOM      7  C   UNL     1       2.163  -2.299   0.582  0.00  0.00    +0.000 C 
BRANCH   7  10
ATOM      8  O   UNL     1       0.237  -0.252   0.610  0.00  0.00    +0.000 OA
ATOM      9  C   UNL     1       0.561  -0.778   1.667  0.00  0.00    +0.000 C 
ATOM     10  N   UNL     1       1.435  -1.830   1.736  0.00  0.00    +0.000 N 
ATOM     11  H   UNL     1       1.709  -2.210   2.633  0.00  0.00    +0.000 HD
BRANCH   9  12
ATOM     12  C   UNL     1      -0.003  -0.362   2.950  0.00  0.00    +0.000 A 
ATOM     13  C   UNL     1      -1.278   0.183   3.020  0.00  0.00    +0.000 A 
ATOM     14  S   UNL     1      -1.781   0.521   4.620  0.00  0.00    +0.000 S 
ATOM     15  C   UNL     1      -0.288   0.005   5.259  0.00  0.00    +0.000 A 
ATOM     16  N   UNL     1      -0.049   0.019   6.598  0.00  0.00    +0.000 NA
ATOM     17  C   UNL     1       1.134  -0.383   6.931  0.00  0.00    +0.000 A 
ATOM     18  N   UNL     1       2.104  -0.778   6.047  0.00  0.00    +0.000 N 
ATOM     19  C   UNL     1       1.916  -0.788   4.686  0.00  0.00    +0.000 A 
ATOM     20  O   UNL     1       2.817  -1.116   3.923  0.00  0.00    +0.000 OA
ATOM     21  C   UNL     1       0.584  -0.398   4.266  0.00  0.00    +0.000 A 
ATOM     22  H   UNL     1       3.017  -1.065   6.372  0.00  0.00    +0.000 HD
ENDBRANCH   9  12
ENDBRANCH   7  10
ENDBRANCH   1   7
BRANCH   4  23
ATOM     23  C   UNL     1       5.816  -6.465   2.198  0.00  0.00    +0.000 C 
BRANCH  23  24
ATOM     24  CA  UNL     1       6.427  -6.256   3.609  0.00  0.00    +0.000 C 
BRANCH  24  25
ATOM     25  N   UNL     1       7.336  -7.360   4.009  0.00  0.00    +0.000 NA
ATOM     26  H   UNL     1       6.843  -8.255   3.949  0.00  0.00    +0.000 HD
BRANCH  25  27
ATOM     27  C   UNL     1       8.521  -7.455   3.135  0.00  0.00    +0.000 C 
BRANCH  27  28
ATOM     28  C   UNL     1       9.435  -8.596   3.532  0.00  0.00    +0.000 A 
ATOM     29  C   UNL     1      10.097  -8.571   4.755  0.00  0.00    +0.000 A 
ATOM     30  C   UNL     1      10.915  -9.643   5.096  0.00  0.00    +0.000 A 
ATOM     31  C   UNL     1      11.055 -10.702   4.207  0.00  0.00    +0.000 A 
ATOM     32  C   UNL     1      10.364 -10.650   3.009  0.00  0.00    +0.000 A 
ATOM     33  N   UNL     1       9.554  -9.628   2.655  0.00  0.00    +0.000 NA
ENDBRANCH  27  28
ENDBRANCH  25  27
ENDBRANCH  24  25
BRANCH  24  34
ATOM     34  C   UNL     1       5.303  -6.128   4.672  0.00  0.00    +0.000 C 
BRANCH  34  35
ATOM     35  O   UNL     1       5.840  -5.903   5.975  0.00  0.00    +0.000 OA
ATOM     36  H   UNL     1       6.457  -6.642   6.131  0.00  0.00    +0.000 HD
ENDBRANCH  34  35
ENDBRANCH  24  34
ENDBRANCH  23  24
ENDBRANCH   4  23
TORSDOF 10
