REMARK  Name = 
REMARK  9 active torsions:
REMARK  status: ('A' for Active; 'I' for Inactive)
REMARK    1  A    between atoms: N_1  and  C_2
REMARK    2  A    between atoms: C_2  and  C_3
REMARK    3  A    between atoms: C_3  and  O_4
REMARK    4  A    between atoms: C_7  and  O_8
REMARK    5  A    between atoms: O_8  and  C_9
REMARK    6  A    between atoms: C_9  and  C_10
REMARK    7  A    between atoms: C_13  and  C_14
REMARK    8  A    between atoms: C_15  and  C_16
REMARK    9  A    between atoms: C_16  and  O_18
REMARK                            x       y       z     vdW  Elec       q    Type
REMARK                         _______ _______ _______ _____ _____    ______ ____
ROOT
ATOM      1  O   UNL     1       6.469   0.314  -0.880  0.00  0.00    +0.000 OA
ENDROOT
BRANCH   1   5
ATOM      2  C   UNL     1       2.978   1.056  -0.324  0.00  0.00    +0.000 C 
ATOM      3  C   UNL     1       3.575   0.498  -1.626  0.00  0.00    +0.000 C 
ATOM      4  C   UNL     1       4.349  -0.793  -1.371  0.00  0.00    +0.000 C 
ATOM      5  C   UNL     1       5.481  -0.571  -0.358  0.00  0.00    +0.000 C 
ATOM      6  C   UNL     1       4.970   0.085   0.936  0.00  0.00    +0.000 C 
ATOM      7  C   UNL     1       4.121   1.335   0.665  0.00  0.00    +0.000 C 
BRANCH   2   8
ATOM      8  O   UNL     1       2.330   2.295  -0.634  0.00  0.00    +0.000 OA
ATOM      9  H   UNL     1       1.457   2.042  -0.996  0.00  0.00    +0.000 HD
ENDBRANCH   2   8
BRANCH   2  10
ATOM     10  C   UNL     1       1.915   0.116   0.316  0.00  0.00    +0.000 C 
BRANCH  10  11
ATOM     11  N   UNL     1       0.784  -0.146  -0.585  0.00  0.00    +0.000 NA
ATOM     12  H   UNL     1       0.139  -0.783  -0.113  0.00  0.00    +0.000 HD
ATOM     13  H   UNL     1       1.112  -0.658  -1.404  0.00  0.00    +0.000 HD
ENDBRANCH  10  11
ENDBRANCH   2  10
ENDBRANCH   1   5
BRANCH   1  14
ATOM     14  C   UNL     1       7.230  -0.211  -1.963  0.00  0.00    +0.000 C 
BRANCH  14  15
ATOM     15  C   UNL     1       8.291   0.793  -2.321  0.00  0.00    +0.000 A 
ATOM     16  C   UNL     1       8.935   1.540  -1.327  0.00  0.00    +0.000 A 
ATOM     17  C   UNL     1       9.885   2.501  -1.666  0.00  0.00    +0.000 A 
ATOM     18  C   UNL     1      10.236   2.714  -3.005  0.00  0.00    +0.000 A 
ATOM     19  C   UNL     1       9.604   1.955  -3.997  0.00  0.00    +0.000 A 
ATOM     20  C   UNL     1       8.646   0.995  -3.659  0.00  0.00    +0.000 A 
BRANCH  18  21
ATOM     21  C   UNL     1      11.197   3.750  -3.410  0.00  0.00    +0.000 C 
ATOM     22  C   UNL     1      12.233   4.140  -2.657  0.00  0.00    +0.000 C 
BRANCH  22  23
ATOM     23  C   UNL     1      13.139   5.190  -3.159  0.00  0.00    +0.000 C 
ATOM     24  O   UNL     1      13.030   5.738  -4.241  0.00  0.00    +0.000 OA
BRANCH  23  25
ATOM     25  O   UNL     1      14.113   5.482  -2.273  0.00  0.00    +0.000 OA
ATOM     26  H   UNL     1      14.089   4.978  -1.440  0.00  0.00    +0.000 HD
ENDBRANCH  23  25
ENDBRANCH  22  23
ENDBRANCH  18  21
ENDBRANCH  14  15
ENDBRANCH   1  14
TORSDOF 9
