REMARK  Name = 
REMARK  4 active torsions:
REMARK  status: ('A' for Active; 'I' for Inactive)
REMARK    1  A    between atoms: C_2  and  C_3
REMARK    2  A    between atoms: C_6  and  C_7
REMARK    3  A    between atoms: C_7  and  N_8
REMARK    4  A    between atoms: C_12  and  C_13
REMARK                            x       y       z     vdW  Elec       q    Type
REMARK                         _______ _______ _______ _____ _____    ______ ____
ROOT
ATOM      1  N   UNL     1       8.203   1.535   0.789  0.00  0.00    +0.000 N 
ATOM      2  C   UNL     1       8.301   2.768   0.137  0.00  0.00    +0.000 A 
ATOM      3  C   UNL     1       7.614   3.046  -1.039  0.00  0.00    +0.000 A 
ATOM      4  C   UNL     1       7.735   4.299  -1.639  0.00  0.00    +0.000 A 
ATOM      5  C   UNL     1       8.546   5.261  -1.049  0.00  0.00    +0.000 A 
ATOM      6  C   UNL     1       9.190   4.910   0.131  0.00  0.00    +0.000 A 
ATOM      7  N   UNL     1       9.080   3.693   0.730  0.00  0.00    +0.000 NA
ATOM      8  H   UNL     1       8.861   1.543   1.566  0.00  0.00    +0.000 HD
ENDROOT
BRANCH   5   9
ATOM      9  C   UNL     1       8.759   6.617  -1.608  0.00  0.00    +0.000 C 
ATOM     10  N   UNL     1       8.120   6.948  -2.772  0.00  0.00    +0.000 N 
ATOM     11  O   UNL     1       9.491   7.424  -1.053  0.00  0.00    +0.000 OA
ATOM     12  H   UNL     1       7.490   6.354  -3.288  0.00  0.00    +0.000 HD
ATOM     13  H   UNL     1       8.284   7.878  -3.135  0.00  0.00    +0.000 HD
ENDBRANCH   5   9
BRANCH   1  14
ATOM     14  C   UNL     1       7.906   0.274   0.093  0.00  0.00    +0.000 C 
ATOM     15  C   UNL     1       8.866  -0.245  -0.964  0.00  0.00    +0.000 C 
ATOM     16  C   UNL     1       8.829  -0.904   0.375  0.00  0.00    +0.000 C 
BRANCH  14  20
ATOM     17  C   UNL     1       3.761  -0.634  -0.162  0.00  0.00    +0.000 A 
ATOM     18  N   UNL     1       4.415  -0.445  -1.322  0.00  0.00    +0.000 NA
ATOM     19  C   UNL     1       5.729  -0.155  -1.207  0.00  0.00    +0.000 A 
ATOM     20  C   UNL     1       6.424  -0.042  -0.012  0.00  0.00    +0.000 A 
ATOM     21  C   UNL     1       5.619  -0.235   1.101  0.00  0.00    +0.000 A 
ATOM     22  N   UNL     1       4.302  -0.537   1.065  0.00  0.00    +0.000 NA
BRANCH  17  24
ATOM     23  N   UNL     1       1.251  -1.307  -0.319  0.00  0.00    +0.000 NA
ATOM     24  C   UNL     1       2.373  -1.002  -0.244  0.00  0.00    +0.000 C 
ENDBRANCH  17  24
ENDBRANCH  14  20
ENDBRANCH   1  14
TORSDOF 4
