REMARK  Name = 
REMARK  4 active torsions:
REMARK  status: ('A' for Active; 'I' for Inactive)
REMARK    1  A    between atoms: C_2  and  C_4
REMARK    2  A    between atoms: C_7  and  O_8
REMARK    3  A    between atoms: O_8  and  C_9
REMARK    4  A    between atoms: C_9  and  C_10
REMARK                            x       y       z     vdW  Elec       q    Type
REMARK                         _______ _______ _______ _____ _____    ______ ____
ROOT
ATOM      1  C   UNL     1       5.349   7.065  -2.607  0.00  0.00    +0.000 C 
ATOM      2  C   UNL     1       6.656   6.775  -1.852  0.00  0.00    +0.000 C 
ATOM      3  C   UNL     1       6.570   7.245  -0.402  0.00  0.00    +0.000 C 
ATOM      4  C   UNL     1       6.171   8.717  -0.312  0.00  0.00    +0.000 C 
ATOM      5  N   UNL     1       4.939   8.938  -1.062  0.00  0.00    +0.000 N 
ATOM      6  C   UNL     1       3.765   9.380  -0.485  0.00  0.00    +0.000 A 
ATOM      7  C   UNL     1       3.775  10.200   0.628  0.00  0.00    +0.000 A 
ATOM      8  C   UNL     1       2.561  10.620   1.114  0.00  0.00    +0.000 A 
ATOM      9  N   UNL     1       1.387  10.258   0.581  0.00  0.00    +0.000 NA
ATOM     10  C   UNL     1       1.458   9.446  -0.472  0.00  0.00    +0.000 A 
ATOM     11  N   UNL     1       0.262   9.051  -1.038  0.00  0.00    +0.000 N 
ATOM     12  N   UNL     1       2.591   9.022  -1.043  0.00  0.00    +0.000 NA
ATOM     13  C   UNL     1       4.951   8.541  -2.468  0.00  0.00    +0.000 C 
ATOM     14  H   UNL     1      -0.453   9.726  -0.807  0.00  0.00    +0.000 HD
ATOM     15  H   UNL     1       0.403   8.832  -2.013  0.00  0.00    +0.000 HD
ENDROOT
BRANCH   1  16
ATOM     16  C   UNL     1       5.462   6.688  -4.089  0.00  0.00    +0.000 C 
BRANCH  16  17
ATOM     17  O   UNL     1       6.477   7.472  -4.725  0.00  0.00    +0.000 OA
BRANCH  17  21
ATOM     18  C   UNL     1       7.074   7.155  -8.837  0.00  0.00    +0.000 A 
ATOM     19  C   UNL     1       6.126   6.325  -8.231  0.00  0.00    +0.000 A 
ATOM     20  C   UNL     1       5.904   6.403  -6.856  0.00  0.00    +0.000 A 
ATOM     21  C   UNL     1       6.626   7.303  -6.074  0.00  0.00    +0.000 A 
ATOM     22  C   UNL     1       7.595   8.114  -6.677  0.00  0.00    +0.000 A 
ATOM     23  C   UNL     1       7.825   8.036  -8.054  0.00  0.00    +0.000 A 
BRANCH  18  25
ATOM     24  N   UNL     1       6.245   6.746 -11.083  0.00  0.00    +0.000 N 
ATOM     25  C   UNL     1       7.306   7.112 -10.301  0.00  0.00    +0.000 C 
ATOM     26  O   UNL     1       8.381   7.426 -10.795  0.00  0.00    +0.000 OA
ATOM     27  H   UNL     1       6.376   6.827 -12.083  0.00  0.00    +0.000 HD
ATOM     28  H   UNL     1       5.296   6.738 -10.735  0.00  0.00    +0.000 HD
ENDBRANCH  18  25
ENDBRANCH  17  21
ENDBRANCH  16  17
ENDBRANCH   1  16
TORSDOF 4
