REMARK  Name = 
REMARK  4 active torsions:
REMARK  status: ('A' for Active; 'I' for Inactive)
REMARK    1  A    between atoms: N_1  and  C_2
REMARK    2  A    between atoms: C_2  and  C_3
REMARK    3  A    between atoms: C_7  and  C_8
REMARK    4  A    between atoms: C_8  and  C_9
REMARK                            x       y       z     vdW  Elec       q    Type
REMARK                         _______ _______ _______ _____ _____    ______ ____
ROOT
ATOM      1  C   UNL     1       2.861   4.462  -2.260  0.00  0.00    +0.000 C 
ENDROOT
BRANCH   1   2
ATOM      2  C   UNL     1       2.669   5.205  -0.974  0.00  0.00    +0.000 A 
ATOM      3  C   UNL     1       2.504   4.753   0.328  0.00  0.00    +0.000 A 
ATOM      4  N   UNL     1       2.449   5.840   1.166  0.00  0.00    +0.000 N 
ATOM      5  C   UNL     1       2.565   6.993   0.441  0.00  0.00    +0.000 A 
ATOM      6  N   UNL     1       2.590   8.232   0.964  0.00  0.00    +0.000 NA
ATOM      7  C   UNL     1       2.711   9.196   0.021  0.00  0.00    +0.000 A 
ATOM      8  C   UNL     1       2.761   8.988  -1.351  0.00  0.00    +0.000 A 
ATOM      9  C   UNL     1       2.726   7.682  -1.838  0.00  0.00    +0.000 A 
ATOM     10  C   UNL     1       2.649   6.638  -0.898  0.00  0.00    +0.000 A 
ATOM     11  H   UNL     1       2.358   5.820   2.170  0.00  0.00    +0.000 HD
ENDBRANCH   1   2
BRANCH   1  16
ATOM     12  C   UNL     1       4.331   1.016  -1.537  0.00  0.00    +0.000 A 
ATOM     13  C   UNL     1       3.179   0.268  -1.749  0.00  0.00    +0.000 A 
ATOM     14  N   UNL     1       1.973   0.793  -2.058  0.00  0.00    +0.000 NA
ATOM     15  C   UNL     1       1.912   2.138  -2.178  0.00  0.00    +0.000 A 
ATOM     16  C   UNL     1       2.999   2.990  -2.015  0.00  0.00    +0.000 A 
ATOM     17  C   UNL     1       4.227   2.406  -1.678  0.00  0.00    +0.000 A 
BRANCH  12  18
ATOM     18  C   UNL     1       5.636   0.352  -1.199  0.00  0.00    +0.000 C 
BRANCH  18  19
ATOM     19  N   UNL     1       6.163   0.816   0.078  0.00  0.00    +0.000 NA
ATOM     20  H   UNL     1       6.990   0.273   0.318  0.00  0.00    +0.000 HD
ATOM     21  H   UNL     1       5.476   0.631   0.808  0.00  0.00    +0.000 HD
ENDBRANCH  18  19
ENDBRANCH  12  18
ENDBRANCH   1  16
TORSDOF 4
