REMARK  Name = 
REMARK  5 active torsions:
REMARK  status: ('A' for Active; 'I' for Inactive)
REMARK    1  A    between atoms: C_2  and  C_4
REMARK    2  A    between atoms: C_7  and  N_8
REMARK    3  A    between atoms: N_8  and  C_9
REMARK    4  A    between atoms: C_9  and  C_10
REMARK    5  A    between atoms: C_13  and  C_14
REMARK                            x       y       z     vdW  Elec       q    Type
REMARK                         _______ _______ _______ _____ _____    ______ ____
ROOT
ATOM      1  N   UNL     1       5.525   3.171  -3.251  0.00  0.00    +0.000 N 
ATOM      2  H   UNL     1       4.761   3.328  -3.908  0.00  0.00    +0.000 HD
ENDROOT
BRANCH   1   6
ATOM      3  C   UNL     1       4.254   1.719   0.392  0.00  0.00    +0.000 A 
ATOM      4  N   UNL     1       5.572   1.585   0.116  0.00  0.00    +0.000 NA
ATOM      5  C   UNL     1       5.958   2.040  -1.097  0.00  0.00    +0.000 A 
ATOM      6  C   UNL     1       5.119   2.594  -2.053  0.00  0.00    +0.000 A 
ATOM      7  C   UNL     1       3.803   2.696  -1.616  0.00  0.00    +0.000 A 
ATOM      8  N   UNL     1       3.336   2.261  -0.426  0.00  0.00    +0.000 NA
BRANCH   3  10
ATOM      9  N   UNL     1       4.795   0.777   2.583  0.00  0.00    +0.000 N 
ATOM     10  C   UNL     1       3.800   1.251   1.757  0.00  0.00    +0.000 C 
ATOM     11  O   UNL     1       2.638   1.288   2.144  0.00  0.00    +0.000 OA
ATOM     12  H   UNL     1       4.553   0.480   3.517  0.00  0.00    +0.000 HD
ATOM     13  H   UNL     1       5.759   0.773   2.271  0.00  0.00    +0.000 HD
ENDBRANCH   3  10
ENDBRANCH   1   6
BRANCH   1  14
ATOM     14  C   UNL     1       6.721   2.701  -3.953  0.00  0.00    +0.000 C 
BRANCH  14  15
ATOM     15  C   UNL     1       7.292   3.819  -4.807  0.00  0.00    +0.000 A 
ATOM     16  C   UNL     1       7.735   4.995  -4.202  0.00  0.00    +0.000 A 
ATOM     17  C   UNL     1       8.244   6.016  -4.999  0.00  0.00    +0.000 A 
ATOM     18  C   UNL     1       8.305   5.846  -6.383  0.00  0.00    +0.000 A 
ATOM     19  C   UNL     1       7.857   4.638  -6.900  0.00  0.00    +0.000 A 
ATOM     20  N   UNL     1       7.353   3.629  -6.149  0.00  0.00    +0.000 NA
BRANCH  18  21
ATOM     21  C   UNL     1       8.815   6.906  -7.308  0.00  0.00    +0.000 C 
ATOM     22  F   UNL     1       9.193   8.048  -6.668  0.00  0.00    +0.000 F 
ATOM     23  F   UNL     1       9.902   6.500  -8.020  0.00  0.00    +0.000 F 
ATOM     24  F   UNL     1       7.886   7.285  -8.228  0.00  0.00    +0.000 F 
ENDBRANCH  18  21
ENDBRANCH  14  15
ENDBRANCH   1  14
TORSDOF 5
