REMARK  Name = 
REMARK  7 active torsions:
REMARK  status: ('A' for Active; 'I' for Inactive)
REMARK    1  A    between atoms: C_1  and  C_2
REMARK    2  A    between atoms: C_2  and  C_3
REMARK    3  A    between atoms: C_2  and  C_4
REMARK    4  A    between atoms: C_2  and  C_5
REMARK    5  A    between atoms: C_9  and  C_10
REMARK    6  A    between atoms: N_16  and  C_17
REMARK    7  A    between atoms: C_17  and  C_18
REMARK                            x       y       z     vdW  Elec       q    Type
REMARK                         _______ _______ _______ _____ _____    ______ ____
ROOT
ATOM      1  C   UNL     1       2.967  -1.138  -0.693  0.00  0.00    +0.000 A 
ATOM      2  N   UNL     1       3.676  -1.058  -1.816  0.00  0.00    +0.000 NA
ATOM      3  C   UNL     1       3.770  -2.325  -2.318  0.00  0.00    +0.000 A 
ATOM      4  C   UNL     1       4.419  -2.821  -3.456  0.00  0.00    +0.000 A 
ATOM      5  C   UNL     1       4.328  -4.198  -3.696  0.00  0.00    +0.000 A 
ATOM      6  C   UNL     1       3.598  -4.985  -2.801  0.00  0.00    +0.000 A 
ATOM      7  N   UNL     1       2.958  -4.545  -1.683  0.00  0.00    +0.000 NA
ATOM      8  C   UNL     1       3.090  -3.215  -1.509  0.00  0.00    +0.000 A 
ATOM      9  N   UNL     1       2.621  -2.463  -0.455  0.00  0.00    +0.000 N 
ENDROOT
BRANCH   5  10
ATOM     10  C   UNL     1       4.968  -4.883  -4.845  0.00  0.00    +0.000 C 
ATOM     11  N   UNL     1       5.703  -4.144  -5.729  0.00  0.00    +0.000 N 
ATOM     12  O   UNL     1       4.850  -6.092  -5.009  0.00  0.00    +0.000 OA
ATOM     13  H   UNL     1       5.860  -3.153  -5.672  0.00  0.00    +0.000 HD
ATOM     14  H   UNL     1       6.130  -4.644  -6.497  0.00  0.00    +0.000 HD
ENDBRANCH   5  10
BRANCH   1  16
ATOM     15  C   UNL     1       1.190   0.590  -0.400  0.00  0.00    +0.000 C 
ATOM     16  C   UNL     1       2.562   0.107   0.101  0.00  0.00    +0.000 C 
ATOM     17  C   UNL     1       3.598   1.229  -0.162  0.00  0.00    +0.000 C 
ATOM     18  C   UNL     1       2.514  -0.071   1.623  0.00  0.00    +0.000 C 
ENDBRANCH   1  16
BRANCH   9  19
ATOM     19  C   UNL     1       1.936  -3.071   0.677  0.00  0.00    +0.000 C 
BRANCH  19  20
ATOM     20  C   UNL     1       2.852  -3.309   1.861  0.00  0.00    +0.000 A 
ATOM     21  C   UNL     1       2.354  -3.164   3.166  0.00  0.00    +0.000 A 
ATOM     22  C   UNL     1       3.194  -3.317   4.272  0.00  0.00    +0.000 A 
ATOM     23  C   UNL     1       4.535  -3.647   4.093  0.00  0.00    +0.000 A 
ATOM     24  C   UNL     1       5.032  -3.849   2.809  0.00  0.00    +0.000 A 
ATOM     25  C   UNL     1       4.194  -3.697   1.705  0.00  0.00    +0.000 A 
ENDBRANCH  19  20
ENDBRANCH   9  19
TORSDOF 4
