REMARK  Name = 
REMARK  7 active torsions:
REMARK  status: ('A' for Active; 'I' for Inactive)
REMARK    1  A    between atoms: C_2  and  C_4
REMARK    2  A    between atoms: C_9  and  N_10
REMARK    3  A    between atoms: N_10  and  C_11
REMARK    4  A    between atoms: C_11  and  C_12
REMARK    5  A    between atoms: C_16  and  C_17
REMARK    6  A    between atoms: C_21  and  O_22
REMARK    7  A    between atoms: O_22  and  C_23
REMARK                            x       y       z     vdW  Elec       q    Type
REMARK                         _______ _______ _______ _____ _____    ______ ____
ROOT
ATOM      1  C   UNL     1       3.880   2.075   0.327  0.00  0.00    +0.000 C 
ATOM      2  C   UNL     1       4.040   0.562   0.138  0.00  0.00    +0.000 C 
ATOM      3  C   UNL     1       4.021   1.137   1.510  0.00  0.00    +0.000 C 
ENDROOT
BRANCH   1   4
ATOM      4  C   UNL     1       5.099   2.961   0.060  0.00  0.00    +0.000 A 
ATOM      5  C   UNL     1       5.490   3.969   0.952  0.00  0.00    +0.000 A 
ATOM      6  C   UNL     1       6.667   4.689   0.752  0.00  0.00    +0.000 A 
ATOM      7  C   UNL     1       7.480   4.411  -0.350  0.00  0.00    +0.000 A 
ATOM      8  C   UNL     1       7.130   3.419  -1.280  0.00  0.00    +0.000 A 
ATOM      9  C   UNL     1       5.918   2.738  -1.063  0.00  0.00    +0.000 A 
BRANCH   8  10
ATOM     10  C   UNL     1       8.018   3.044  -2.403  0.00  0.00    +0.000 A 
ATOM     11  C   UNL     1       7.508   2.595  -3.634  0.00  0.00    +0.000 A 
ATOM     12  C   UNL     1       8.355   2.197  -4.672  0.00  0.00    +0.000 A 
ATOM     13  C   UNL     1       9.739   2.247  -4.510  0.00  0.00    +0.000 A 
ATOM     14  C   UNL     1      10.274   2.677  -3.298  0.00  0.00    +0.000 A 
ATOM     15  C   UNL     1       9.417   3.075  -2.266  0.00  0.00    +0.000 A 
BRANCH  14  16
ATOM     16  O   UNL     1      11.604   2.779  -3.002  0.00  0.00    +0.000 OA
BRANCH  16  17
ATOM     17  C   UNL     1      12.471   1.948  -3.753  0.00  0.00    +0.000 C 
ATOM     18  F   UNL     1      12.730   2.543  -4.942  0.00  0.00    +0.000 F 
ATOM     19  F   UNL     1      13.649   1.888  -3.081  0.00  0.00    +0.000 F 
ENDBRANCH  16  17
ENDBRANCH  14  16
ENDBRANCH   8  10
ENDBRANCH   1   4
BRANCH   1  20
ATOM     20  N   UNL     1       2.628   2.593  -0.271  0.00  0.00    +0.000 N 
ATOM     21  H   UNL     1       2.813   3.219  -1.056  0.00  0.00    +0.000 HD
BRANCH  20  27
ATOM     22  C   UNL     1       0.462   3.730  -0.220  0.00  0.00    +0.000 A 
ATOM     23  C   UNL     1      -0.620   4.249   0.506  0.00  0.00    +0.000 A 
ATOM     24  C   UNL     1      -0.659   4.083   1.880  0.00  0.00    +0.000 A 
ATOM     25  C   UNL     1       0.398   3.424   2.477  0.00  0.00    +0.000 A 
ATOM     26  N   UNL     1       1.488   2.961   1.813  0.00  0.00    +0.000 NA
ATOM     27  C   UNL     1       1.536   3.121   0.465  0.00  0.00    +0.000 A 
BRANCH  22  29
ATOM     28  N   UNL     1       0.948   2.868  -2.450  0.00  0.00    +0.000 N 
ATOM     29  C   UNL     1       0.375   3.854  -1.699  0.00  0.00    +0.000 C 
ATOM     30  O   UNL     1      -0.239   4.770  -2.235  0.00  0.00    +0.000 OA
ATOM     31  H   UNL     1       0.764   2.868  -3.446  0.00  0.00    +0.000 HD
ATOM     32  H   UNL     1       1.278   2.004  -2.028  0.00  0.00    +0.000 HD
ENDBRANCH  22  29
ENDBRANCH  20  27
ENDBRANCH   1  20
TORSDOF 7
