REMARK  Name = 
REMARK  5 active torsions:
REMARK  status: ('A' for Active; 'I' for Inactive)
REMARK    1  A    between atoms: C_1  and  C_2
REMARK    2  A    between atoms: C_2  and  C_3
REMARK    3  A    between atoms: C_5  and  N_6
REMARK    4  A    between atoms: C_5  and  C_16
REMARK    5  A    between atoms: C_10  and  C_11
REMARK                            x       y       z     vdW  Elec       q    Type
REMARK                         _______ _______ _______ _____ _____    ______ ____
ROOT
ATOM      1  N   UNL     1      -2.248  -1.371   0.103  0.00  0.00    +0.000 N 
ATOM      2  C   UNL     1      -2.474  -2.324  -0.913  0.00  0.00    +0.000 A 
ATOM      3  C   UNL     1      -2.538  -3.683  -0.567  0.00  0.00    +0.000 A 
ATOM      4  N   UNL     1      -2.596  -4.702  -1.466  0.00  0.00    +0.000 NA
ATOM      5  C   UNL     1      -2.604  -4.294  -2.765  0.00  0.00    +0.000 A 
ATOM      6  C   UNL     1      -2.587  -2.954  -3.125  0.00  0.00    +0.000 A 
ATOM      7  N   UNL     1      -2.527  -1.952  -2.206  0.00  0.00    +0.000 NA
ATOM      8  H   UNL     1      -3.045  -1.384   0.745  0.00  0.00    +0.000 HD
ENDROOT
BRANCH   1  13
ATOM      9  C   UNL     1       1.132  -1.291  -0.074  0.00  0.00    +0.000 C 
ATOM     10  C   UNL     1       0.418   0.061  -0.041  0.00  0.00    +0.000 C 
ATOM     11  C   UNL     1       1.428   1.207  -0.019  0.00  0.00    +0.000 C 
ATOM     12  C   UNL     1      -0.704   0.253   1.015  0.00  0.00    +0.000 C 
ATOM     13  C   UNL     1      -1.797   0.013  -0.084  0.00  0.00    +0.000 C 
ATOM     14  C   UNL     1      -0.655   0.175  -1.147  0.00  0.00    +0.000 C 
BRANCH  13  15
ATOM     15  C   UNL     1      -3.045   0.927  -0.198  0.00  0.00    +0.000 C 
ATOM     16  C   UNL     1      -2.821   2.407  -0.544  0.00  0.00    +0.000 C 
ATOM     17  C   UNL     1      -2.646   3.341   0.644  0.00  0.00    +0.000 C 
ATOM     18  C   UNL     1      -3.676   3.038   1.717  0.00  0.00    +0.000 C 
ATOM     19  C   UNL     1      -3.638   1.563   2.071  0.00  0.00    +0.000 C 
ATOM     20  O   UNL     1      -3.913   0.738   0.941  0.00  0.00    +0.000 OA
ENDBRANCH  13  15
ENDBRANCH   1  13
BRANCH   5  21
ATOM     21  C   UNL     1      -2.569  -5.338  -3.826  0.00  0.00    +0.000 C 
ATOM     22  N   UNL     1      -2.455  -6.632  -3.396  0.00  0.00    +0.000 N 
ATOM     23  O   UNL     1      -2.614  -5.059  -5.017  0.00  0.00    +0.000 OA
ATOM     24  H   UNL     1      -2.378  -6.836  -2.407  0.00  0.00    +0.000 HD
ATOM     25  H   UNL     1      -2.383  -7.373  -4.077  0.00  0.00    +0.000 HD
ENDBRANCH   5  21
TORSDOF 3
