REMARK  Name = 
REMARK  8 active torsions:
REMARK  status: ('A' for Active; 'I' for Inactive)
REMARK    1  A    between atoms: C_1  and  C_2
REMARK    2  A    between atoms: C_2  and  N_3
REMARK    3  A    between atoms: N_3  and  C_4
REMARK    4  A    between atoms: C_4  and  C_5
REMARK    5  A    between atoms: C_8  and  C_9
REMARK    6  A    between atoms: C_9  and  N_10
REMARK    7  A    between atoms: C_11  and  C_13
REMARK    8  A    between atoms: C_21  and  C_23
REMARK                            x       y       z     vdW  Elec       q    Type
REMARK                         _______ _______ _______ _____ _____    ______ ____
ROOT
ATOM      1  C   UNL     1       1.959   1.771  -1.567  0.00  0.00    +0.000 C 
ENDROOT
BRANCH   1   2
ATOM      2  C   UNL     1       0.525   1.332  -1.494  0.00  0.00    +0.000 A 
ATOM      3  C   UNL     1      -0.317   1.832  -0.489  0.00  0.00    +0.000 A 
ATOM      4  C   UNL     1      -1.693   1.667  -0.593  0.00  0.00    +0.000 A 
ATOM      5  C   UNL     1      -2.197   0.977  -1.692  0.00  0.00    +0.000 A 
ATOM      6  N   UNL     1      -1.392   0.436  -2.645  0.00  0.00    +0.000 NA
ATOM      7  C   UNL     1      -0.059   0.625  -2.527  0.00  0.00    +0.000 A 
BRANCH   5   8
ATOM      8  C   UNL     1      -3.687   0.858  -1.909  0.00  0.00    +0.000 C 
BRANCH   8   9
ATOM      9  N   UNL     1      -4.217   1.931  -2.730  0.00  0.00    +0.000 N 
ATOM     10  C   UNL     1      -4.651   3.126  -2.189  0.00  0.00    +0.000 C 
ATOM     11  O   UNL     1      -4.647   3.292  -0.977  0.00  0.00    +0.000 OA
ATOM     12  H   UNL     1      -4.121   1.848  -3.731  0.00  0.00    +0.000 HD
BRANCH  10  13
ATOM     13  C   UNL     1      -5.102   4.130  -3.138  0.00  0.00    +0.000 A 
ATOM     14  S   UNL     1      -5.027   3.877  -4.842  0.00  0.00    +0.000 S 
ATOM     15  C   UNL     1      -5.689   5.431  -5.098  0.00  0.00    +0.000 A 
ATOM     16  N   UNL     1      -5.966   6.123  -4.020  0.00  0.00    +0.000 NA
ATOM     17  C   UNL     1      -5.634   5.387  -2.891  0.00  0.00    +0.000 A 
ATOM     18 CL   UNL     1      -5.915   6.093  -1.352  0.00  0.00    +0.000 Cl
ENDBRANCH  10  13
ENDBRANCH   8   9
ENDBRANCH   5   8
ENDBRANCH   1   2
BRANCH   1  19
ATOM     19  N   UNL     1       3.054   1.003  -0.995  0.00  0.00    +0.000 N 
ATOM     20  C   UNL     1       4.409   1.426  -1.095  0.00  0.00    +0.000 C 
ATOM     21  O   UNL     1       5.306   0.706  -0.659  0.00  0.00    +0.000 OA
BRANCH  20  22
ATOM     22  C   UNL     1       4.763   2.772  -1.644  0.00  0.00    +0.000 A 
ATOM     23  C   UNL     1       4.013   3.930  -1.490  0.00  0.00    +0.000 A 
ATOM     24  S   UNL     1       4.689   5.334  -2.174  0.00  0.00    +0.000 S 
ATOM     25  C   UNL     1       6.141   4.519  -2.475  0.00  0.00    +0.000 A 
ATOM     26  N   UNL     1       7.237   5.224  -2.866  0.00  0.00    +0.000 NA
ATOM     27  C   UNL     1       8.276   4.492  -3.081  0.00  0.00    +0.000 A 
ATOM     28  N   UNL     1       8.301   3.126  -2.982  0.00  0.00    +0.000 N 
ATOM     29  C   UNL     1       7.213   2.368  -2.592  0.00  0.00    +0.000 A 
ATOM     30  O   UNL     1       7.274   1.145  -2.606  0.00  0.00    +0.000 OA
ATOM     31  C   UNL     1       6.039   3.157  -2.248  0.00  0.00    +0.000 A 
ATOM     32  H   UNL     1       9.129   2.612  -3.241  0.00  0.00    +0.000 HD
ENDBRANCH  20  22
BRANCH  19  34
ATOM     33  C   UNL     1       2.782  -1.498  -0.895  0.00  0.00    +0.000 C 
ATOM     34  C   UNL     1       2.763  -0.168  -0.153  0.00  0.00    +0.000 C 
ENDBRANCH  19  34
ENDBRANCH   1  19
TORSDOF 7
