REMARK  Name = 
REMARK  7 active torsions:
REMARK  status: ('A' for Active; 'I' for Inactive)
REMARK    1  A    between atoms: N_1  and  C_2
REMARK    2  A    between atoms: C_2  and  C_3
REMARK    3  A    between atoms: C_6  and  C_7
REMARK    4  A    between atoms: C_7  and  C_8
REMARK    5  A    between atoms: C_11  and  C_12
REMARK    6  A    between atoms: C_12  and  N_13
REMARK    7  A    between atoms: C_14  and  C_16
REMARK                            x       y       z     vdW  Elec       q    Type
REMARK                         _______ _______ _______ _____ _____    ______ ____
ROOT
ATOM      1  C   UNL     1       4.954  -5.099  -3.425  0.00  0.00    +0.000 A 
ATOM      2  C   UNL     1       6.234  -4.603  -3.209  0.00  0.00    +0.000 A 
ATOM      3  N   UNL     1       7.152  -4.467  -4.197  0.00  0.00    +0.000 NA
ATOM      4  C   UNL     1       6.750  -4.848  -5.437  0.00  0.00    +0.000 A 
ATOM      5  C   UNL     1       5.471  -5.351  -5.653  0.00  0.00    +0.000 A 
ATOM      6  N   UNL     1       4.556  -5.496  -4.662  0.00  0.00    +0.000 NA
ENDROOT
BRANCH   1   7
ATOM      7  C   UNL     1       3.940  -5.135  -2.308  0.00  0.00    +0.000 C 
BRANCH   7  11
ATOM      8  C   UNL     1       1.505  -1.631  -2.163  0.00  0.00    +0.000 A 
ATOM      9  C   UNL     1       2.267  -1.950  -1.045  0.00  0.00    +0.000 A 
ATOM     10  C   UNL     1       3.072  -3.086  -1.075  0.00  0.00    +0.000 A 
ATOM     11  C   UNL     1       3.095  -3.889  -2.221  0.00  0.00    +0.000 A 
ATOM     12  C   UNL     1       2.290  -3.493  -3.285  0.00  0.00    +0.000 A 
ATOM     13  N   UNL     1       1.511  -2.390  -3.289  0.00  0.00    +0.000 NA
BRANCH   8  14
ATOM     14  C   UNL     1       0.709  -0.344  -2.201  0.00  0.00    +0.000 C 
BRANCH  14  15
ATOM     15  N   UNL     1       1.511   0.760  -2.739  0.00  0.00    +0.000 NA
ATOM     16  H   UNL     1       0.894   1.544  -2.939  0.00  0.00    +0.000 HD
ATOM     17  H   UNL     1       1.869   0.448  -3.645  0.00  0.00    +0.000 HD
ENDBRANCH  14  15
ENDBRANCH   8  14
ENDBRANCH   7  11
ENDBRANCH   1   7
BRANCH   4  18
ATOM     18  C   UNL     1       7.704  -4.674  -6.589  0.00  0.00    +0.000 C 
BRANCH  18  19
ATOM     19  N   UNL     1       7.570  -3.374  -7.210  0.00  0.00    +0.000 N 
ATOM     20  C   UNL     1       7.854  -3.189  -8.540  0.00  0.00    +0.000 C 
ATOM     21  O   UNL     1       8.154  -4.121  -9.280  0.00  0.00    +0.000 OA
ATOM     22  H   UNL     1       7.606  -2.575  -6.582  0.00  0.00    +0.000 HD
BRANCH  20  23
ATOM     23  C   UNL     1       7.700  -1.826  -9.056  0.00  0.00    +0.000 A 
ATOM     24  C   UNL     1       7.339  -1.620 -10.381  0.00  0.00    +0.000 A 
ATOM     25  S   UNL     1       7.188   0.029 -10.795  0.00  0.00    +0.000 S 
ATOM     26  C   UNL     1       7.640   0.521  -9.230  0.00  0.00    +0.000 A 
ATOM     27  N   UNL     1       7.743   1.837  -8.908  0.00  0.00    +0.000 NA
ATOM     28  C   UNL     1       8.115   2.060  -7.690  0.00  0.00    +0.000 A 
ATOM     29  N   UNL     1       8.386   1.086  -6.764  0.00  0.00    +0.000 N 
ATOM     30  C   UNL     1       8.277  -0.255  -7.039  0.00  0.00    +0.000 A 
ATOM     31  O   UNL     1       8.487  -1.106  -6.181  0.00  0.00    +0.000 OA
ATOM     32  C   UNL     1       7.876  -0.558  -8.398  0.00  0.00    +0.000 A 
ATOM     33  H   UNL     1       8.656   1.326  -5.822  0.00  0.00    +0.000 HD
ENDBRANCH  20  23
ENDBRANCH  18  19
ENDBRANCH   4  18
TORSDOF 7
