REMARK  Name = 
REMARK  9 active torsions:
REMARK  status: ('A' for Active; 'I' for Inactive)
REMARK    1  A    between atoms: C_2  and  C_21
REMARK    2  A    between atoms: N_3  and  CA_4
REMARK    3  A    between atoms: CA_4  and  C_5
REMARK    4  A    between atoms: CA_4  and  C_7
REMARK    5  A    between atoms: C_5  and  O_6
REMARK    6  A    between atoms: C_10  and  N_11
REMARK    7  A    between atoms: N_11  and  C_12
REMARK    8  A    between atoms: C_12  and  C_13
REMARK    9  A    between atoms: C_13  and  C_14
REMARK                            x       y       z     vdW  Elec       q    Type
REMARK                         _______ _______ _______ _____ _____    ______ ____
ROOT
ATOM      1  CA  UNL     1       2.198   1.860   1.814  0.00  0.00    +0.000 C 
ENDROOT
BRANCH   1   2
ATOM      2  C   UNL     1       3.191   2.730   2.570  0.00  0.00    +0.000 A 
ATOM      3  C   UNL     1       2.996   4.109   2.602  0.00  0.00    +0.000 A 
ATOM      4  C   UNL     1       3.797   4.889   3.432  0.00  0.00    +0.000 A 
ATOM      5  C   UNL     1       4.763   4.296   4.244  0.00  0.00    +0.000 A 
ATOM      6  C   UNL     1       4.943   2.921   4.070  0.00  0.00    +0.000 A 
ATOM      7  N   UNL     1       4.173   2.121   3.285  0.00  0.00    +0.000 NA
BRANCH   5   8
ATOM      8  N   UNL     1       5.607   5.013   5.113  0.00  0.00    +0.000 N 
ATOM      9  H   UNL     1       6.466   5.255   4.618  0.00  0.00    +0.000 HD
BRANCH   8  10
ATOM     10  C   UNL     1       5.007   6.195   5.757  0.00  0.00    +0.000 C 
BRANCH  10  11
ATOM     11  C   UNL     1       5.998   6.836   6.732  0.00  0.00    +0.000 C 
BRANCH  11  12
ATOM     12  C   UNL     1       5.376   7.993   7.440  0.00  0.00    +0.000 A 
ATOM     13  N   UNL     1       4.880   9.080   6.885  0.00  0.00    +0.000 NA
ATOM     14  C   UNL     1       4.420   9.851   7.920  0.00  0.00    +0.000 A 
ATOM     15  C   UNL     1       4.637   9.227   9.123  0.00  0.00    +0.000 A 
ATOM     16  N   UNL     1       5.248   8.045   8.807  0.00  0.00    +0.000 N 
ATOM     17  H   UNL     1       5.552   7.334   9.458  0.00  0.00    +0.000 HD
ENDBRANCH  11  12
ENDBRANCH  10  11
ENDBRANCH   8  10
ENDBRANCH   5   8
ENDBRANCH   1   2
BRANCH   1  20
ATOM     18  O   UNL     1       2.451   1.169  -0.928  0.00  0.00    +0.000 OA
ATOM     19  C   UNL     1       2.888   0.401  -0.077  0.00  0.00    +0.000 C 
ATOM     20  N   UNL     1       2.843   0.682   1.260  0.00  0.00    +0.000 N 
ATOM     21  H   UNL     1       3.218   0.027   1.934  0.00  0.00    +0.000 HD
BRANCH  19  22
ATOM     22  C   UNL     1       3.536  -0.863  -0.441  0.00  0.00    +0.000 A 
ATOM     23  C   UNL     1       4.124  -1.024  -1.687  0.00  0.00    +0.000 A 
ATOM     24  S   UNL     1       4.855  -2.552  -1.900  0.00  0.00    +0.000 S 
ATOM     25  C   UNL     1       4.384  -3.058  -0.344  0.00  0.00    +0.000 A 
ATOM     26  N   UNL     1       4.709  -4.295   0.127  0.00  0.00    +0.000 NA
ATOM     27  C   UNL     1       4.273  -4.542   1.316  0.00  0.00    +0.000 A 
ATOM     28  N   UNL     1       3.533  -3.675   2.077  0.00  0.00    +0.000 N 
ATOM     29  C   UNL     1       3.183  -2.425   1.645  0.00  0.00    +0.000 A 
ATOM     30  O   UNL     1       2.534  -1.669   2.359  0.00  0.00    +0.000 OA
ATOM     31  C   UNL     1       3.670  -2.081   0.321  0.00  0.00    +0.000 A 
ATOM     32  H   UNL     1       3.223  -3.923   3.006  0.00  0.00    +0.000 HD
ENDBRANCH  19  22
ENDBRANCH   1  20
BRANCH   1  33
ATOM     33  C   UNL     1       1.033   1.468   2.755  0.00  0.00    +0.000 C 
BRANCH  33  34
ATOM     34  O   UNL     1       1.424   0.713   3.907  0.00  0.00    +0.000 OA
ATOM     35  H   UNL     1       2.397   0.637   3.904  0.00  0.00    +0.000 HD
ENDBRANCH  33  34
ENDBRANCH   1  33
TORSDOF 9
