REMARK  Name = 
REMARK  7 active torsions:
REMARK  status: ('A' for Active; 'I' for Inactive)
REMARK    1  A    between atoms: C_1  and  C_2
REMARK    2  A    between atoms: C_2  and  N_3
REMARK    3  A    between atoms: C_2  and  C_12
REMARK    4  A    between atoms: C_4  and  C_6
REMARK    5  A    between atoms: C_15  and  C_16
REMARK    6  A    between atoms: C_16  and  N_17
REMARK    7  A    between atoms: C_18  and  C_20
REMARK                            x       y       z     vdW  Elec       q    Type
REMARK                         _______ _______ _______ _____ _____    ______ ____
ROOT
ATOM      1  C   UNL     1       2.885  -1.188  -0.733  0.00  0.00    +0.000 A 
ATOM      2  C   UNL     1       3.879  -1.019  -1.708  0.00  0.00    +0.000 A 
ATOM      3  C   UNL     1       4.290  -2.093  -2.506  0.00  0.00    +0.000 A 
ATOM      4  C   UNL     1       3.710  -3.358  -2.349  0.00  0.00    +0.000 A 
ATOM      5  C   UNL     1       2.768  -3.545  -1.330  0.00  0.00    +0.000 A 
ATOM      6  C   UNL     1       2.353  -2.471  -0.539  0.00  0.00    +0.000 A 
ENDROOT
BRANCH   1   8
ATOM      7  C   UNL     1       0.889   0.225  -0.133  0.00  0.00    +0.000 C 
ATOM      8  C   UNL     1       2.395   0.002   0.071  0.00  0.00    +0.000 C 
BRANCH   8   9
ATOM      9  N   UNL     1       2.733  -0.157   1.474  0.00  0.00    +0.000 N 
ATOM     10  C   UNL     1       2.945   0.908   2.316  0.00  0.00    +0.000 C 
ATOM     11  O   UNL     1       2.930   2.078   1.946  0.00  0.00    +0.000 OA
ATOM     12  H   UNL     1       2.723  -1.078   1.903  0.00  0.00    +0.000 HD
BRANCH  10  13
ATOM     13  C   UNL     1       3.257   0.517   3.779  0.00  0.00    +0.000 C 
ATOM     14  C   UNL     1       4.765   0.338   3.979  0.00  0.00    +0.000 C 
ATOM     15  C   UNL     1       5.084  -0.087   5.413  0.00  0.00    +0.000 C 
ATOM     16  C   UNL     1       4.251  -1.299   5.819  0.00  0.00    +0.000 C 
ATOM     17  C   UNL     1       2.767  -1.070   5.541  0.00  0.00    +0.000 C 
ATOM     18  N   UNL     1       2.533  -0.734   4.133  0.00  0.00    +0.000 NA
ATOM     19  H   UNL     1       1.533  -0.564   4.002  0.00  0.00    +0.000 HD
ENDBRANCH  10  13
ENDBRANCH   8   9
ENDBRANCH   1   8
BRANCH   4  20
ATOM     20  C   UNL     1       4.079  -4.504  -3.255  0.00  0.00    +0.000 C 
BRANCH  20  21
ATOM     21  N   UNL     1       5.208  -5.241  -2.754  0.00  0.00    +0.000 N 
ATOM     22  C   UNL     1       5.691  -6.340  -3.420  0.00  0.00    +0.000 C 
ATOM     23  O   UNL     1       5.243  -6.702  -4.505  0.00  0.00    +0.000 OA
ATOM     24  H   UNL     1       5.436  -5.113  -1.774  0.00  0.00    +0.000 HD
BRANCH  22  25
ATOM     25  C   UNL     1       6.826  -7.024  -2.789  0.00  0.00    +0.000 A 
ATOM     26  C   UNL     1       7.728  -7.738  -3.567  0.00  0.00    +0.000 A 
ATOM     27  S   UNL     1       9.007  -8.424  -2.669  0.00  0.00    +0.000 S 
ATOM     28  C   UNL     1       8.373  -7.831  -1.205  0.00  0.00    +0.000 A 
ATOM     29  N   UNL     1       8.989  -8.082  -0.019  0.00  0.00    +0.000 NA
ATOM     30  C   UNL     1       8.389  -7.585   1.010  0.00  0.00    +0.000 A 
ATOM     31  N   UNL     1       7.227  -6.858   0.963  0.00  0.00    +0.000 N 
ATOM     32  C   UNL     1       6.576  -6.568  -0.212  0.00  0.00    +0.000 A 
ATOM     33  O   UNL     1       5.563  -5.878  -0.223  0.00  0.00    +0.000 OA
ATOM     34  C   UNL     1       7.213  -7.104  -1.400  0.00  0.00    +0.000 A 
ATOM     35  H   UNL     1       6.815  -6.483   1.803  0.00  0.00    +0.000 HD
ENDBRANCH  22  25
ENDBRANCH  20  21
ENDBRANCH   4  20
TORSDOF 6
