REMARK  Name = 
REMARK  6 active torsions:
REMARK  status: ('A' for Active; 'I' for Inactive)
REMARK    1  A    between atoms: C_7  and  N_8
REMARK    2  A    between atoms: N_8  and  C_9
REMARK    3  A    between atoms: C_9  and  C_10
REMARK    4  A    between atoms: C_10  and  C_11
REMARK    5  A    between atoms: C_15  and  N_16
REMARK    6  A    between atoms: N_16  and  C_17
REMARK                            x       y       z     vdW  Elec       q    Type
REMARK                         _______ _______ _______ _____ _____    ______ ____
ROOT
ATOM      1  C   UNL     1       7.192  -3.750   0.082  0.00  0.00    +0.000 C 
ENDROOT
BRANCH   1   2
ATOM      2  C   UNL     1       8.705  -3.835  -0.023  0.00  0.00    +0.000 A 
ATOM      3  C   UNL     1       9.533  -2.704  -0.068  0.00  0.00    +0.000 A 
ATOM      4  C   UNL     1      10.918  -2.838  -0.138  0.00  0.00    +0.000 A 
ATOM      5  C   UNL     1      11.496  -4.104  -0.174  0.00  0.00    +0.000 A 
ATOM      6  C   UNL     1      10.703  -5.255  -0.167  0.00  0.00    +0.000 A 
ATOM      7  C   UNL     1       9.311  -5.108  -0.066  0.00  0.00    +0.000 A 
BRANCH   6   8
ATOM      8  N   UNL     1      11.341  -6.517  -0.169  0.00  0.00    +0.000 N 
ATOM      9  H   UNL     1      12.321  -6.426  -0.430  0.00  0.00    +0.000 HD
BRANCH   8  10
ATOM     10  C   UNL     1      10.756  -7.740  -0.659  0.00  0.00    +0.000 C 
ATOM     11  C   UNL     1      11.713  -8.940  -0.583  0.00  0.00    +0.000 C 
ATOM     12  O   UNL     1      11.564  -9.198  -2.002  0.00  0.00    +0.000 OA
ATOM     13  C   UNL     1      10.890  -7.926  -2.177  0.00  0.00    +0.000 C 
ENDBRANCH   8  10
ENDBRANCH   6   8
ENDBRANCH   1   2
BRANCH   1  14
ATOM     14  C   UNL     1       6.611  -2.327   0.094  0.00  0.00    +0.000 C 
BRANCH  14  15
ATOM     15  N   UNL     1       5.146  -2.334   0.164  0.00  0.00    +0.000 N 
ATOM     16  H   UNL     1       4.727  -3.001  -0.484  0.00  0.00    +0.000 HD
BRANCH  15  23
ATOM     17  O   UNL     1       1.204   0.152  -0.642  0.00  0.00    +0.000 OA
ATOM     18  N   UNL     1       2.407   0.138  -0.235  0.00  0.00    +0.000 N 
ATOM     19  C   UNL     1       2.998   1.289   0.230  0.00  0.00    +0.000 A 
ATOM     20  C   UNL     1       4.307   1.268   0.680  0.00  0.00    +0.000 A 
ATOM     21 CL   UNL     1       5.026   2.708   1.284  0.00  0.00    +0.000 Cl
ATOM     22  C   UNL     1       5.041   0.083   0.651  0.00  0.00    +0.000 A 
ATOM     23  C   UNL     1       4.482  -1.095   0.149  0.00  0.00    +0.000 A 
ATOM     24  C   UNL     1       3.144  -1.040  -0.255  0.00  0.00    +0.000 A 
ENDBRANCH  15  23
ENDBRANCH  14  15
ENDBRANCH   1  14
TORSDOF 6
