REMARK  Name = 
REMARK  7 active torsions:
REMARK  status: ('A' for Active; 'I' for Inactive)
REMARK    1  A    between atoms: C_1  and  C_2
REMARK    2  A    between atoms: C_4  and  N_5
REMARK    3  A    between atoms: C_12  and  C_13
REMARK    4  A    between atoms: C_13  and  C_14
REMARK    5  A    between atoms: C_14  and  N_15
REMARK    6  A    between atoms: N_15  and  C_16
REMARK    7  A    between atoms: C_21  and  C_22
REMARK                            x       y       z     vdW  Elec       q    Type
REMARK                         _______ _______ _______ _____ _____    ______ ____
ROOT
ATOM      1  C   UNL     1      -2.567   2.529   0.111  0.00  0.00    +0.000 C 
ENDROOT
BRANCH   1   2
ATOM      2  N   UNL     1      -3.227   3.839   0.139  0.00  0.00    +0.000 N 
ATOM      3  H   UNL     1      -2.943   4.447  -0.629  0.00  0.00    +0.000 HD
BRANCH   2   4
ATOM      4  C   UNL     1      -4.646   3.758   0.217  0.00  0.00    +0.000 A 
ATOM      5  C   UNL     1      -5.303   2.723   0.909  0.00  0.00    +0.000 A 
ATOM      6  C   UNL     1      -6.693   2.661   0.996  0.00  0.00    +0.000 A 
ATOM      7  C   UNL     1      -7.461   3.665   0.430  0.00  0.00    +0.000 A 
ATOM      8  F   UNL     1      -8.795   3.564   0.535  0.00  0.00    +0.000 F 
ATOM      9  C   UNL     1      -6.855   4.742  -0.216  0.00  0.00    +0.000 A 
ATOM     10  C   UNL     1      -5.445   4.790  -0.304  0.00  0.00    +0.000 A 
BRANCH   9  11
ATOM     11  C   UNL     1      -7.658   5.841  -0.821  0.00  0.00    +0.000 C 
ATOM     12  N   UNL     1      -9.019   5.783  -0.708  0.00  0.00    +0.000 N 
ATOM     13  O   UNL     1      -7.120   6.770  -1.408  0.00  0.00    +0.000 OA
ATOM     14  H   UNL     1      -9.508   5.031  -0.236  0.00  0.00    +0.000 HD
ATOM     15  H   UNL     1      -9.566   6.526  -1.122  0.00  0.00    +0.000 HD
ENDBRANCH   9  11
ENDBRANCH   2   4
ENDBRANCH   1   2
BRANCH   1  16
ATOM     16  C   UNL     1      -1.032   2.522  -0.002  0.00  0.00    +0.000 C 
BRANCH  16  23
ATOM     17  C   UNL     1       1.963   1.939  -0.183  0.00  0.00    +0.000 C 
ATOM     18  C   UNL     1       0.933   0.847  -0.075  0.00  0.00    +0.000 A 
ATOM     19  C   UNL     1       1.388  -0.488  -0.053  0.00  0.00    +0.000 A 
ATOM     20  C   UNL     1       0.468  -1.530   0.008  0.00  0.00    +0.000 A 
ATOM     21  N   UNL     1      -0.859  -1.311   0.063  0.00  0.00    +0.000 NA
ATOM     22  C   UNL     1      -1.275  -0.026   0.061  0.00  0.00    +0.000 A 
ATOM     23  C   UNL     1      -0.450   1.103  -0.007  0.00  0.00    +0.000 A 
BRANCH  20  24
ATOM     24  N   UNL     1       0.895  -2.878   0.002  0.00  0.00    +0.000 N 
ATOM     25  C   UNL     1       2.165  -3.387   0.019  0.00  0.00    +0.000 A 
ATOM     26  N   UNL     1       2.128  -4.703  -0.019  0.00  0.00    +0.000 NA
ATOM     27  N   UNL     1       0.808  -5.079  -0.049  0.00  0.00    +0.000 NA
ATOM     28  C   UNL     1       0.083  -3.984  -0.026  0.00  0.00    +0.000 A 
ENDBRANCH  20  24
ENDBRANCH  16  23
ENDBRANCH   1  16
TORSDOF 6
