REMARK  Name = 
REMARK  5 active torsions:
REMARK  status: ('A' for Active; 'I' for Inactive)
REMARK    1  A    between atoms: N_1  and  C_2
REMARK    2  A    between atoms: C_2  and  C_3
REMARK    3  A    between atoms: C_6  and  C_7
REMARK    4  A    between atoms: C_7  and  N_8
REMARK    5  A    between atoms: C_14  and  C_15
REMARK                            x       y       z     vdW  Elec       q    Type
REMARK                         _______ _______ _______ _____ _____    ______ ____
ROOT
ATOM      1  N   UNL     1       0.421  -5.093   1.723  0.00  0.00    +0.000 N 
ATOM      2  C   UNL     1       0.810  -6.235   2.380  0.00  0.00    +0.000 A 
ATOM      3  C   UNL     1       0.615  -7.300   1.531  0.00  0.00    +0.000 A 
ATOM      4  C   UNL     1       0.003  -6.803   0.348  0.00  0.00    +0.000 A 
ATOM      5  C   UNL     1      -0.437  -7.398  -0.837  0.00  0.00    +0.000 A 
ATOM      6  N   UNL     1      -1.060  -6.663  -1.790  0.00  0.00    +0.000 NA
ATOM      7  C   UNL     1      -1.249  -5.326  -1.599  0.00  0.00    +0.000 A 
ATOM      8  C   UNL     1      -0.789  -4.649  -0.465  0.00  0.00    +0.000 A 
ATOM      9  C   UNL     1      -0.155  -5.424   0.510  0.00  0.00    +0.000 A 
ENDROOT
BRANCH   7  10
ATOM     10  C   UNL     1      -2.015  -4.525  -2.645  0.00  0.00    +0.000 C 
ATOM     11  F   UNL     1      -2.443  -5.249  -3.718  0.00  0.00    +0.000 F 
ATOM     12  F   UNL     1      -3.135  -3.935  -2.128  0.00  0.00    +0.000 F 
ATOM     13  F   UNL     1      -1.276  -3.498  -3.162  0.00  0.00    +0.000 F 
ENDBRANCH   7  10
BRANCH   1  14
ATOM     14  C   UNL     1       0.630  -3.743   2.239  0.00  0.00    +0.000 C 
BRANCH  14  18
ATOM     15  C   UNL     1       3.076  -0.994   0.931  0.00  0.00    +0.000 C 
ATOM     16  C   UNL     1       2.818  -2.352   0.261  0.00  0.00    +0.000 C 
ATOM     17  C   UNL     1       2.989  -3.522   1.226  0.00  0.00    +0.000 C 
ATOM     18  C   UNL     1       2.117  -3.402   2.490  0.00  0.00    +0.000 C 
ATOM     19  C   UNL     1       2.268  -2.016   3.141  0.00  0.00    +0.000 C 
ATOM     20  C   UNL     1       2.162  -0.848   2.158  0.00  0.00    +0.000 C 
BRANCH  15  21
ATOM     21  C   UNL     1       4.557  -0.761   1.301  0.00  0.00    +0.000 C 
BRANCH  21  22
ATOM     22  N   UNL     1       5.420  -0.780   0.124  0.00  0.00    +0.000 NA
ATOM     23  H   UNL     1       6.363  -0.496   0.387  0.00  0.00    +0.000 HD
ATOM     24  H   UNL     1       5.094  -0.095  -0.557  0.00  0.00    +0.000 HD
ENDBRANCH  21  22
ENDBRANCH  15  21
ENDBRANCH  14  18
ENDBRANCH   1  14
TORSDOF 5
