REMARK  Name = 
REMARK  7 active torsions:
REMARK  status: ('A' for Active; 'I' for Inactive)
REMARK    1  A    between atoms: C_1  and  O_2
REMARK    2  A    between atoms: O_2  and  C_3
REMARK    3  A    between atoms: C_6  and  C_7
REMARK    4  A    between atoms: C_11  and  C_12
REMARK    5  A    between atoms: C_12  and  N_13
REMARK    6  A    between atoms: N_13  and  C_14
REMARK    7  A    between atoms: C_17  and  C_18
REMARK                            x       y       z     vdW  Elec       q    Type
REMARK                         _______ _______ _______ _____ _____    ______ ____
ROOT
ATOM      1  C   UNL     1       6.797  -0.410   7.344  0.00  0.00    +0.000 C 
ATOM      2  C   UNL     1       6.341  -0.825   8.733  0.00  0.00    +0.000 C 
ATOM      3  C   UNL     1       7.666  -0.159   8.572  0.00  0.00    +0.000 C 
ENDROOT
BRANCH   1   8
ATOM      4  C   UNL     1       6.253   3.024   5.954  0.00  0.00    +0.000 A 
ATOM      5  C   UNL     1       4.905   3.030   5.604  0.00  0.00    +0.000 A 
ATOM      6  C   UNL     1       4.151   1.882   5.801  0.00  0.00    +0.000 A 
ATOM      7  C   UNL     1       4.758   0.761   6.353  0.00  0.00    +0.000 A 
ATOM      8  C   UNL     1       6.108   0.802   6.703  0.00  0.00    +0.000 A 
ATOM      9  N   UNL     1       6.845   1.926   6.488  0.00  0.00    +0.000 NA
BRANCH   4  13
ATOM     10  C   UNL     1       8.718   6.395   5.603  0.00  0.00    +0.000 A 
ATOM     11  N   UNL     1       9.022   5.505   6.555  0.00  0.00    +0.000 NA
ATOM     12  C   UNL     1       8.220   4.418   6.621  0.00  0.00    +0.000 A 
ATOM     13  C   UNL     1       7.120   4.195   5.810  0.00  0.00    +0.000 A 
ATOM     14  C   UNL     1       6.927   5.189   4.868  0.00  0.00    +0.000 A 
ATOM     15  N   UNL     1       7.695   6.291   4.741  0.00  0.00    +0.000 NA
BRANCH  10  17
ATOM     16  C   UNL     1       9.539   8.110   4.283  0.00  0.00    +0.000 C 
ATOM     17  O   UNL     1       9.512   7.519   5.576  0.00  0.00    +0.000 OA
ENDBRANCH  10  17
ENDBRANCH   4  13
ENDBRANCH   1   8
BRANCH   1  18
ATOM     18  N   UNL     1       7.366  -1.376   6.373  0.00  0.00    +0.000 N 
ATOM     19  H   UNL     1       8.012  -0.959   5.705  0.00  0.00    +0.000 HD
BRANCH  18  20
ATOM     20  C   UNL     1       6.636  -2.448   5.826  0.00  0.00    +0.000 A 
ATOM     21  C   UNL     1       7.214  -3.228   4.818  0.00  0.00    +0.000 A 
ATOM     22  C   UNL     1       6.551  -4.354   4.325  0.00  0.00    +0.000 A 
ATOM     23  C   UNL     1       5.321  -4.680   4.877  0.00  0.00    +0.000 A 
ATOM     24  N   UNL     1       4.725  -3.971   5.869  0.00  0.00    +0.000 NA
ATOM     25  C   UNL     1       5.412  -2.894   6.323  0.00  0.00    +0.000 A 
BRANCH  23  26
ATOM     26  C   UNL     1       4.568  -5.878   4.393  0.00  0.00    +0.000 C 
ATOM     27  N   UNL     1       3.370  -6.092   5.028  0.00  0.00    +0.000 N 
ATOM     28  O   UNL     1       4.975  -6.613   3.506  0.00  0.00    +0.000 OA
ATOM     29  H   UNL     1       3.085  -5.462   5.770  0.00  0.00    +0.000 HD
ATOM     30  H   UNL     1       2.805  -6.886   4.774  0.00  0.00    +0.000 HD
ENDBRANCH  23  26
ENDBRANCH  18  20
ENDBRANCH   1  18
TORSDOF 6
