REMARK  Name = 
REMARK  6 active torsions:
REMARK  status: ('A' for Active; 'I' for Inactive)
REMARK    1  A    between atoms: C_2  and  C_25
REMARK    2  A    between atoms: N_3  and  C_4
REMARK    3  A    between atoms: C_4  and  C_5
REMARK    4  A    between atoms: C_8  and  C_9
REMARK    5  A    between atoms: C_9  and  N_10
REMARK    6  A    between atoms: C_11  and  C_13
REMARK                            x       y       z     vdW  Elec       q    Type
REMARK                         _______ _______ _______ _____ _____    ______ ____
ROOT
ATOM      1  C   UNL     1       3.310   3.494  -1.161  0.00  0.00    +0.000 A 
ATOM      2  C   UNL     1       2.828   4.810  -1.128  0.00  0.00    +0.000 A 
ATOM      3  C   UNL     1       3.673   5.894  -1.403  0.00  0.00    +0.000 A 
ATOM      4  C   UNL     1       5.019   5.685  -1.731  0.00  0.00    +0.000 A 
ATOM      5  C   UNL     1       5.499   4.368  -1.763  0.00  0.00    +0.000 A 
ATOM      6  C   UNL     1       4.653   3.284  -1.498  0.00  0.00    +0.000 A 
ENDROOT
BRANCH   1   7
ATOM      7  C   UNL     1       2.396   2.342  -0.832  0.00  0.00    +0.000 C 
BRANCH   7  10
ATOM      8  O   UNL     1       0.537   0.292  -0.800  0.00  0.00    +0.000 OA
ATOM      9  C   UNL     1       0.797   0.807  -1.890  0.00  0.00    +0.000 C 
ATOM     10  N   UNL     1       1.719   1.827  -1.996  0.00  0.00    +0.000 N 
ATOM     11  H   UNL     1       1.904   2.236  -2.903  0.00  0.00    +0.000 HD
BRANCH   9  12
ATOM     12  C   UNL     1       0.161   0.392  -3.121  0.00  0.00    +0.000 A 
ATOM     13  C   UNL     1      -0.817  -0.573  -3.278  0.00  0.00    +0.000 A 
ATOM     14  N   UNL     1      -1.261  -0.783  -4.571  0.00  0.00    +0.000 NA
ATOM     15  C   UNL     1      -0.614   0.022  -5.383  0.00  0.00    +0.000 A 
ATOM     16  S   UNL     1       0.537   1.063  -4.656  0.00  0.00    +0.000 S 
ENDBRANCH   9  12
ENDBRANCH   7  10
ENDBRANCH   1   7
BRANCH   4  17
ATOM     17  C   UNL     1       5.952   6.833  -2.040  0.00  0.00    +0.000 C 
BRANCH  17  18
ATOM     18  N   UNL     1       6.623   7.320  -0.862  0.00  0.00    +0.000 N 
ATOM     19  C   UNL     1       7.504   8.376  -0.920  0.00  0.00    +0.000 C 
ATOM     20  O   UNL     1       7.743   8.974  -1.963  0.00  0.00    +0.000 OA
ATOM     21  H   UNL     1       6.695   6.675  -0.080  0.00  0.00    +0.000 HD
BRANCH  19  22
ATOM     22  C   UNL     1       8.092   8.792   0.359  0.00  0.00    +0.000 A 
ATOM     23  C   UNL     1       8.502  10.105   0.546  0.00  0.00    +0.000 A 
ATOM     24  S   UNL     1       9.111  10.415   2.111  0.00  0.00    +0.000 S 
ATOM     25  C   UNL     1       8.907   8.789   2.572  0.00  0.00    +0.000 A 
ATOM     26  N   UNL     1       9.276   8.357   3.807  0.00  0.00    +0.000 NA
ATOM     27  C   UNL     1       9.093   7.095   4.010  0.00  0.00    +0.000 A 
ATOM     28  N   UNL     1       8.564   6.227   3.091  0.00  0.00    +0.000 N 
ATOM     29  C   UNL     1       8.133   6.627   1.850  0.00  0.00    +0.000 A 
ATOM     30  O   UNL     1       7.594   5.839   1.079  0.00  0.00    +0.000 OA
ATOM     31  C   UNL     1       8.349   8.031   1.560  0.00  0.00    +0.000 A 
ATOM     32  H   UNL     1       8.429   5.251   3.315  0.00  0.00    +0.000 HD
ENDBRANCH  19  22
ENDBRANCH  17  18
ENDBRANCH   4  17
TORSDOF 6
