REMARK  Name = 
REMARK  6 active torsions:
REMARK  status: ('A' for Active; 'I' for Inactive)
REMARK    1  A    between atoms: C_2  and  C_4
REMARK    2  A    between atoms: C_9  and  C_10
REMARK    3  A    between atoms: N_12  and  C_13
REMARK    4  A    between atoms: C_13  and  C_14
REMARK    5  A    between atoms: C_17  and  C_18
REMARK    6  A    between atoms: C_18  and  C_19
REMARK                            x       y       z     vdW  Elec       q    Type
REMARK                         _______ _______ _______ _____ _____    ______ ____
ROOT
ATOM      1  C   UNL     1       3.701   4.849   4.172  0.00  0.00    +0.000 C 
ATOM      2  O   UNL     1       3.335   6.016   4.290  0.00  0.00    +0.000 OA
ATOM      3  N   UNL     1       3.934   4.055   5.262  0.00  0.00    +0.000 N 
ATOM      4  H   UNL     1       4.274   3.106   5.146  0.00  0.00    +0.000 HD
ENDROOT
BRANCH   1  10
ATOM      5  C   UNL     1       4.933   0.631   1.086  0.00  0.00    +0.000 A 
ATOM      6  N   UNL     1       4.570   1.632   0.344  0.00  0.00    +0.000 NA
ATOM      7  C   UNL     1       4.280   2.761   1.048  0.00  0.00    +0.000 A 
ATOM      8  S   UNL     1       3.809   4.181   0.241  0.00  0.00    +0.000 S 
ATOM      9  C   UNL     1       3.617   5.016   1.712  0.00  0.00    +0.000 A 
ATOM     10  C   UNL     1       3.888   4.248   2.839  0.00  0.00    +0.000 A 
ATOM     11  C   UNL     1       4.319   2.929   2.424  0.00  0.00    +0.000 A 
ATOM     12  C   UNL     1       4.758   1.781   3.201  0.00  0.00    +0.000 A 
ATOM     13  O   UNL     1       4.881   1.780   4.420  0.00  0.00    +0.000 OA
ATOM     14  N   UNL     1       5.046   0.668   2.455  0.00  0.00    +0.000 N 
ATOM     15  H   UNL     1       5.354  -0.167   2.941  0.00  0.00    +0.000 HD
BRANCH   5  17
ATOM     16  N   UNL     1       5.177  -0.793  -0.883  0.00  0.00    +0.000 N 
ATOM     17  C   UNL     1       5.271  -0.721   0.475  0.00  0.00    +0.000 C 
ATOM     18  O   UNL     1       5.596  -1.647   1.202  0.00  0.00    +0.000 OA
ATOM     19  H   UNL     1       5.393  -1.660  -1.354  0.00  0.00    +0.000 HD
ATOM     20  H   UNL     1       4.922   0.027  -1.422  0.00  0.00    +0.000 HD
ENDBRANCH   5  17
ENDBRANCH   1  10
BRANCH   3  21
ATOM     21  C   UNL     1       3.761   4.511   6.621  0.00  0.00    +0.000 C 
BRANCH  21  22
ATOM     22  C   UNL     1       2.762   3.655   7.359  0.00  0.00    +0.000 A 
ATOM     23  C   UNL     1       3.167   2.487   8.018  0.00  0.00    +0.000 A 
ATOM     24  C   UNL     1       2.241   1.704   8.715  0.00  0.00    +0.000 A 
ATOM     25  C   UNL     1       0.888   2.068   8.763  0.00  0.00    +0.000 A 
ATOM     26  C   UNL     1       0.482   3.228   8.089  0.00  0.00    +0.000 A 
ATOM     27  C   UNL     1       1.407   4.007   7.386  0.00  0.00    +0.000 A 
BRANCH  25  28
ATOM     28  C   UNL     1      -0.109   1.245   9.550  0.00  0.00    +0.000 C 
BRANCH  28  29
ATOM     29  C   UNL     1      -0.256   1.688  10.987  0.00  0.00    +0.000 A 
ATOM     30  C   UNL     1      -1.196   2.660  11.345  0.00  0.00    +0.000 A 
ATOM     31  C   UNL     1      -1.253   3.079  12.666  0.00  0.00    +0.000 A 
ATOM     32  N   UNL     1      -0.458   2.597  13.644  0.00  0.00    +0.000 NA
ATOM     33  C   UNL     1       0.436   1.653  13.282  0.00  0.00    +0.000 A 
ATOM     34  C   UNL     1       0.573   1.172  11.988  0.00  0.00    +0.000 A 
ENDBRANCH  28  29
ENDBRANCH  25  28
ENDBRANCH  21  22
ENDBRANCH   3  21
TORSDOF 6
