REMARK  Name = 
REMARK  9 active torsions:
REMARK  status: ('A' for Active; 'I' for Inactive)
REMARK    1  A    between atoms: C_1  and  C_2
REMARK    2  A    between atoms: C_2  and  N_3
REMARK    3  A    between atoms: C_2  and  C_21
REMARK    4  A    between atoms: N_3  and  C_4
REMARK    5  A    between atoms: C_4  and  C_5
REMARK    6  A    between atoms: C_8  and  C_9
REMARK    7  A    between atoms: C_9  and  O_10
REMARK    8  A    between atoms: O_10  and  C_11
REMARK    9  A    between atoms: C_11  and  C_12
REMARK                            x       y       z     vdW  Elec       q    Type
REMARK                         _______ _______ _______ _____ _____    ______ ____
ROOT
ATOM      1  C   UNL     1       8.248   1.843   5.416  0.00  0.00    +0.000 C 
ENDROOT
BRANCH   1   2
ATOM      2  C   UNL     1       8.377   0.636   6.377  0.00  0.00    +0.000 C 
ATOM      3  C   UNL     1       8.050   1.019   7.834  0.00  0.00    +0.000 C 
ATOM      4  C   UNL     1       6.556   1.229   8.061  0.00  0.00    +0.000 C 
ATOM      5  C   UNL     1       5.730   0.010   7.624  0.00  0.00    +0.000 C 
ATOM      6  C   UNL     1       6.042  -0.423   6.194  0.00  0.00    +0.000 C 
ATOM      7  C   UNL     1       7.533  -0.567   5.923  0.00  0.00    +0.000 C 
BRANCH   5   8
ATOM      8  C   UNL     1       5.887  -1.156   8.618  0.00  0.00    +0.000 C 
BRANCH   8   9
ATOM      9  O   UNL     1       5.518  -0.768   9.939  0.00  0.00    +0.000 OA
BRANCH   9  10
ATOM     10  C   UNL     1       4.133  -0.437  10.040  0.00  0.00    +0.000 C 
BRANCH  10  11
ATOM     11  C   UNL     1       3.815  -0.043  11.453  0.00  0.00    +0.000 A 
ATOM     12  C   UNL     1       4.468   1.046  12.035  0.00  0.00    +0.000 A 
ATOM     13  C   UNL     1       4.149   1.398  13.340  0.00  0.00    +0.000 A 
ATOM     14  C   UNL     1       3.188   0.660  14.018  0.00  0.00    +0.000 A 
ATOM     15 CL   UNL     1       2.777   1.041  15.639  0.00  0.00    +0.000 Cl
ATOM     16  C   UNL     1       2.570  -0.392  13.359  0.00  0.00    +0.000 A 
ATOM     17  N   UNL     1       2.854  -0.757  12.091  0.00  0.00    +0.000 NA
ENDBRANCH  10  11
ENDBRANCH   9  10
ENDBRANCH   8   9
ENDBRANCH   5   8
ENDBRANCH   1   2
BRANCH   1  18
ATOM     18  N   UNL     1       9.207   2.861   5.839  0.00  0.00    +0.000 NA
ATOM     19  H   UNL     1      10.147   2.466   5.803  0.00  0.00    +0.000 HD
BRANCH  18  21
ATOM     20  C   UNL     1       7.855   4.838   5.154  0.00  0.00    +0.000 C 
ATOM     21  C   UNL     1       9.203   4.118   5.082  0.00  0.00    +0.000 C 
BRANCH  21  22
ATOM     22  C   UNL     1      10.308   4.985   5.678  0.00  0.00    +0.000 A 
ATOM     23  C   UNL     1      10.679   4.994   7.017  0.00  0.00    +0.000 A 
ATOM     24  S   UNL     1      12.013   6.005   7.349  0.00  0.00    +0.000 S 
ATOM     25  C   UNL     1      12.090   6.529   5.733  0.00  0.00    +0.000 A 
ATOM     26  N   UNL     1      13.022   7.435   5.330  0.00  0.00    +0.000 NA
ATOM     27  C   UNL     1      12.934   7.767   4.085  0.00  0.00    +0.000 A 
ATOM     28  N   UNL     1      12.002   7.277   3.206  0.00  0.00    +0.000 N 
ATOM     29  C   UNL     1      11.049   6.348   3.563  0.00  0.00    +0.000 A 
ATOM     30  O   UNL     1      10.219   5.928   2.757  0.00  0.00    +0.000 OA
ATOM     31  C   UNL     1      11.114   5.937   4.953  0.00  0.00    +0.000 A 
ATOM     32  H   UNL     1      11.979   7.594   2.249  0.00  0.00    +0.000 HD
ENDBRANCH  21  22
ENDBRANCH  18  21
ENDBRANCH   1  18
TORSDOF 8
