REMARK  Name = 
REMARK  9 active torsions:
REMARK  status: ('A' for Active; 'I' for Inactive)
REMARK    1  A    between atoms: C_1  and  C_2
REMARK    2  A    between atoms: C_2  and  N_3
REMARK    3  A    between atoms: C_2  and  C_16
REMARK    4  A    between atoms: C_4  and  C_6
REMARK    5  A    between atoms: C_19  and  C_20
REMARK    6  A    between atoms: C_20  and  N_21
REMARK    7  A    between atoms: N_21  and  C_22
REMARK    8  A    between atoms: C_22  and  C_23
REMARK    9  A    between atoms: C_22  and  C_24
REMARK                            x       y       z     vdW  Elec       q    Type
REMARK                         _______ _______ _______ _____ _____    ______ ____
ROOT
ATOM      1  C   UNL     1      12.321  -5.640   6.076  0.00  0.00    +0.000 C 
ATOM      2  C   UNL     1      12.143  -4.124   6.170  0.00  0.00    +0.000 C 
ENDROOT
BRANCH   2   3
ATOM      3  C   UNL     1      10.715  -3.661   6.148  0.00  0.00    +0.000 A 
ATOM      4  C   UNL     1      10.384  -2.430   5.619  0.00  0.00    +0.000 A 
ATOM      5  N   UNL     1       9.146  -1.905   5.644  0.00  0.00    +0.000 NA
ATOM      6  C   UNL     1       8.184  -2.670   6.209  0.00  0.00    +0.000 A 
ATOM      7  N   UNL     1       8.401  -3.868   6.784  0.00  0.00    +0.000 NA
ATOM      8  C   UNL     1       9.663  -4.335   6.736  0.00  0.00    +0.000 A 
BRANCH   6   9
ATOM      9  C   UNL     1       6.763  -2.124   6.204  0.00  0.00    +0.000 C 
BRANCH   9  10
ATOM     10  N   UNL     1       6.420  -1.248   5.051  0.00  0.00    +0.000 NA
ATOM     11  H   UNL     1       7.150  -0.532   5.034  0.00  0.00    +0.000 HD
BRANCH  10  12
ATOM     12  C   UNL     1       6.522  -1.985   3.765  0.00  0.00    +0.000 C 
ATOM     13  C   UNL     1       6.326  -0.993   2.611  0.00  0.00    +0.000 C 
BRANCH  12  14
ATOM     14  C   UNL     1       5.575  -3.176   3.680  0.00  0.00    +0.000 A 
ATOM     15  C   UNL     1       4.192  -3.012   3.732  0.00  0.00    +0.000 A 
ATOM     16  C   UNL     1       3.380  -4.142   3.783  0.00  0.00    +0.000 A 
ATOM     17  C   UNL     1       3.965  -5.402   3.795  0.00  0.00    +0.000 A 
ATOM     18  C   UNL     1       5.345  -5.482   3.743  0.00  0.00    +0.000 A 
ATOM     19  N   UNL     1       6.156  -4.405   3.678  0.00  0.00    +0.000 NA
ENDBRANCH  12  14
ENDBRANCH  10  12
ENDBRANCH   9  10
ENDBRANCH   6   9
ENDBRANCH   2   3
BRANCH   2  20
ATOM     20  N   UNL     1      12.762  -3.612   7.376  0.00  0.00    +0.000 N 
ATOM     21  C   UNL     1      14.087  -3.274   7.453  0.00  0.00    +0.000 C 
ATOM     22  O   UNL     1      14.832  -3.326   6.476  0.00  0.00    +0.000 OA
ATOM     23  H   UNL     1      12.226  -3.687   8.235  0.00  0.00    +0.000 HD
BRANCH  21  24
ATOM     24  C   UNL     1      14.550  -2.786   8.751  0.00  0.00    +0.000 A 
ATOM     25  C   UNL     1      15.628  -1.913   8.817  0.00  0.00    +0.000 A 
ATOM     26  S   UNL     1      16.031  -1.448  10.408  0.00  0.00    +0.000 S 
ATOM     27  C   UNL     1      14.808  -2.430  11.065  0.00  0.00    +0.000 A 
ATOM     28  N   UNL     1      14.634  -2.527  12.411  0.00  0.00    +0.000 NA
ATOM     29  C   UNL     1      13.693  -3.334  12.771  0.00  0.00    +0.000 A 
ATOM     30  N   UNL     1      12.899  -4.044  11.908  0.00  0.00    +0.000 N 
ATOM     31  C   UNL     1      12.995  -3.929  10.541  0.00  0.00    +0.000 A 
ATOM     32  O   UNL     1      12.196  -4.487   9.794  0.00  0.00    +0.000 OA
ATOM     33  C   UNL     1      14.073  -3.074  10.085  0.00  0.00    +0.000 A 
ATOM     34  H   UNL     1      12.155  -4.631  12.257  0.00  0.00    +0.000 HD
ENDBRANCH  21  24
ENDBRANCH   2  20
TORSDOF 7
