REMARK  Name = 
REMARK  5 active torsions:
REMARK  status: ('A' for Active; 'I' for Inactive)
REMARK    1  A    between atoms: C_2  and  C_4
REMARK    2  A    between atoms: N_8  and  C_9
REMARK    3  A    between atoms: C_9  and  C_10
REMARK    4  A    between atoms: C_10  and  O_11
REMARK    5  A    between atoms: C_10  and  C_12
REMARK                            x       y       z     vdW  Elec       q    Type
REMARK                         _______ _______ _______ _____ _____    ______ ____
ROOT
ATOM      1  C   UNL     1       3.211   0.666  -0.976  0.00  0.00    +0.000 A 
ATOM      2  C   UNL     1       4.558   0.441  -1.105  0.00  0.00    +0.000 A 
ATOM      3  N   UNL     1       5.358   1.136  -1.943  0.00  0.00    +0.000 NA
ATOM      4  C   UNL     1       4.783   2.102  -2.679  0.00  0.00    +0.000 A 
ATOM      5  N   UNL     1       5.570   2.889  -3.507  0.00  0.00    +0.000 N 
ATOM      6  N   UNL     1       3.470   2.369  -2.659  0.00  0.00    +0.000 NA
ATOM      7  C   UNL     1       2.705   1.636  -1.814  0.00  0.00    +0.000 A 
ATOM      8  H   UNL     1       4.946   3.416  -4.110  0.00  0.00    +0.000 HD
ENDROOT
BRANCH   1  10
ATOM      9  N   UNL     1       2.917  -0.579   1.086  0.00  0.00    +0.000 N 
ATOM     10  C   UNL     1       2.344  -0.065  -0.045  0.00  0.00    +0.000 C 
ATOM     11  O   UNL     1       1.146  -0.180  -0.257  0.00  0.00    +0.000 OA
ATOM     12  H   UNL     1       2.284  -0.992   1.761  0.00  0.00    +0.000 HD
ATOM     13  H   UNL     1       3.824  -0.289   1.433  0.00  0.00    +0.000 HD
ENDBRANCH   1  10
BRANCH   5  14
ATOM     14  C   UNL     1       6.640   2.150  -4.175  0.00  0.00    +0.000 C 
BRANCH  14  15
ATOM     15  C   UNL     1       7.383   3.029  -5.220  0.00  0.00    +0.000 C 
BRANCH  15  16
ATOM     16  C   UNL     1       8.587   2.366  -5.861  0.00  0.00    +0.000 A 
ATOM     17  C   UNL     1       9.700   3.115  -6.270  0.00  0.00    +0.000 A 
ATOM     18  C   UNL     1      10.796   2.489  -6.860  0.00  0.00    +0.000 A 
ATOM     19  C   UNL     1      10.744   1.121  -7.045  0.00  0.00    +0.000 A 
ATOM     20  N   UNL     1       9.685   0.362  -6.698  0.00  0.00    +0.000 NA
ATOM     21  C   UNL     1       8.635   0.999  -6.128  0.00  0.00    +0.000 A 
ENDBRANCH  15  16
BRANCH  15  22
ATOM     22  O   UNL     1       7.807   4.257  -4.607  0.00  0.00    +0.000 OA
ATOM     23  H   UNL     1       8.208   4.020  -3.752  0.00  0.00    +0.000 HD
ENDBRANCH  15  22
ENDBRANCH  14  15
ENDBRANCH   5  14
TORSDOF 5
