REMARK  Name = 
REMARK  5 active torsions:
REMARK  status: ('A' for Active; 'I' for Inactive)
REMARK    1  A    between atoms: N_5  and  C_6
REMARK    2  A    between atoms: C_6  and  C_7
REMARK    3  A    between atoms: C_7  and  C_8
REMARK    4  A    between atoms: C_12  and  O_13
REMARK    5  A    between atoms: O_13  and  C_14
REMARK                            x       y       z     vdW  Elec       q    Type
REMARK                         _______ _______ _______ _____ _____    ______ ____
ROOT
ATOM      1  C   UNL     1      -0.704  -6.170   0.041  0.00  0.00    +0.000 A 
ATOM      2  C   UNL     1      -1.377  -7.386   0.123  0.00  0.00    +0.000 A 
ATOM      3  N   UNL     1      -0.737  -8.580   0.148  0.00  0.00    +0.000 NA
ATOM      4  C   UNL     1       0.615  -8.511   0.094  0.00  0.00    +0.000 A 
ATOM      5  C   UNL     1       1.295  -7.309  -0.009  0.00  0.00    +0.000 A 
ATOM      6  N   UNL     1       0.654  -6.123  -0.040  0.00  0.00    +0.000 NA
ENDROOT
BRANCH   1   7
ATOM      7  C   UNL     1      -1.473  -4.870   0.056  0.00  0.00    +0.000 C 
BRANCH   7   8
ATOM      8  C   UNL     1      -0.532  -3.668   0.024  0.00  0.00    +0.000 C 
BRANCH   8  13
ATOM      9  C   UNL     1       0.588   1.300  -0.168  0.00  0.00    +0.000 A 
ATOM     10  C   UNL     1       1.397   0.178  -0.155  0.00  0.00    +0.000 A 
ATOM     11  C   UNL     1       0.805  -1.079  -0.084  0.00  0.00    +0.000 A 
ATOM     12  C   UNL     1      -0.582  -1.195  -0.026  0.00  0.00    +0.000 A 
ATOM     13  N   UNL     1      -1.233  -2.402   0.048  0.00  0.00    +0.000 N 
ATOM     14  N   UNL     1      -1.375  -0.107  -0.041  0.00  0.00    +0.000 NA
ATOM     15  C   UNL     1      -0.780   1.107  -0.111  0.00  0.00    +0.000 A 
ATOM     16  H   UNL     1      -2.241  -2.334   0.086  0.00  0.00    +0.000 HD
ENDBRANCH   8  13
ENDBRANCH   7   8
ENDBRANCH   1   7
BRANCH   5  17
ATOM     17  O   UNL     1       2.672  -7.330  -0.038  0.00  0.00    +0.000 OA
BRANCH  17  18
ATOM     18  C   UNL     1       3.301  -6.262  -0.781  0.00  0.00    +0.000 C 
ATOM     19  C   UNL     1       4.854  -6.327  -0.810  0.00  0.00    +0.000 C 
ATOM     20  C   UNL     1       4.854  -4.789  -0.773  0.00  0.00    +0.000 C 
ATOM     21  C   UNL     1       3.476  -4.882  -0.088  0.00  0.00    +0.000 C 
ENDBRANCH  17  18
ENDBRANCH   5  17
TORSDOF 5
