REMARK  Name = 
REMARK  5 active torsions:
REMARK  status: ('A' for Active; 'I' for Inactive)
REMARK    1  A    between atoms: N_1  and  C_2
REMARK    2  A    between atoms: C_2  and  C_3
REMARK    3  A    between atoms: C_3  and  C_4
REMARK    4  A    between atoms: N_10  and  C_11
REMARK    5  A    between atoms: C_11  and  C_12
REMARK                            x       y       z     vdW  Elec       q    Type
REMARK                         _______ _______ _______ _____ _____    ______ ____
ROOT
ATOM      1  C   UNL     1       4.460   0.827   1.123  0.00  0.00    +0.000 A 
ATOM      2  C   UNL     1       5.244  -0.229   1.585  0.00  0.00    +0.000 A 
ATOM      3  N   UNL     1       6.594  -0.247   1.600  0.00  0.00    +0.000 NA
ATOM      4  C   UNL     1       7.195   0.887   1.170  0.00  0.00    +0.000 A 
ATOM      5  C   UNL     1       8.573   1.183   1.110  0.00  0.00    +0.000 A 
ATOM      6  C   UNL     1       8.700   2.477   0.672  0.00  0.00    +0.000 A 
ATOM      7  N   UNL     1       7.437   2.988   0.448  0.00  0.00    +0.000 N 
ATOM      8  C   UNL     1       6.498   2.008   0.704  0.00  0.00    +0.000 A 
ATOM      9  C   UNL     1       5.099   1.965   0.614  0.00  0.00    +0.000 A 
ENDROOT
BRANCH   1  10
ATOM     10  C   UNL     1       2.955   0.765   1.168  0.00  0.00    +0.000 C 
BRANCH  10  11
ATOM     11  C   UNL     1       2.348   0.151  -0.095  0.00  0.00    +0.000 C 
BRANCH  11  12
ATOM     12  N   UNL     1       0.888   0.142  -0.021  0.00  0.00    +0.000 NA
ATOM     13  H   UNL     1       0.511  -0.261  -0.878  0.00  0.00    +0.000 HD
ATOM     14  H   UNL     1       0.533   1.096   0.026  0.00  0.00    +0.000 HD
ENDBRANCH  11  12
ENDBRANCH  10  11
ENDBRANCH   1  10
BRANCH   7  15
ATOM     15  C   UNL     1       7.193   4.407   0.177  0.00  0.00    +0.000 C 
BRANCH  15  16
ATOM     16  C   UNL     1       7.236   4.714  -1.297  0.00  0.00    +0.000 A 
ATOM     17  C   UNL     1       6.064   4.703  -2.058  0.00  0.00    +0.000 A 
ATOM     18  C   UNL     1       6.164   4.817  -3.435  0.00  0.00    +0.000 A 
ATOM     19  N   UNL     1       7.330   4.978  -4.094  0.00  0.00    +0.000 NA
ATOM     20  C   UNL     1       8.447   5.042  -3.340  0.00  0.00    +0.000 A 
ATOM     21  C   UNL     1       8.451   4.935  -1.957  0.00  0.00    +0.000 A 
ENDBRANCH  15  16
ENDBRANCH   7  15
TORSDOF 5
