REMARK  Name = 
REMARK  7 active torsions:
REMARK  status: ('A' for Active; 'I' for Inactive)
REMARK    1  A    between atoms: N_1  and  C_2
REMARK    2  A    between atoms: C_2  and  C_3
REMARK    3  A    between atoms: C_3  and  N_4
REMARK    4  A    between atoms: C_3  and  C_17
REMARK    5  A    between atoms: C_5  and  C_7
REMARK    6  A    between atoms: C_20  and  C_21
REMARK    7  A    between atoms: C_21  and  C_22
REMARK                            x       y       z     vdW  Elec       q    Type
REMARK                         _______ _______ _______ _____ _____    ______ ____
ROOT
ATOM      1  C   UNL     1       2.855  -0.752   0.989  0.00  0.00    +0.000 C 
ENDROOT
BRANCH   1   2
ATOM      2  C   UNL     1       4.374  -0.824   1.144  0.00  0.00    +0.000 A 
ATOM      3  C   UNL     1       4.971  -0.376   2.328  0.00  0.00    +0.000 A 
ATOM      4  C   UNL     1       6.362  -0.362   2.467  0.00  0.00    +0.000 A 
ATOM      5  C   UNL     1       7.192  -0.822   1.435  0.00  0.00    +0.000 A 
ATOM      6  C   UNL     1       6.598  -1.310   0.265  0.00  0.00    +0.000 A 
ATOM      7  C   UNL     1       5.207  -1.303   0.118  0.00  0.00    +0.000 A 
BRANCH   5   8
ATOM      8  C   UNL     1       8.698  -0.770   1.575  0.00  0.00    +0.000 C 
BRANCH   8   9
ATOM      9  C   UNL     1       9.356  -1.989   2.184  0.00  0.00    +0.000 A 
ATOM     10  C   UNL     1       9.037  -2.410   3.475  0.00  0.00    +0.000 A 
ATOM     11  C   UNL     1       9.752  -3.461   4.044  0.00  0.00    +0.000 A 
ATOM     12  C   UNL     1      10.769  -4.064   3.318  0.00  0.00    +0.000 A 
ATOM     13  C   UNL     1      11.020  -3.598   2.040  0.00  0.00    +0.000 A 
ATOM     14  N   UNL     1      10.343  -2.581   1.461  0.00  0.00    +0.000 NA
ENDBRANCH   8   9
ENDBRANCH   5   8
ENDBRANCH   1   2
BRANCH   1  15
ATOM     15  N   UNL     1       2.320  -2.104   0.906  0.00  0.00    +0.000 N 
ATOM     16  C   UNL     1       0.982  -2.402   0.925  0.00  0.00    +0.000 C 
ATOM     17  O   UNL     1       0.114  -1.558   1.122  0.00  0.00    +0.000 OA
ATOM     18  H   UNL     1       2.980  -2.823   0.642  0.00  0.00    +0.000 HD
BRANCH  16  19
ATOM     19  C   UNL     1       0.649  -3.820   0.745  0.00  0.00    +0.000 A 
ATOM     20  C   UNL     1      -0.542  -4.336   1.238  0.00  0.00    +0.000 A 
ATOM     21  S   UNL     1      -0.690  -6.023   1.018  0.00  0.00    +0.000 S 
ATOM     22  C   UNL     1       0.808  -6.110   0.214  0.00  0.00    +0.000 A 
ATOM     23  N   UNL     1       1.308  -7.296  -0.225  0.00  0.00    +0.000 NA
ATOM     24  C   UNL     1       2.444  -7.205  -0.833  0.00  0.00    +0.000 A 
ATOM     25  N   UNL     1       3.117  -6.033  -1.062  0.00  0.00    +0.000 N 
ATOM     26  C   UNL     1       2.643  -4.811  -0.650  0.00  0.00    +0.000 A 
ATOM     27  O   UNL     1       3.256  -3.781  -0.897  0.00  0.00    +0.000 OA
ATOM     28  C   UNL     1       1.397  -4.866   0.089  0.00  0.00    +0.000 A 
ATOM     29  H   UNL     1       3.994  -6.023  -1.560  0.00  0.00    +0.000 HD
ENDBRANCH  16  19
ENDBRANCH   1  15
BRANCH   1  30
ATOM     30  C   UNL     1       2.434   0.119  -0.233  0.00  0.00    +0.000 C 
BRANCH  30  31
ATOM     31  N   UNL     1       2.951   1.494  -0.190  0.00  0.00    +0.000 NA
ATOM     32  H   UNL     1       2.816   1.925  -1.105  0.00  0.00    +0.000 HD
ATOM     33  H   UNL     1       3.960   1.469  -0.035  0.00  0.00    +0.000 HD
ENDBRANCH  30  31
ENDBRANCH   1  30
TORSDOF 7
