REMARK  Name = 
REMARK  6 active torsions:
REMARK  status: ('A' for Active; 'I' for Inactive)
REMARK    1  A    between atoms: C_1  and  C_2
REMARK    2  A    between atoms: C_2  and  C_3
REMARK    3  A    between atoms: C_2  and  N_4
REMARK    4  A    between atoms: C_2  and  C_14
REMARK    5  A    between atoms: N_4  and  C_5
REMARK    6  A    between atoms: C_8  and  C_9
REMARK                            x       y       z     vdW  Elec       q    Type
REMARK                         _______ _______ _______ _____ _____    ______ ____
ROOT
ATOM      1  N   UNL     1       2.666   0.280   1.315  0.00  0.00    +0.000 N 
ATOM      2  H   UNL     1       3.657   0.186   1.539  0.00  0.00    +0.000 HD
ENDROOT
BRANCH   1   3
ATOM      3  C   UNL     1       1.989   1.063   2.231  0.00  0.00    +0.000 A 
ATOM      4  C   UNL     1       2.074   0.709   3.588  0.00  0.00    +0.000 A 
ATOM      5  C   UNL     1       1.363   1.408   4.571  0.00  0.00    +0.000 A 
ATOM      6  C   UNL     1       0.571   2.502   4.222  0.00  0.00    +0.000 A 
ATOM      7  C   UNL     1       0.483   2.874   2.880  0.00  0.00    +0.000 A 
ATOM      8  C   UNL     1       1.186   2.156   1.905  0.00  0.00    +0.000 A 
BRANCH   6   9
ATOM      9  C   UNL     1      -0.182   3.215   5.283  0.00  0.00    +0.000 C 
ATOM     10  N   UNL     1      -0.518   4.520   5.045  0.00  0.00    +0.000 N 
ATOM     11  O   UNL     1      -0.468   2.677   6.345  0.00  0.00    +0.000 OA
ATOM     12  H   UNL     1      -0.097   5.066   4.307  0.00  0.00    +0.000 HD
ATOM     13  H   UNL     1      -0.937   5.020   5.819  0.00  0.00    +0.000 HD
ENDBRANCH   6   9
ENDBRANCH   1   3
BRANCH   1  15
ATOM     14  C   UNL     1       0.856  -0.077  -0.370  0.00  0.00    +0.000 C 
ATOM     15  C   UNL     1       2.372   0.067  -0.114  0.00  0.00    +0.000 C 
ATOM     16  C   UNL     1       2.934   1.246  -0.930  0.00  0.00    +0.000 C 
BRANCH  15  17
ATOM     17  C   UNL     1       3.034  -1.278  -0.496  0.00  0.00    +0.000 A 
ATOM     18  C   UNL     1       3.974  -1.406  -1.530  0.00  0.00    +0.000 A 
ATOM     19  C   UNL     1       4.503  -2.657  -1.821  0.00  0.00    +0.000 A 
ATOM     20  N   UNL     1       4.169  -3.787  -1.168  0.00  0.00    +0.000 NA
ATOM     21  C   UNL     1       3.267  -3.659  -0.175  0.00  0.00    +0.000 A 
ATOM     22  C   UNL     1       2.687  -2.454   0.190  0.00  0.00    +0.000 A 
ENDBRANCH  15  17
ENDBRANCH   1  15
TORSDOF 4
