REMARK  Name = 
REMARK  8 active torsions:
REMARK  status: ('A' for Active; 'I' for Inactive)
REMARK    1  A    between atoms: C_1  and  C_2
REMARK    2  A    between atoms: C_4  and  C_5
REMARK    3  A    between atoms: C_10  and  C_11
REMARK    4  A    between atoms: C_11  and  O_12
REMARK    5  A    between atoms: O_12  and  C_13
REMARK    6  A    between atoms: C_16  and  C_17
REMARK    7  A    between atoms: C_19  and  C_20
REMARK    8  A    between atoms: C_24  and  C_25
REMARK                            x       y       z     vdW  Elec       q    Type
REMARK                         _______ _______ _______ _____ _____    ______ ____
ROOT
ATOM      1  C   UNL     1       3.257  -3.474   0.061  0.00  0.00    +0.000 A 
ATOM      2  C   UNL     1       3.038  -4.524  -0.818  0.00  0.00    +0.000 A 
ATOM      3  C   UNL     1       3.922  -5.604  -0.837  0.00  0.00    +0.000 A 
ATOM      4  C   UNL     1       5.035  -5.641   0.025  0.00  0.00    +0.000 A 
ATOM      5  C   UNL     1       5.313  -4.552   0.885  0.00  0.00    +0.000 A 
ATOM      6  C   UNL     1       4.405  -3.474   0.857  0.00  0.00    +0.000 A 
ENDROOT
BRANCH   5   7
ATOM      7  C   UNL     1       6.468  -4.470   1.820  0.00  0.00    +0.000 A 
ATOM      8  C   UNL     1       6.381  -3.814   3.055  0.00  0.00    +0.000 A 
ATOM      9  N   UNL     1       7.386  -3.688   3.954  0.00  0.00    +0.000 NA
ATOM     10  C   UNL     1       8.557  -4.276   3.638  0.00  0.00    +0.000 A 
ATOM     11  C   UNL     1       8.777  -4.956   2.457  0.00  0.00    +0.000 A 
ATOM     12  C   UNL     1       7.727  -5.012   1.529  0.00  0.00    +0.000 A 
BRANCH  11  13
ATOM     13  C   UNL     1      10.083  -5.629   2.181  0.00  0.00    +0.000 C 
ATOM     14  F   UNL     1      10.998  -5.466   3.176  0.00  0.00    +0.000 F 
ATOM     15  F   UNL     1       9.950  -6.972   2.013  0.00  0.00    +0.000 F 
ATOM     16  F   UNL     1      10.676  -5.165   1.047  0.00  0.00    +0.000 F 
ENDBRANCH  11  13
ENDBRANCH   5   7
BRANCH   4  17
ATOM     17  C   UNL     1       5.845  -6.828  -0.020  0.00  0.00    +0.000 C 
ATOM     18  N   UNL     1       6.520  -7.767  -0.074  0.00  0.00    +0.000 NA
ENDBRANCH   4  17
BRANCH   1  19
ATOM     19  O   UNL     1       2.315  -2.479   0.087  0.00  0.00    +0.000 OA
BRANCH  19  20
ATOM     20  C   UNL     1       2.231  -1.777   1.333  0.00  0.00    +0.000 C 
BRANCH  20  27
ATOM     21  C   UNL     1      -0.433  -3.213   1.264  0.00  0.00    +0.000 C 
ATOM     22  C   UNL     1      -0.325  -1.720   1.430  0.00  0.00    +0.000 A 
ATOM     23  C   UNL     1      -1.507  -0.974   1.572  0.00  0.00    +0.000 A 
ATOM     24  C   UNL     1      -1.480   0.416   1.750  0.00  0.00    +0.000 A 
ATOM     25  C   UNL     1      -0.250   1.072   1.794  0.00  0.00    +0.000 A 
ATOM     26  C   UNL     1       0.934   0.344   1.647  0.00  0.00    +0.000 A 
ATOM     27  C   UNL     1       0.913  -1.049   1.452  0.00  0.00    +0.000 A 
BRANCH  24  28
ATOM     28  C   UNL     1      -2.788   1.115   1.888  0.00  0.00    +0.000 C 
ATOM     29  N   UNL     1      -2.796   2.470   2.061  0.00  0.00    +0.000 N 
ATOM     30  O   UNL     1      -3.850   0.503   1.847  0.00  0.00    +0.000 OA
ATOM     31  H   UNL     1      -1.983   3.062   2.090  0.00  0.00    +0.000 HD
ATOM     32  H   UNL     1      -3.705   2.907   2.138  0.00  0.00    +0.000 HD
ENDBRANCH  24  28
ENDBRANCH  20  27
ENDBRANCH  19  20
ENDBRANCH   1  19
TORSDOF 7
