REMARK  Name = 
REMARK  6 active torsions:
REMARK  status: ('A' for Active; 'I' for Inactive)
REMARK    1  A    between atoms: C_2  and  C_25
REMARK    2  A    between atoms: N_3  and  C_4
REMARK    3  A    between atoms: C_4  and  C_5
REMARK    4  A    between atoms: C_8  and  C_9
REMARK    5  A    between atoms: C_9  and  N_10
REMARK    6  A    between atoms: C_11  and  C_13
REMARK                            x       y       z     vdW  Elec       q    Type
REMARK                         _______ _______ _______ _____ _____    ______ ____
ROOT
ATOM      1  C   UNL     1       3.264  -3.541  -0.326  0.00  0.00    +0.000 C 
ATOM      2  C   UNL     1       2.577  -4.898  -0.142  0.00  0.00    +0.000 C 
ATOM      3  C   UNL     1       3.576  -6.049  -0.125  0.00  0.00    +0.000 C 
ATOM      4  C   UNL     1       4.674  -5.868   0.934  0.00  0.00    +0.000 C 
ATOM      5  C   UNL     1       5.353  -4.505   0.752  0.00  0.00    +0.000 C 
ATOM      6  C   UNL     1       4.344  -3.356   0.755  0.00  0.00    +0.000 C 
ENDROOT
BRANCH   1   7
ATOM      7  C   UNL     1       2.233  -2.400  -0.280  0.00  0.00    +0.000 C 
BRANCH   7  10
ATOM      8  O   UNL     1       2.430  -1.257  -2.854  0.00  0.00    +0.000 OA
ATOM      9  C   UNL     1       1.437  -1.923  -2.571  0.00  0.00    +0.000 C 
ATOM     10  N   UNL     1       1.240  -2.503  -1.333  0.00  0.00    +0.000 N 
ATOM     11  H   UNL     1       0.420  -3.089  -1.240  0.00  0.00    +0.000 HD
BRANCH   9  12
ATOM     12  C   UNL     1       0.366  -2.179  -3.546  0.00  0.00    +0.000 A 
ATOM     13  C   UNL     1       0.357  -1.725  -4.892  0.00  0.00    +0.000 A 
ATOM     14  C   UNL     1      -0.830  -2.166  -5.420  0.00  0.00    +0.000 A 
ATOM     15  N   UNL     1      -1.473  -2.805  -4.402  0.00  0.00    +0.000 N 
ATOM     16  N   UNL     1      -0.760  -2.865  -3.261  0.00  0.00    +0.000 NA
ATOM     17  H   UNL     1      -2.398  -3.222  -4.419  0.00  0.00    +0.000 HD
ENDBRANCH   9  12
ENDBRANCH   7  10
ENDBRANCH   1   7
BRANCH   4  18
ATOM     18  C   UNL     1       5.736  -6.979   0.870  0.00  0.00    +0.000 C 
BRANCH  18  19
ATOM     19  N   UNL     1       5.197  -8.298   1.107  0.00  0.00    +0.000 N 
ATOM     20  C   UNL     1       6.007  -9.409   1.088  0.00  0.00    +0.000 C 
ATOM     21  O   UNL     1       7.220  -9.341   0.917  0.00  0.00    +0.000 OA
ATOM     22  H   UNL     1       4.210  -8.441   0.923  0.00  0.00    +0.000 HD
BRANCH  20  23
ATOM     23  C   UNL     1       5.338 -10.685   1.359  0.00  0.00    +0.000 A 
ATOM     24  C   UNL     1       6.030 -11.717   1.976  0.00  0.00    +0.000 A 
ATOM     25  S   UNL     1       5.080 -13.111   2.232  0.00  0.00    +0.000 S 
ATOM     26  C   UNL     1       3.725 -12.394   1.489  0.00  0.00    +0.000 A 
ATOM     27  N   UNL     1       2.557 -13.073   1.343  0.00  0.00    +0.000 NA
ATOM     28  C   UNL     1       1.631 -12.414   0.738  0.00  0.00    +0.000 A 
ATOM     29  N   UNL     1       1.755 -11.135   0.265  0.00  0.00    +0.000 N 
ATOM     30  C   UNL     1       2.911 -10.410   0.400  0.00  0.00    +0.000 A 
ATOM     31  O   UNL     1       2.987  -9.263  -0.022  0.00  0.00    +0.000 OA
ATOM     32  C   UNL     1       3.991 -11.107   1.070  0.00  0.00    +0.000 A 
ATOM     33  H   UNL     1       0.989 -10.672  -0.197  0.00  0.00    +0.000 HD
ENDBRANCH  20  23
ENDBRANCH  18  19
ENDBRANCH   4  18
TORSDOF 6
