REMARK  Name = 
REMARK  6 active torsions:
REMARK  status: ('A' for Active; 'I' for Inactive)
REMARK    1  A    between atoms: C_2  and  C_25
REMARK    2  A    between atoms: N_3  and  C_4
REMARK    3  A    between atoms: C_4  and  C_5
REMARK    4  A    between atoms: C_8  and  C_9
REMARK    5  A    between atoms: C_9  and  N_10
REMARK    6  A    between atoms: C_11  and  C_13
REMARK                            x       y       z     vdW  Elec       q    Type
REMARK                         _______ _______ _______ _____ _____    ______ ____
ROOT
ATOM      1  C   UNL     1       3.370   3.618   0.609  0.00  0.00    +0.000 A 
ATOM      2  C   UNL     1       2.855   4.910   0.537  0.00  0.00    +0.000 A 
ATOM      3  C   UNL     1       3.718   5.995   0.685  0.00  0.00    +0.000 A 
ATOM      4  C   UNL     1       5.075   5.774   0.925  0.00  0.00    +0.000 A 
ATOM      5  C   UNL     1       5.503   4.451   0.971  0.00  0.00    +0.000 A 
ATOM      6  N   UNL     1       4.689   3.377   0.824  0.00  0.00    +0.000 NA
ENDROOT
BRANCH   1   7
ATOM      7  C   UNL     1       2.456   2.423   0.447  0.00  0.00    +0.000 C 
BRANCH   7  10
ATOM      8  O   UNL     1      -0.010   3.334   1.507  0.00  0.00    +0.000 OA
ATOM      9  C   UNL     1       0.643   2.500   2.129  0.00  0.00    +0.000 C 
ATOM     10  N   UNL     1       1.845   2.000   1.689  0.00  0.00    +0.000 N 
ATOM     11  H   UNL     1       2.350   1.377   2.312  0.00  0.00    +0.000 HD
BRANCH   9  12
ATOM     12  C   UNL     1       0.152   1.950   3.433  0.00  0.00    +0.000 A 
ATOM     13  C   UNL     1      -1.069   2.386   3.940  0.00  0.00    +0.000 A 
ATOM     14  C   UNL     1      -1.518   1.846   5.138  0.00  0.00    +0.000 A 
ATOM     15  C   UNL     1      -0.739   0.894   5.789  0.00  0.00    +0.000 A 
ATOM     16  C   UNL     1       0.466   0.518   5.212  0.00  0.00    +0.000 A 
ATOM     17  N   UNL     1       0.937   1.019   4.047  0.00  0.00    +0.000 NA
ENDBRANCH   9  12
ENDBRANCH   7  10
ENDBRANCH   1   7
BRANCH   4  18
ATOM     18  C   UNL     1       6.036   6.911   1.105  0.00  0.00    +0.000 C 
BRANCH  18  19
ATOM     19  N   UNL     1       6.612   7.328  -0.148  0.00  0.00    +0.000 N 
ATOM     20  C   UNL     1       7.621   8.260  -0.185  0.00  0.00    +0.000 C 
ATOM     21  O   UNL     1       8.102   8.733   0.841  0.00  0.00    +0.000 OA
ATOM     22  H   UNL     1       6.078   7.143  -0.992  0.00  0.00    +0.000 HD
BRANCH  20  23
ATOM     23  C   UNL     1       8.143   8.617  -1.510  0.00  0.00    +0.000 A 
ATOM     24  C   UNL     1       9.424   9.142  -1.625  0.00  0.00    +0.000 A 
ATOM     25  S   UNL     1       9.896   9.452  -3.233  0.00  0.00    +0.000 S 
ATOM     26  C   UNL     1       8.385   8.946  -3.831  0.00  0.00    +0.000 A 
ATOM     27  N   UNL     1       8.113   8.984  -5.163  0.00  0.00    +0.000 NA
ATOM     28  C   UNL     1       6.917   8.606  -5.473  0.00  0.00    +0.000 A 
ATOM     29  N   UNL     1       5.973   8.187  -4.573  0.00  0.00    +0.000 N 
ATOM     30  C   UNL     1       6.214   8.100  -3.222  0.00  0.00    +0.000 A 
ATOM     31  O   UNL     1       5.363   7.677  -2.447  0.00  0.00    +0.000 OA
ATOM     32  C   UNL     1       7.539   8.529  -2.819  0.00  0.00    +0.000 A 
ATOM     33  H   UNL     1       5.057   7.896  -4.882  0.00  0.00    +0.000 HD
ENDBRANCH  20  23
ENDBRANCH  18  19
ENDBRANCH   4  18
TORSDOF 6
