REMARK  Name = 
REMARK  8 active torsions:
REMARK  status: ('A' for Active; 'I' for Inactive)
REMARK    1  A    between atoms: C_1  and  O_2
REMARK    2  A    between atoms: O_2  and  C_3
REMARK    3  A    between atoms: C_3  and  C_4
REMARK    4  A    between atoms: C_4  and  N_5
REMARK    5  A    between atoms: C_4  and  C_18
REMARK    6  A    between atoms: C_6  and  C_8
REMARK    7  A    between atoms: C_21  and  O_22
REMARK    8  A    between atoms: O_22  and  C_23
REMARK                            x       y       z     vdW  Elec       q    Type
REMARK                         _______ _______ _______ _____ _____    ______ ____
ROOT
ATOM      1  C   UNL     1       4.308  -1.010  -0.716  0.00  0.00    +0.000 C 
ENDROOT
BRANCH   1   2
ATOM      2  C   UNL     1       4.827  -2.214  -1.488  0.00  0.00    +0.000 A 
ATOM      3  C   UNL     1       5.708  -2.030  -2.560  0.00  0.00    +0.000 A 
ATOM      4  C   UNL     1       6.132  -3.121  -3.323  0.00  0.00    +0.000 A 
ATOM      5  C   UNL     1       5.722  -4.416  -2.996  0.00  0.00    +0.000 A 
ATOM      6  C   UNL     1       4.854  -4.612  -1.924  0.00  0.00    +0.000 A 
ATOM      7  C   UNL     1       4.416  -3.522  -1.171  0.00  0.00    +0.000 A 
BRANCH   5   8
ATOM      8  O   UNL     1       6.046  -5.539  -3.721  0.00  0.00    +0.000 OA
BRANCH   8   9
ATOM      9  C   UNL     1       7.312  -5.624  -4.283  0.00  0.00    +0.000 A 
ATOM     10  C   UNL     1       7.437  -6.444  -5.395  0.00  0.00    +0.000 A 
ATOM     11  C   UNL     1       8.687  -6.552  -5.997  0.00  0.00    +0.000 A 
ATOM     12  C   UNL     1       9.761  -5.846  -5.465  0.00  0.00    +0.000 A 
ATOM     13  C   UNL     1       9.545  -5.073  -4.336  0.00  0.00    +0.000 A 
ATOM     14  N   UNL     1       8.349  -4.962  -3.724  0.00  0.00    +0.000 NA
ENDBRANCH   8   9
ENDBRANCH   5   8
ENDBRANCH   1   2
BRANCH   1  15
ATOM     15  N   UNL     1       4.754  -1.077   0.666  0.00  0.00    +0.000 N 
ATOM     16  C   UNL     1       5.897  -0.469   1.113  0.00  0.00    +0.000 C 
ATOM     17  O   UNL     1       6.579   0.270   0.413  0.00  0.00    +0.000 OA
ATOM     18  H   UNL     1       4.315  -1.785   1.242  0.00  0.00    +0.000 HD
BRANCH  16  19
ATOM     19  C   UNL     1       6.241  -0.720   2.521  0.00  0.00    +0.000 A 
ATOM     20  C   UNL     1       7.010   0.199   3.220  0.00  0.00    +0.000 A 
ATOM     21  S   UNL     1       7.325  -0.260   4.833  0.00  0.00    +0.000 S 
ATOM     22  C   UNL     1       6.485  -1.727   4.638  0.00  0.00    +0.000 A 
ATOM     23  N   UNL     1       6.413  -2.634   5.650  0.00  0.00    +0.000 NA
ATOM     24  C   UNL     1       5.789  -3.722   5.348  0.00  0.00    +0.000 A 
ATOM     25  N   UNL     1       5.208  -3.979   4.133  0.00  0.00    +0.000 N 
ATOM     26  C   UNL     1       5.168  -3.052   3.120  0.00  0.00    +0.000 A 
ATOM     27  O   UNL     1       4.487  -3.244   2.118  0.00  0.00    +0.000 OA
ATOM     28  C   UNL     1       5.928  -1.842   3.377  0.00  0.00    +0.000 A 
ATOM     29  H   UNL     1       4.691  -4.830   3.976  0.00  0.00    +0.000 HD
ENDBRANCH  16  19
ENDBRANCH   1  15
BRANCH   1  30
ATOM     30  C   UNL     1       2.765  -0.961  -0.813  0.00  0.00    +0.000 C 
BRANCH  30  32
ATOM     31  C   UNL     1       0.819   0.238  -0.255  0.00  0.00    +0.000 C 
ATOM     32  O   UNL     1       2.236   0.187  -0.139  0.00  0.00    +0.000 OA
ENDBRANCH  30  32
ENDBRANCH   1  30
TORSDOF 7
