REMARK  Name = 
REMARK  9 active torsions:
REMARK  status: ('A' for Active; 'I' for Inactive)
REMARK    1  A    between atoms: C_2  and  C_22
REMARK    2  A    between atoms: N_3  and  C_4
REMARK    3  A    between atoms: C_4  and  C_5
REMARK    4  A    between atoms: C_8  and  C_9
REMARK    5  A    between atoms: C_9  and  N_10
REMARK    6  A    between atoms: N_10  and  CA_11
REMARK    7  A    between atoms: CA_11  and  C_12
REMARK    8  A    between atoms: CA_11  and  C_14
REMARK    9  A    between atoms: C_12  and  O_13
REMARK                            x       y       z     vdW  Elec       q    Type
REMARK                         _______ _______ _______ _____ _____    ______ ____
ROOT
ATOM      1  C   UNL     1       3.132  -3.551  -0.800  0.00  0.00    +0.000 A 
ATOM      2  C   UNL     1       2.679  -4.853  -0.651  0.00  0.00    +0.000 A 
ATOM      3  C   UNL     1       3.581  -5.897  -0.806  0.00  0.00    +0.000 A 
ATOM      4  C   UNL     1       4.903  -5.594  -1.087  0.00  0.00    +0.000 A 
ATOM      5  N   UNL     1       5.323  -4.314  -1.215  0.00  0.00    +0.000 NA
ATOM      6  N   UNL     1       4.432  -3.287  -1.069  0.00  0.00    +0.000 NA
ENDROOT
BRANCH   1   7
ATOM      7  C   UNL     1       2.197  -2.381  -0.651  0.00  0.00    +0.000 C 
BRANCH   7  10
ATOM      8  O   UNL     1       0.272  -3.223   1.216  0.00  0.00    +0.000 OA
ATOM      9  C   UNL     1       1.146  -2.441   1.582  0.00  0.00    +0.000 C 
ATOM     10  N   UNL     1       2.084  -1.939   0.720  0.00  0.00    +0.000 N 
ATOM     11  H   UNL     1       2.905  -1.474   1.096  0.00  0.00    +0.000 HD
BRANCH   9  12
ATOM     12  C   UNL     1       1.213  -1.954   2.965  0.00  0.00    +0.000 A 
ATOM     13  C   UNL     1       0.070  -1.935   3.753  0.00  0.00    +0.000 A 
ATOM     14  S   UNL     1       0.340  -1.336   5.328  0.00  0.00    +0.000 S 
ATOM     15  C   UNL     1       2.001  -1.122   5.024  0.00  0.00    +0.000 A 
ATOM     16  N   UNL     1       2.840  -0.662   5.991  0.00  0.00    +0.000 NA
ATOM     17  C   UNL     1       4.078  -0.588   5.632  0.00  0.00    +0.000 A 
ATOM     18  N   UNL     1       4.550  -0.919   4.389  0.00  0.00    +0.000 N 
ATOM     19  C   UNL     1       3.731  -1.310   3.361  0.00  0.00    +0.000 A 
ATOM     20  O   UNL     1       4.161  -1.459   2.223  0.00  0.00    +0.000 OA
ATOM     21  C   UNL     1       2.335  -1.467   3.727  0.00  0.00    +0.000 A 
ATOM     22  H   UNL     1       5.531  -0.806   4.160  0.00  0.00    +0.000 HD
ENDBRANCH   9  12
ENDBRANCH   7  10
ENDBRANCH   1   7
BRANCH   4  23
ATOM     23  C   UNL     1       5.937  -6.681  -1.247  0.00  0.00    +0.000 C 
BRANCH  23  24
ATOM     24  N   UNL     1       7.077  -6.580  -0.328  0.00  0.00    +0.000 NA
ATOM     25  H   UNL     1       7.475  -5.645  -0.463  0.00  0.00    +0.000 HD
BRANCH  24  26
ATOM     26  CA  UNL     1       6.734  -6.689   1.112  0.00  0.00    +0.000 C 
BRANCH  26  27
ATOM     27  C   UNL     1       7.982  -6.481   1.984  0.00  0.00    +0.000 A 
ATOM     28  C   UNL     1       9.251  -6.865   1.543  0.00  0.00    +0.000 A 
ATOM     29  C   UNL     1      10.355  -6.618   2.353  0.00  0.00    +0.000 A 
ATOM     30  C   UNL     1      10.171  -6.012   3.588  0.00  0.00    +0.000 A 
ATOM     31  C   UNL     1       8.880  -5.694   3.972  0.00  0.00    +0.000 A 
ATOM     32  N   UNL     1       7.787  -5.926   3.210  0.00  0.00    +0.000 NA
ENDBRANCH  26  27
BRANCH  26  33
ATOM     33  C   UNL     1       6.068  -8.031   1.515  0.00  0.00    +0.000 C 
BRANCH  33  34
ATOM     34  O   UNL     1       5.616  -8.048   2.872  0.00  0.00    +0.000 OA
ATOM     35  H   UNL     1       6.308  -7.617   3.414  0.00  0.00    +0.000 HD
ENDBRANCH  33  34
ENDBRANCH  26  33
ENDBRANCH  24  26
ENDBRANCH  23  24
ENDBRANCH   4  23
TORSDOF 9
