REMARK  Name = 
REMARK  7 active torsions:
REMARK  status: ('A' for Active; 'I' for Inactive)
REMARK    1  A    between atoms: N_1  and  C_2
REMARK    2  A    between atoms: C_2  and  C_3
REMARK    3  A    between atoms: C_2  and  C_24
REMARK    4  A    between atoms: C_3  and  N_4
REMARK    5  A    between atoms: C_7  and  C_8
REMARK    6  A    between atoms: C_8  and  N_9
REMARK    7  A    between atoms: C_10  and  C_12
REMARK                            x       y       z     vdW  Elec       q    Type
REMARK                         _______ _______ _______ _____ _____    ______ ____
ROOT
ATOM      1  N   UNL     1       0.457   0.302  -1.289  0.00  0.00    +0.000 NA
ATOM      2  C   UNL     1       0.939  -0.590  -2.348  0.00  0.00    +0.000 C 
ATOM      3  C   UNL     1       0.396  -0.170  -3.712  0.00  0.00    +0.000 C 
ATOM      4  C   UNL     1      -1.136  -0.118  -3.734  0.00  0.00    +0.000 C 
ATOM      5  C   UNL     1      -1.606   0.781  -2.581  0.00  0.00    +0.000 C 
ATOM      6  C   UNL     1      -1.009   0.359  -1.232  0.00  0.00    +0.000 C 
ENDROOT
BRANCH   1   7
ATOM      7  C   UNL     1       1.027  -0.048   0.032  0.00  0.00    +0.000 C 
BRANCH   7   8
ATOM      8  C   UNL     1       2.586   0.005   0.127  0.00  0.00    +0.000 C 
BRANCH   8   9
ATOM      9  C   UNL     1       3.022  -0.336   1.549  0.00  0.00    +0.000 A 
ATOM     10  C   UNL     1       3.301  -1.660   1.886  0.00  0.00    +0.000 A 
ATOM     11  C   UNL     1       3.703  -1.955   3.185  0.00  0.00    +0.000 A 
ATOM     12  C   UNL     1       3.810  -0.926   4.112  0.00  0.00    +0.000 A 
ATOM     13  C   UNL     1       3.509   0.362   3.701  0.00  0.00    +0.000 A 
ATOM     14  N   UNL     1       3.117   0.680   2.447  0.00  0.00    +0.000 NA
ENDBRANCH   8   9
BRANCH   8  15
ATOM     15  N   UNL     1       3.132   1.304  -0.327  0.00  0.00    +0.000 NA
ATOM     16  H   UNL     1       4.083   1.382   0.029  0.00  0.00    +0.000 HD
ATOM     17  H   UNL     1       2.613   2.027   0.173  0.00  0.00    +0.000 HD
ENDBRANCH   8  15
ENDBRANCH   7   8
ENDBRANCH   1   7
BRANCH   4  18
ATOM     18  C   UNL     1      -1.792  -1.507  -3.634  0.00  0.00    +0.000 C 
BRANCH  18  19
ATOM     19  N   UNL     1      -1.375  -2.402  -4.688  0.00  0.00    +0.000 N 
ATOM     20  C   UNL     1      -1.952  -2.418  -5.931  0.00  0.00    +0.000 C 
ATOM     21  O   UNL     1      -2.872  -1.666  -6.240  0.00  0.00    +0.000 OA
ATOM     22  H   UNL     1      -0.700  -3.117  -4.441  0.00  0.00    +0.000 HD
BRANCH  20  23
ATOM     23  C   UNL     1      -1.359  -3.347  -6.900  0.00  0.00    +0.000 A 
ATOM     24  C   UNL     1      -1.525  -3.120  -8.259  0.00  0.00    +0.000 A 
ATOM     25  S   UNL     1      -0.716  -4.252  -9.244  0.00  0.00    +0.000 S 
ATOM     26  C   UNL     1      -0.155  -5.114  -7.889  0.00  0.00    +0.000 A 
ATOM     27  N   UNL     1       0.612  -6.227  -8.036  0.00  0.00    +0.000 NA
ATOM     28  C   UNL     1       0.940  -6.806  -6.928  0.00  0.00    +0.000 A 
ATOM     29  N   UNL     1       0.564  -6.369  -5.684  0.00  0.00    +0.000 N 
ATOM     30  C   UNL     1      -0.169  -5.225  -5.482  0.00  0.00    +0.000 A 
ATOM     31  O   UNL     1      -0.415  -4.822  -4.350  0.00  0.00    +0.000 OA
ATOM     32  C   UNL     1      -0.575  -4.545  -6.700  0.00  0.00    +0.000 A 
ATOM     33  H   UNL     1       0.858  -6.863  -4.855  0.00  0.00    +0.000 HD
ENDBRANCH  20  23
ENDBRANCH  18  19
ENDBRANCH   4  18
TORSDOF 7
