REMARK  Name = 
REMARK  8 active torsions:
REMARK  status: ('A' for Active; 'I' for Inactive)
REMARK    1  A    between atoms: C_1  and  N_2
REMARK    2  A    between atoms: N_2  and  C_3
REMARK    3  A    between atoms: N_2  and  C_4
REMARK    4  A    between atoms: C_4  and  C_5
REMARK    5  A    between atoms: C_8  and  C_9
REMARK    6  A    between atoms: C_9  and  N_10
REMARK    7  A    between atoms: CA_15  and  C_16
REMARK    8  A    between atoms: C_16  and  O_17
REMARK                            x       y       z     vdW  Elec       q    Type
REMARK                         _______ _______ _______ _____ _____    ______ ____
ROOT
ATOM      1  C   UNL     1       8.695  -0.707  -1.268  0.00  0.00    +0.000 C 
ENDROOT
BRANCH   1   2
ATOM      2  N   UNL     1       9.244  -0.689  -2.611  0.00  0.00    +0.000 N 
ATOM      3  C   UNL     1      10.624  -0.738  -2.684  0.00  0.00    +0.000 A 
ATOM      4  N   UNL     1      11.173  -0.105  -3.726  0.00  0.00    +0.000 NA
ATOM      5  C   UNL     1      12.512  -0.176  -3.847  0.00  0.00    +0.000 A 
ATOM      6  C   UNL     1      13.320  -0.839  -2.959  0.00  0.00    +0.000 A 
ATOM      7  CA  UNL     1      12.676  -1.442  -1.899  0.00  0.00    +0.000 A 
ATOM      8  N   UNL     1      11.332  -1.397  -1.753  0.00  0.00    +0.000 NA
ATOM      9  H   UNL     1       8.927   0.057  -3.216  0.00  0.00    +0.000 HD
BRANCH   7  10
ATOM     10  C   UNL     1      13.465  -2.205  -0.865  0.00  0.00    +0.000 C 
BRANCH  10  11
ATOM     11  O   UNL     1      14.133  -3.317  -1.453  0.00  0.00    +0.000 OA
ATOM     12  H   UNL     1      13.434  -3.886  -1.821  0.00  0.00    +0.000 HD
ENDBRANCH  10  11
ENDBRANCH   7  10
ENDBRANCH   1   2
BRANCH   1  16
ATOM     13  C   UNL     1       4.408  -0.709  -1.301  0.00  0.00    +0.000 A 
ATOM     14  C   UNL     1       5.091   0.509  -1.338  0.00  0.00    +0.000 A 
ATOM     15  C   UNL     1       6.485   0.526  -1.346  0.00  0.00    +0.000 A 
ATOM     16  C   UNL     1       7.176  -0.685  -1.293  0.00  0.00    +0.000 A 
ATOM     17  N   UNL     1       6.531  -1.879  -1.257  0.00  0.00    +0.000 NA
ATOM     18  C   UNL     1       5.179  -1.864  -1.267  0.00  0.00    +0.000 A 
BRANCH  13  19
ATOM     19  C   UNL     1       2.902  -0.783  -1.285  0.00  0.00    +0.000 C 
BRANCH  19  21
ATOM     20  C   UNL     1       2.593  -0.752  -3.696  0.00  0.00    +0.000 C 
ATOM     21  N   UNL     1       2.260  -0.102  -2.424  0.00  0.00    +0.000 NA
ATOM     22  C   UNL     1       0.806  -0.089  -2.244  0.00  0.00    +0.000 C 
ENDBRANCH  19  21
ENDBRANCH  13  19
ENDBRANCH   1  16
TORSDOF 6
