REMARK  Name = 
REMARK  5 active torsions:
REMARK  status: ('A' for Active; 'I' for Inactive)
REMARK    1  A    between atoms: C_2  and  C_4
REMARK    2  A    between atoms: C_7  and  O_8
REMARK    3  A    between atoms: O_8  and  C_9
REMARK    4  A    between atoms: C_9  and  C_10
REMARK    5  A    between atoms: C_14  and  C_15
REMARK                            x       y       z     vdW  Elec       q    Type
REMARK                         _______ _______ _______ _____ _____    ______ ____
ROOT
ATOM      1  C   UNL     1       6.187  -1.176  -4.979  0.00  0.00    +0.000 C 
ENDROOT
BRANCH   1   2
ATOM      2  C   UNL     1       6.729  -1.043  -6.376  0.00  0.00    +0.000 A 
ATOM      3  C   UNL     1       7.131  -2.166  -7.086  0.00  0.00    +0.000 A 
ATOM      4  N   UNL     1       7.670  -2.121  -8.322  0.00  0.00    +0.000 NA
ATOM      5  C   UNL     1       7.822  -0.894  -8.881  0.00  0.00    +0.000 A 
ATOM      6  C   UNL     1       7.465   0.313  -8.277  0.00  0.00    +0.000 A 
ATOM      7  C   UNL     1       6.915   0.203  -6.990  0.00  0.00    +0.000 A 
BRANCH   6   8
ATOM      8  C   UNL     1       7.640   1.621  -8.936  0.00  0.00    +0.000 A 
ATOM      9  C   UNL     1       7.936   2.787  -8.211  0.00  0.00    +0.000 A 
ATOM     10  C   UNL     1       8.055   4.019  -8.854  0.00  0.00    +0.000 A 
ATOM     11  C   UNL     1       7.889   4.060 -10.225  0.00  0.00    +0.000 A 
ATOM     12  N   UNL     1       7.619   2.972 -10.974  0.00  0.00    +0.000 NA
ATOM     13  C   UNL     1       7.498   1.792 -10.316  0.00  0.00    +0.000 A 
ENDBRANCH   6   8
ENDBRANCH   1   2
BRANCH   1  14
ATOM     14  O   UNL     1       5.259  -0.120  -4.716  0.00  0.00    +0.000 OA
BRANCH  14  18
ATOM     15  C   UNL     1       3.437   0.182  -1.095  0.00  0.00    +0.000 A 
ATOM     16  N   UNL     1       4.291  -0.862  -1.231  0.00  0.00    +0.000 NA
ATOM     17  C   UNL     1       4.899  -0.963  -2.433  0.00  0.00    +0.000 A 
ATOM     18  C   UNL     1       4.697  -0.087  -3.480  0.00  0.00    +0.000 A 
ATOM     19  C   UNL     1       3.806   0.935  -3.215  0.00  0.00    +0.000 A 
ATOM     20  N   UNL     1       3.163   1.100  -2.040  0.00  0.00    +0.000 NA
BRANCH  15  22
ATOM     21  N   UNL     1       3.064  -0.654   1.170  0.00  0.00    +0.000 N 
ATOM     22  C   UNL     1       2.741   0.308   0.241  0.00  0.00    +0.000 C 
ATOM     23  O   UNL     1       1.937   1.192   0.516  0.00  0.00    +0.000 OA
ATOM     24  H   UNL     1       2.628  -0.622   2.080  0.00  0.00    +0.000 HD
ATOM     25  H   UNL     1       3.727  -1.386   0.940  0.00  0.00    +0.000 HD
ENDBRANCH  15  22
ENDBRANCH  14  18
ENDBRANCH   1  14
TORSDOF 5
