REMARK  Name = 
REMARK  8 active torsions:
REMARK  status: ('A' for Active; 'I' for Inactive)
REMARK    1  A    between atoms: N_1  and  C_2
REMARK    2  A    between atoms: C_2  and  C_3
REMARK    3  A    between atoms: C_7  and  O_8
REMARK    4  A    between atoms: O_8  and  C_9
REMARK    5  A    between atoms: C_9  and  C_10
REMARK    6  A    between atoms: C_10  and  C_11
REMARK    7  A    between atoms: CA_15  and  C_16
REMARK    8  A    between atoms: C_16  and  OXT_18
REMARK                            x       y       z     vdW  Elec       q    Type
REMARK                         _______ _______ _______ _____ _____    ______ ____
ROOT
ATOM      1  C   UNL     1       6.290  -2.027  -2.667  0.00  0.00    +0.000 C 
ENDROOT
BRANCH   1   2
ATOM      2  O   UNL     1       5.524  -3.131  -2.179  0.00  0.00    +0.000 OA
BRANCH   2   7
ATOM      3  C   UNL     1       2.880  -1.361  -0.256  0.00  0.00    +0.000 A 
ATOM      4  C   UNL     1       2.219  -2.504   0.179  0.00  0.00    +0.000 A 
ATOM      5  N   UNL     1       2.600  -3.763  -0.131  0.00  0.00    +0.000 NA
ATOM      6  C   UNL     1       3.699  -3.886  -0.914  0.00  0.00    +0.000 A 
ATOM      7  C   UNL     1       4.440  -2.818  -1.407  0.00  0.00    +0.000 A 
ATOM      8  C   UNL     1       4.012  -1.537  -1.066  0.00  0.00    +0.000 A 
BRANCH   3   9
ATOM      9  C   UNL     1       2.425   0.010   0.151  0.00  0.00    +0.000 C 
BRANCH   9  10
ATOM     10  N   UNL     1       2.060   0.824  -1.003  0.00  0.00    +0.000 NA
ATOM     11  H   UNL     1       1.768   1.746  -0.682  0.00  0.00    +0.000 HD
ATOM     12  H   UNL     1       1.244   0.412  -1.456  0.00  0.00    +0.000 HD
ENDBRANCH   9  10
ENDBRANCH   3   9
ENDBRANCH   2   7
ENDBRANCH   1   2
BRANCH   1  13
ATOM     13  C   UNL     1       7.454  -2.564  -3.494  0.00  0.00    +0.000 C 
BRANCH  13  14
ATOM     14  C   UNL     1       8.279  -1.438  -4.052  0.00  0.00    +0.000 A 
ATOM     15  C   UNL     1       7.969  -0.877  -5.291  0.00  0.00    +0.000 A 
ATOM     16  N   UNL     1       8.653   0.166  -5.823  0.00  0.00    +0.000 NA
ATOM     17  C   UNL     1       9.674   0.642  -5.070  0.00  0.00    +0.000 A 
ATOM     18  CA  UNL     1       9.985   0.094  -3.839  0.00  0.00    +0.000 A 
ATOM     19  N   UNL     1       9.297  -0.956  -3.290  0.00  0.00    +0.000 NA
BRANCH  18  20
ATOM     20  C   UNL     1      11.105   0.639  -3.038  0.00  0.00    +0.000 C 
ATOM     21  O   UNL     1      11.810   1.573  -3.373  0.00  0.00    +0.000 OA
BRANCH  20  22
ATOM     22  OXT UNL     1      11.236  -0.046  -1.875  0.00  0.00    +0.000 OA
ATOM     23  HXT UNL     1      10.553  -0.757  -1.837  0.00  0.00    +0.000 HD
ENDBRANCH  20  22
ENDBRANCH  18  20
ENDBRANCH  13  14
ENDBRANCH   1  13
TORSDOF 8
