REMARK  Name = 
REMARK  3 active torsions:
REMARK  status: ('A' for Active; 'I' for Inactive)
REMARK    1  A    between atoms: C_2  and  C_3
REMARK    2  A    between atoms: C_7  and  C_8
REMARK    3  A    between atoms: C_8  and  N_9
REMARK                            x       y       z     vdW  Elec       q    Type
REMARK                         _______ _______ _______ _____ _____    ______ ____
ROOT
ATOM      1  C   UNL     1       2.392   2.464   0.003  0.00  0.00    +0.000 C 
ENDROOT
BRANCH   1   2
ATOM      2  N   UNL     1       3.844   2.310   0.011  0.00  0.00    +0.000 N 
ATOM      3  C   UNL     1       4.607   2.158  -1.123  0.00  0.00    +0.000 A 
ATOM      4  C   UNL     1       5.932   2.173  -0.752  0.00  0.00    +0.000 A 
ATOM      5  C   UNL     1       5.986   2.351   0.657  0.00  0.00    +0.000 A 
ATOM      6  C   UNL     1       7.033   2.467   1.581  0.00  0.00    +0.000 A 
ATOM      7  N   UNL     1       6.776   2.649   2.899  0.00  0.00    +0.000 NA
ATOM      8  C   UNL     1       5.491   2.709   3.306  0.00  0.00    +0.000 A 
ATOM      9  C   UNL     1       4.386   2.603   2.474  0.00  0.00    +0.000 A 
ATOM     10  C   UNL     1       4.666   2.425   1.116  0.00  0.00    +0.000 A 
ENDBRANCH   1   2
BRANCH   1  15
ATOM     11  C   UNL     1       0.692  -0.772  -1.111  0.00  0.00    +0.000 A 
ATOM     12  C   UNL     1       0.356  -1.347   0.117  0.00  0.00    +0.000 A 
ATOM     13  C   UNL     1       0.667  -0.685   1.304  0.00  0.00    +0.000 A 
ATOM     14  C   UNL     1       1.319   0.549   1.268  0.00  0.00    +0.000 A 
ATOM     15  C   UNL     1       1.675   1.137   0.045  0.00  0.00    +0.000 A 
ATOM     16  C   UNL     1       1.352   0.464  -1.145  0.00  0.00    +0.000 A 
BRANCH  11  18
ATOM     17  N   UNL     1       0.070  -1.967  -3.328  0.00  0.00    +0.000 NA
ATOM     18  C   UNL     1       0.353  -1.438  -2.334  0.00  0.00    +0.000 C 
ENDBRANCH  11  18
ENDBRANCH   1  15
TORSDOF 3
