REMARK  Name = 
REMARK  5 active torsions:
REMARK  status: ('A' for Active; 'I' for Inactive)
REMARK    1  A    between atoms: C_1  and  C_2
REMARK    2  A    between atoms: C_2  and  O_3
REMARK    3  A    between atoms: C_2  and  C_14
REMARK    4  A    between atoms: O_3  and  C_4
REMARK    5  A    between atoms: C_7  and  C_8
REMARK                            x       y       z     vdW  Elec       q    Type
REMARK                         _______ _______ _______ _____ _____    ______ ____
ROOT
ATOM      1  C   UNL     1       2.642   0.018  -2.370  0.00  0.00    +0.000 A 
ATOM      2  N   UNL     1       3.258  -1.184  -2.281  0.00  0.00    +0.000 NA
ATOM      3  C   UNL     1       3.402  -1.897  -3.429  0.00  0.00    +0.000 A 
ATOM      4  C   UNL     1       2.953  -1.475  -4.672  0.00  0.00    +0.000 A 
ATOM      5  C   UNL     1       2.304  -0.238  -4.733  0.00  0.00    +0.000 A 
ATOM      6  C   UNL     1       2.160   0.529  -3.575  0.00  0.00    +0.000 A 
ATOM      7  I   UNL     1       1.230   2.390  -3.720  0.00  0.00    +0.000 I 
ENDROOT
BRANCH   4   8
ATOM      8  C   UNL     1       3.121  -2.264  -5.919  0.00  0.00    +0.000 C 
ATOM      9  N   UNL     1       3.921  -3.369  -5.907  0.00  0.00    +0.000 N 
ATOM     10  O   UNL     1       2.563  -1.922  -6.958  0.00  0.00    +0.000 OA
ATOM     11  H   UNL     1       4.516  -3.663  -5.148  0.00  0.00    +0.000 HD
ATOM     12  H   UNL     1       4.049  -3.837  -6.797  0.00  0.00    +0.000 HD
ENDBRANCH   4   8
BRANCH   1  13
ATOM     13  O   UNL     1       2.558   0.802  -1.237  0.00  0.00    +0.000 OA
BRANCH  13  15
ATOM     14  C   UNL     1       1.166  -0.341   0.375  0.00  0.00    +0.000 C 
ATOM     15  C   UNL     1       2.589   0.096   0.012  0.00  0.00    +0.000 C 
BRANCH  15  16
ATOM     16  C   UNL     1       3.091   1.007   1.116  0.00  0.00    +0.000 A 
ATOM     17  C   UNL     1       2.936   2.396   1.098  0.00  0.00    +0.000 A 
ATOM     18  C   UNL     1       3.294   3.147   2.216  0.00  0.00    +0.000 A 
ATOM     19  C   UNL     1       3.803   2.484   3.320  0.00  0.00    +0.000 A 
ATOM     20  N   UNL     1       3.996   1.149   3.370  0.00  0.00    +0.000 NA
ATOM     21  C   UNL     1       3.640   0.447   2.271  0.00  0.00    +0.000 A 
ENDBRANCH  15  16
ENDBRANCH  13  15
ENDBRANCH   1  13
TORSDOF 4
