REMARK  Name = 
REMARK  7 active torsions:
REMARK  status: ('A' for Active; 'I' for Inactive)
REMARK    1  A    between atoms: C_2  and  C_20
REMARK    2  A    between atoms: N_3  and  C_4
REMARK    3  A    between atoms: C_4  and  C_5
REMARK    4  A    between atoms: C_8  and  N_9
REMARK    5  A    between atoms: N_9  and  C_10
REMARK    6  A    between atoms: C_10  and  C_11
REMARK    7  A    between atoms: C_11  and  C_12
REMARK                            x       y       z     vdW  Elec       q    Type
REMARK                         _______ _______ _______ _____ _____    ______ ____
ROOT
ATOM      1  C   UNL     1       3.126  -2.723  -2.326  0.00  0.00    +0.000 A 
ATOM      2  C   UNL     1       4.155  -2.186  -3.090  0.00  0.00    +0.000 A 
ATOM      3  C   UNL     1       5.011  -3.050  -3.768  0.00  0.00    +0.000 A 
ATOM      4  C   UNL     1       4.852  -4.430  -3.653  0.00  0.00    +0.000 A 
ATOM      5  C   UNL     1       3.734  -4.863  -2.939  0.00  0.00    +0.000 A 
ATOM      6  N   UNL     1       2.875  -4.054  -2.272  0.00  0.00    +0.000 NA
ENDROOT
BRANCH   4   7
ATOM      7  N   UNL     1       5.683  -5.372  -4.274  0.00  0.00    +0.000 N 
ATOM      8  H   UNL     1       5.266  -5.652  -5.162  0.00  0.00    +0.000 HD
BRANCH   7   9
ATOM      9  C   UNL     1       7.103  -5.026  -4.452  0.00  0.00    +0.000 C 
BRANCH   9  10
ATOM     10  C   UNL     1       7.805  -4.834  -3.101  0.00  0.00    +0.000 C 
BRANCH  10  11
ATOM     11  C   UNL     1       9.269  -4.507  -3.215  0.00  0.00    +0.000 A 
ATOM     12  C   UNL     1      10.008  -4.263  -2.060  0.00  0.00    +0.000 A 
ATOM     13  N   UNL     1      11.327  -3.956  -2.081  0.00  0.00    +0.000 NA
ATOM     14  C   UNL     1      11.884  -3.901  -3.310  0.00  0.00    +0.000 A 
ATOM     15  C   UNL     1      11.159  -4.139  -4.464  0.00  0.00    +0.000 A 
ATOM     16  N   UNL     1       9.841  -4.445  -4.443  0.00  0.00    +0.000 NA
ENDBRANCH  10  11
ENDBRANCH   9  10
ENDBRANCH   7   9
ENDBRANCH   4   7
BRANCH   1  17
ATOM     17  C   UNL     1       2.204  -1.817  -1.556  0.00  0.00    +0.000 C 
BRANCH  17  20
ATOM     18  O   UNL     1       1.897   0.386  -3.269  0.00  0.00    +0.000 OA
ATOM     19  C   UNL     1       0.959  -0.395  -3.137  0.00  0.00    +0.000 C 
ATOM     20  N   UNL     1       1.024  -1.496  -2.319  0.00  0.00    +0.000 N 
ATOM     21  H   UNL     1       0.341  -2.230  -2.422  0.00  0.00    +0.000 HD
BRANCH  19  22
ATOM     22  C   UNL     1      -0.333  -0.193  -3.791  0.00  0.00    +0.000 A 
ATOM     23  C   UNL     1      -1.461  -1.002  -3.684  0.00  0.00    +0.000 A 
ATOM     24  N   UNL     1      -2.498  -0.387  -4.334  0.00  0.00    +0.000 N 
ATOM     25  C   UNL     1      -2.075   0.795  -4.866  0.00  0.00    +0.000 A 
ATOM     26  N   UNL     1      -2.877   1.664  -5.506  0.00  0.00    +0.000 NA
ATOM     27  C   UNL     1      -2.217   2.760  -5.945  0.00  0.00    +0.000 A 
ATOM     28  C   UNL     1      -0.854   2.988  -5.821  0.00  0.00    +0.000 A 
ATOM     29  C   UNL     1      -0.070   2.050  -5.147  0.00  0.00    +0.000 A 
ATOM     30  C   UNL     1      -0.712   0.917  -4.614  0.00  0.00    +0.000 A 
ATOM     31  H   UNL     1      -3.450  -0.716  -4.396  0.00  0.00    +0.000 HD
ENDBRANCH  19  22
ENDBRANCH  17  20
ENDBRANCH   1  17
TORSDOF 7
