REMARK  Name = 
REMARK  5 active torsions:
REMARK  status: ('A' for Active; 'I' for Inactive)
REMARK    1  A    between atoms: C_2  and  C_3
REMARK    2  A    between atoms: C_6  and  C_7
REMARK    3  A    between atoms: C_11  and  C_12
REMARK    4  A    between atoms: C_12  and  N_13
REMARK    5  A    between atoms: C_17  and  C_18
REMARK                            x       y       z     vdW  Elec       q    Type
REMARK                         _______ _______ _______ _____ _____    ______ ____
ROOT
ATOM      1  C   UNL     1      -6.548  -1.488   1.896  0.00  0.00    +0.000 C 
ATOM      2  C   UNL     1      -6.677  -1.126   3.377  0.00  0.00    +0.000 C 
ATOM      3  C   UNL     1      -6.108  -2.444   2.990  0.00  0.00    +0.000 C 
ATOM      4  F   UNL     1      -4.754  -2.644   3.191  0.00  0.00    +0.000 F 
ENDROOT
BRANCH   1   5
ATOM      5  N   UNL     1      -5.615  -0.606   1.156  0.00  0.00    +0.000 N 
ATOM      6  C   UNL     1      -4.912  -0.985   0.013  0.00  0.00    +0.000 A 
ATOM      7  C   UNL     1      -4.435  -2.273  -0.190  0.00  0.00    +0.000 A 
ATOM      8  C   UNL     1      -3.676  -2.549  -1.330  0.00  0.00    +0.000 A 
ATOM      9  C   UNL     1      -3.410  -1.530  -2.241  0.00  0.00    +0.000 A 
ATOM     10  C   UNL     1      -3.911  -0.270  -1.958  0.00  0.00    +0.000 A 
ATOM     11  N   UNL     1      -4.661   0.015  -0.861  0.00  0.00    +0.000 NA
ATOM     12  H   UNL     1      -5.872   0.368   1.033  0.00  0.00    +0.000 HD
BRANCH   9  13
ATOM     13  C   UNL     1      -2.593  -1.726  -3.459  0.00  0.00    +0.000 C 
ATOM     14  N   UNL     1      -2.552  -2.989  -3.983  0.00  0.00    +0.000 N 
ATOM     15  O   UNL     1      -2.005  -0.798  -3.992  0.00  0.00    +0.000 OA
ATOM     16  H   UNL     1      -3.181  -3.727  -3.701  0.00  0.00    +0.000 HD
ATOM     17  H   UNL     1      -2.045  -3.108  -4.852  0.00  0.00    +0.000 HD
ENDBRANCH   9  13
ENDBRANCH   1   5
BRANCH   1  22
ATOM     18  C   UNL     1      -9.893  -1.214   0.007  0.00  0.00    +0.000 A 
ATOM     19  C   UNL     1     -10.256  -2.564   0.005  0.00  0.00    +0.000 A 
ATOM     20  C   UNL     1      -9.399  -3.493   0.565  0.00  0.00    +0.000 A 
ATOM     21  N   UNL     1      -8.216  -3.177   1.127  0.00  0.00    +0.000 NA
ATOM     22  C   UNL     1      -7.845  -1.870   1.164  0.00  0.00    +0.000 A 
ATOM     23  C   UNL     1      -8.666  -0.886   0.607  0.00  0.00    +0.000 A 
BRANCH  18  27
ATOM     24  C   UNL     1     -12.446   1.751  -1.640  0.00  0.00    +0.000 A 
ATOM     25  C   UNL     1     -11.079   1.950  -1.727  0.00  0.00    +0.000 A 
ATOM     26  C   UNL     1     -10.232   0.974  -1.197  0.00  0.00    +0.000 A 
ATOM     27  C   UNL     1     -10.758  -0.173  -0.577  0.00  0.00    +0.000 A 
ATOM     28  C   UNL     1     -12.155  -0.255  -0.544  0.00  0.00    +0.000 A 
ATOM     29  N   UNL     1     -13.004   0.669  -1.061  0.00  0.00    +0.000 NA
BRANCH  24  31
ATOM     30  N   UNL     1     -14.066   3.527  -2.619  0.00  0.00    +0.000 NA
ATOM     31  C   UNL     1     -13.357   2.719  -2.173  0.00  0.00    +0.000 C 
ENDBRANCH  24  31
ENDBRANCH  18  27
ENDBRANCH   1  22
TORSDOF 5
