REMARK  Name = 
REMARK  4 active torsions:
REMARK  status: ('A' for Active; 'I' for Inactive)
REMARK    1  A    between atoms: C_2  and  C_4
REMARK    2  A    between atoms: C_7  and  C_8
REMARK    3  A    between atoms: C_8  and  C_9
REMARK    4  A    between atoms: C_9  and  C_10
REMARK                            x       y       z     vdW  Elec       q    Type
REMARK                         _______ _______ _______ _____ _____    ______ ____
ROOT
ATOM      1  C   UNL     1       9.525  -1.422   2.587  0.00  0.00    +0.000 A 
ATOM      2  C   UNL     1       8.884  -0.474   3.386  0.00  0.00    +0.000 A 
ATOM      3  C   UNL     1       7.567  -0.705   3.788  0.00  0.00    +0.000 A 
ATOM      4  C   UNL     1       6.924  -1.881   3.390  0.00  0.00    +0.000 A 
ATOM      5  N   UNL     1       7.537  -2.807   2.611  0.00  0.00    +0.000 NA
ATOM      6  C   UNL     1       8.812  -2.553   2.221  0.00  0.00    +0.000 A 
ENDROOT
BRANCH   1   8
ATOM      7  N   UNL     1      11.758  -0.488   2.835  0.00  0.00    +0.000 N 
ATOM      8  C   UNL     1      10.906  -1.253   2.090  0.00  0.00    +0.000 C 
ATOM      9  O   UNL     1      11.284  -1.800   1.060  0.00  0.00    +0.000 OA
ATOM     10  H   UNL     1      12.722  -0.457   2.523  0.00  0.00    +0.000 HD
ATOM     11  H   UNL     1      11.571  -0.240   3.796  0.00  0.00    +0.000 HD
ENDBRANCH   1   8
BRANCH   4  12
ATOM     12  C   UNL     1       5.500  -2.157   3.807  0.00  0.00    +0.000 C 
BRANCH  12  13
ATOM     13  C   UNL     1       5.348  -3.408   4.653  0.00  0.00    +0.000 C 
ATOM     14  C   UNL     1       4.964  -4.714   3.979  0.00  0.00    +0.000 C 
ATOM     15  O   UNL     1       3.986  -3.894   4.625  0.00  0.00    +0.000 OA
BRANCH  13  16
ATOM     16  C   UNL     1       5.933  -3.465   6.059  0.00  0.00    +0.000 C 
ATOM     17  C   UNL     1       5.495  -2.265   6.913  0.00  0.00    +0.000 C 
ATOM     18  C   UNL     1       6.096  -2.312   8.314  0.00  0.00    +0.000 C 
ATOM     19  C   UNL     1       7.615  -2.434   8.258  0.00  0.00    +0.000 C 
ATOM     20  C   UNL     1       8.043  -3.665   7.464  0.00  0.00    +0.000 C 
ATOM     21  C   UNL     1       7.459  -3.639   6.055  0.00  0.00    +0.000 C 
ENDBRANCH  13  16
ENDBRANCH  12  13
ENDBRANCH   4  12
TORSDOF 4
