REMARK  Name = 
REMARK  5 active torsions:
REMARK  status: ('A' for Active; 'I' for Inactive)
REMARK    1  A    between atoms: N_1  and  C_2
REMARK    2  A    between atoms: C_2  and  C_3
REMARK    3  A    between atoms: C_6  and  O_7
REMARK    4  A    between atoms: O_7  and  C_8
REMARK    5  A    between atoms: C_8  and  C_9
REMARK                            x       y       z     vdW  Elec       q    Type
REMARK                         _______ _______ _______ _____ _____    ______ ____
ROOT
ATOM      1  C   UNL     1       3.025   1.184   0.871  0.00  0.00    +0.000 A 
ATOM      2  C   UNL     1       3.196   2.543   0.704  0.00  0.00    +0.000 A 
ATOM      3  N   UNL     1       3.460   3.397   1.711  0.00  0.00    +0.000 NA
ATOM      4  C   UNL     1       3.569   2.850   2.932  0.00  0.00    +0.000 A 
ATOM      5  N   UNL     1       3.430   1.548   3.217  0.00  0.00    +0.000 NA
ATOM      6  C   UNL     1       3.151   0.744   2.173  0.00  0.00    +0.000 A 
ENDROOT
BRANCH   1   7
ATOM      7  C   UNL     1       2.715   0.275  -0.271  0.00  0.00    +0.000 C 
BRANCH   7   8
ATOM      8  N   UNL     1       3.772   0.295  -1.273  0.00  0.00    +0.000 NA
ATOM      9  H   UNL     1       3.543  -0.359  -2.021  0.00  0.00    +0.000 HD
ATOM     10  H   UNL     1       4.641  -0.044  -0.859  0.00  0.00    +0.000 HD
ENDBRANCH   7   8
ENDBRANCH   1   7
BRANCH   4  11
ATOM     11  O   UNL     1       3.895   3.650   4.005  0.00  0.00    +0.000 OA
BRANCH  11  12
ATOM     12  C   UNL     1       3.531   5.007   3.773  0.00  0.00    +0.000 C 
BRANCH  12  13
ATOM     13  C   UNL     1       3.973   5.842   4.953  0.00  0.00    +0.000 A 
ATOM     14  C   UNL     1       3.535   5.542   6.253  0.00  0.00    +0.000 A 
ATOM     15  C   UNL     1       3.941   6.325   7.339  0.00  0.00    +0.000 A 
ATOM     16  C   UNL     1       4.784   7.415   7.134  0.00  0.00    +0.000 A 
ATOM     17 CL   UNL     1       5.279   8.372   8.476  0.00  0.00    +0.000 Cl
ATOM     18  C   UNL     1       5.218   7.720   5.846  0.00  0.00    +0.000 A 
ATOM     19  F   UNL     1       6.027   8.767   5.623  0.00  0.00    +0.000 F 
ATOM     20  C   UNL     1       4.819   6.944   4.760  0.00  0.00    +0.000 A 
ENDBRANCH  12  13
ENDBRANCH  11  12
ENDBRANCH   4  11
TORSDOF 5
