REMARK  Name = 
REMARK  11 active torsions:
REMARK  status: ('A' for Active; 'I' for Inactive)
REMARK    1  A    between atoms: C_1  and  O_2
REMARK    2  A    between atoms: O_2  and  C_3
REMARK    3  A    between atoms: C_3  and  C_5
REMARK    4  A    between atoms: C_8  and  O_9
REMARK    5  A    between atoms: O_9  and  C_10
REMARK    6  A    between atoms: C_10  and  C_11
REMARK    7  A    between atoms: C_11  and  C_12
REMARK    8  A    between atoms: C_11  and  C_13
REMARK    9  A    between atoms: C_11  and  C_14
REMARK   10  A    between atoms: C_18  and  C_19
REMARK   11  A    between atoms: C_19  and  N_20
REMARK                            x       y       z     vdW  Elec       q    Type
REMARK                         _______ _______ _______ _____ _____    ______ ____
ROOT
ATOM      1  C   UNL     1      11.055   0.330   1.028  0.00  0.00    +0.000 C 
ATOM      2  C   UNL     1      11.379   0.006   2.500  0.00  0.00    +0.000 C 
ATOM      3  C   UNL     1      11.489  -0.887   0.179  0.00  0.00    +0.000 C 
ENDROOT
BRANCH   1   4
ATOM      4  C   UNL     1      11.804   1.608   0.606  0.00  0.00    +0.000 A 
ATOM      5  C   UNL     1      11.551   2.829   1.238  0.00  0.00    +0.000 A 
ATOM      6  C   UNL     1      12.235   3.970   0.829  0.00  0.00    +0.000 A 
ATOM      7  C   UNL     1      13.168   3.872  -0.193  0.00  0.00    +0.000 A 
ATOM      8  C   UNL     1      13.391   2.630  -0.777  0.00  0.00    +0.000 A 
ATOM      9  N   UNL     1      12.717   1.512  -0.395  0.00  0.00    +0.000 NA
BRANCH   8  10
ATOM     10  C   UNL     1      14.446   2.477  -1.854  0.00  0.00    +0.000 C 
BRANCH  10  11
ATOM     11  N   UNL     1      14.196   3.306  -3.038  0.00  0.00    +0.000 NA
ATOM     12  H   UNL     1      13.319   2.993  -3.456  0.00  0.00    +0.000 HD
ATOM     13  H   UNL     1      14.919   3.107  -3.727  0.00  0.00    +0.000 HD
ENDBRANCH  10  11
ENDBRANCH   8  10
ENDBRANCH   1   4
BRANCH   1  14
ATOM     14  C   UNL     1       9.533   0.557   0.837  0.00  0.00    +0.000 C 
BRANCH  14  15
ATOM     15  O   UNL     1       8.757  -0.596   1.210  0.00  0.00    +0.000 OA
BRANCH  15  19
ATOM     16  C   UNL     1       4.700   0.021   0.735  0.00  0.00    +0.000 A 
ATOM     17  C   UNL     1       5.161  -1.208   1.217  0.00  0.00    +0.000 A 
ATOM     18  C   UNL     1       6.536  -1.413   1.375  0.00  0.00    +0.000 A 
ATOM     19  C   UNL     1       7.401  -0.377   1.045  0.00  0.00    +0.000 A 
ATOM     20  N   UNL     1       6.979   0.820   0.582  0.00  0.00    +0.000 NA
ATOM     21  C   UNL     1       5.644   0.991   0.435  0.00  0.00    +0.000 A 
BRANCH  16  22
ATOM     22  C   UNL     1       3.277   0.360   0.522  0.00  0.00    +0.000 C 
ATOM     23  O   UNL     1       2.908   1.429   0.061  0.00  0.00    +0.000 OA
BRANCH  22  25
ATOM     24  C   UNL     1       1.079  -0.381   0.741  0.00  0.00    +0.000 C 
ATOM     25  O   UNL     1       2.472  -0.658   0.910  0.00  0.00    +0.000 OA
ENDBRANCH  22  25
ENDBRANCH  16  22
ENDBRANCH  15  19
ENDBRANCH  14  15
ENDBRANCH   1  14
TORSDOF 8
