REMARK  Name = 
REMARK  3 active torsions:
REMARK  status: ('A' for Active; 'I' for Inactive)
REMARK    1  A    between atoms: C_2  and  C_4
REMARK    2  A    between atoms: N_8  and  C_9
REMARK    3  A    between atoms: C_9  and  C_10
REMARK                            x       y       z     vdW  Elec       q    Type
REMARK                         _______ _______ _______ _____ _____    ______ ____
ROOT
ATOM      1  C   UNL     1       4.099   1.532  -1.148  0.00  0.00    +0.000 A 
ATOM      2  C   UNL     1       5.358   0.943  -1.122  0.00  0.00    +0.000 A 
ATOM      3  C   UNL     1       5.863   0.382  -2.295  0.00  0.00    +0.000 A 
ATOM      4  C   UNL     1       5.123   0.456  -3.475  0.00  0.00    +0.000 A 
ATOM      5  N   UNL     1       5.698  -0.111  -4.618  0.00  0.00    +0.000 N 
ATOM      6  N   UNL     1       3.903   1.021  -3.514  0.00  0.00    +0.000 NA
ATOM      7  C   UNL     1       3.407   1.527  -2.351  0.00  0.00    +0.000 A 
ATOM      8  H   UNL     1       5.709  -1.120  -4.501  0.00  0.00    +0.000 HD
ENDROOT
BRANCH   1  10
ATOM      9  N   UNL     1       4.298   2.634   1.010  0.00  0.00    +0.000 N 
ATOM     10  C   UNL     1       3.468   2.125   0.049  0.00  0.00    +0.000 C 
ATOM     11  O   UNL     1       2.251   2.189   0.164  0.00  0.00    +0.000 OA
ATOM     12  H   UNL     1       3.850   3.123   1.775  0.00  0.00    +0.000 HD
ATOM     13  H   UNL     1       5.274   2.831   0.839  0.00  0.00    +0.000 HD
ENDBRANCH   1  10
BRANCH   5  14
ATOM     14  C   UNL     1       5.140   0.298  -5.902  0.00  0.00    +0.000 C 
BRANCH  14  15
ATOM     15  C   UNL     1       6.154   0.004  -7.032  0.00  0.00    +0.000 C 
ATOM     16  C   UNL     1       6.429  -1.500  -7.204  0.00  0.00    +0.000 C 
ATOM     17  C   UNL     1       7.459  -1.768  -8.301  0.00  0.00    +0.000 C 
ATOM     18  C   UNL     1       8.754  -1.001  -8.052  0.00  0.00    +0.000 C 
ATOM     19  C   UNL     1       8.491   0.494  -7.915  0.00  0.00    +0.000 C 
ATOM     20  C   UNL     1       7.466   0.785  -6.822  0.00  0.00    +0.000 C 
ENDBRANCH  14  15
ENDBRANCH   5  14
TORSDOF 3
