REMARK  Name = 
REMARK  4 active torsions:
REMARK  status: ('A' for Active; 'I' for Inactive)
REMARK    1  A    between atoms: C_2  and  C_5
REMARK    2  A    between atoms: N_10  and  C_11
REMARK    3  A    between atoms: C_11  and  C_12
REMARK    4  A    between atoms: C_16  and  C_17
REMARK                            x       y       z     vdW  Elec       q    Type
REMARK                         _______ _______ _______ _____ _____    ______ ____
ROOT
ATOM      1  C   UNL     1       2.114  -5.946  -0.034  0.00  0.00    +0.000 C 
ENDROOT
BRANCH   1   7
ATOM      2  C   UNL     1       5.778  -3.455  -1.645  0.00  0.00    +0.000 A 
ATOM      3  C   UNL     1       6.033  -2.949  -0.384  0.00  0.00    +0.000 A 
ATOM      4  C   UNL     1       5.207  -3.390   0.617  0.00  0.00    +0.000 A 
ATOM      5  N   UNL     1       4.218  -4.280   0.421  0.00  0.00    +0.000 NA
ATOM      6  C   UNL     1       4.025  -4.728  -0.828  0.00  0.00    +0.000 A 
ATOM      7  N   UNL     1       3.066  -5.687  -1.087  0.00  0.00    +0.000 N 
ATOM      8  N   UNL     1       4.752  -4.320  -1.874  0.00  0.00    +0.000 NA
ATOM      9  H   UNL     1       2.704  -5.565  -2.024  0.00  0.00    +0.000 HD
BRANCH   2  11
ATOM     10  F   UNL     1       7.707  -2.245  -2.435  0.00  0.00    +0.000 F 
ATOM     11  C   UNL     1       6.680  -3.070  -2.806  0.00  0.00    +0.000 C 
ATOM     12  F   UNL     1       6.024  -2.404  -3.798  0.00  0.00    +0.000 F 
ATOM     13  F   UNL     1       7.278  -4.142  -3.398  0.00  0.00    +0.000 F 
ENDBRANCH   2  11
ENDBRANCH   1   7
BRANCH   1  14
ATOM     14  C   UNL     1       1.119  -7.000  -0.471  0.00  0.00    +0.000 A 
ATOM     15  C   UNL     1       1.502  -8.346  -0.537  0.00  0.00    +0.000 A 
ATOM     16  C   UNL     1       0.572  -9.327  -0.875  0.00  0.00    +0.000 A 
ATOM     17  C   UNL     1      -0.754  -8.975  -1.130  0.00  0.00    +0.000 A 
ATOM     18  C   UNL     1      -1.184  -7.637  -1.055  0.00  0.00    +0.000 A 
ATOM     19  C   UNL     1      -0.213  -6.657  -0.764  0.00  0.00    +0.000 A 
BRANCH  18  20
ATOM     20  C   UNL     1      -2.607  -7.274  -1.205  0.00  0.00    +0.000 A 
ATOM     21  C   UNL     1      -3.645  -8.099  -0.766  0.00  0.00    +0.000 A 
ATOM     22  N   UNL     1      -4.959  -7.769  -0.844  0.00  0.00    +0.000 NA
ATOM     23  C   UNL     1      -5.208  -6.557  -1.380  0.00  0.00    +0.000 A 
ATOM     24  C   UNL     1      -4.199  -5.722  -1.819  0.00  0.00    +0.000 A 
ATOM     25  N   UNL     1      -2.887  -6.054  -1.739  0.00  0.00    +0.000 NA
ENDBRANCH  18  20
ENDBRANCH   1  14
TORSDOF 4
