REMARK  Name = 
REMARK  5 active torsions:
REMARK  status: ('A' for Active; 'I' for Inactive)
REMARK    1  A    between atoms: C_1  and  O_2
REMARK    2  A    between atoms: O_2  and  C_3
REMARK    3  A    between atoms: C_7  and  C_8
REMARK    4  A    between atoms: C_8  and  N_9
REMARK    5  A    between atoms: C_14  and  C_15
REMARK                            x       y       z     vdW  Elec       q    Type
REMARK                         _______ _______ _______ _____ _____    ______ ____
ROOT
ATOM      1  N   UNL     1       6.967   3.297  -2.661  0.00  0.00    +0.000 N 
ATOM      2  C   UNL     1       7.757   3.974  -1.770  0.00  0.00    +0.000 A 
ATOM      3  N   UNL     1       8.350   5.011  -2.327  0.00  0.00    +0.000 NA
ATOM      4  C   UNL     1       7.917   5.007  -3.629  0.00  0.00    +0.000 A 
ATOM      5  C   UNL     1       8.223   5.860  -4.698  0.00  0.00    +0.000 A 
ATOM      6  C   UNL     1       7.616   5.584  -5.929  0.00  0.00    +0.000 A 
ATOM      7  C   UNL     1       6.739   4.497  -6.016  0.00  0.00    +0.000 A 
ATOM      8  N   UNL     1       6.416   3.638  -5.010  0.00  0.00    +0.000 NA
ATOM      9  C   UNL     1       7.042   3.952  -3.859  0.00  0.00    +0.000 A 
ENDROOT
BRANCH   6  10
ATOM     10  C   UNL     1       7.859   6.375  -7.161  0.00  0.00    +0.000 C 
ATOM     11  N   UNL     1       8.744   7.416  -7.111  0.00  0.00    +0.000 N 
ATOM     12  O   UNL     1       7.288   6.106  -8.210  0.00  0.00    +0.000 OA
ATOM     13  H   UNL     1       9.271   7.700  -6.301  0.00  0.00    +0.000 HD
ATOM     14  H   UNL     1       8.900   7.921  -7.975  0.00  0.00    +0.000 HD
ENDBRANCH   6  10
BRANCH   1  15
ATOM     15  C   UNL     1       6.256   2.058  -2.403  0.00  0.00    +0.000 C 
BRANCH  15  20
ATOM     16  C   UNL     1       3.458   2.093   0.200  0.00  0.00    +0.000 A 
ATOM     17  C   UNL     1       2.470   2.810  -0.473  0.00  0.00    +0.000 A 
ATOM     18  C   UNL     1       2.692   3.251  -1.779  0.00  0.00    +0.000 A 
ATOM     19  C   UNL     1       3.907   2.992  -2.412  0.00  0.00    +0.000 A 
ATOM     20  C   UNL     1       4.925   2.302  -1.740  0.00  0.00    +0.000 A 
ATOM     21  C   UNL     1       4.677   1.838  -0.438  0.00  0.00    +0.000 A 
BRANCH  16  23
ATOM     22  C   UNL     1       2.168   1.897   2.186  0.00  0.00    +0.000 C 
ATOM     23  O   UNL     1       3.361   1.593   1.471  0.00  0.00    +0.000 OA
ENDBRANCH  16  23
ENDBRANCH  15  20
ENDBRANCH   1  15
TORSDOF 4
