REMARK  Name = 
REMARK  4 active torsions:
REMARK  status: ('A' for Active; 'I' for Inactive)
REMARK    1  A    between atoms: C_2  and  C_4
REMARK    2  A    between atoms: N_8  and  C_9
REMARK    3  A    between atoms: C_9  and  C_10
REMARK    4  A    between atoms: C_21  and  N_22
REMARK                            x       y       z     vdW  Elec       q    Type
REMARK                         _______ _______ _______ _____ _____    ______ ____
ROOT
ATOM      1  C   UNL     1       3.559   3.224  -1.803  0.00  0.00    +0.000 A 
ATOM      2  N   UNL     1       2.753   3.839  -0.888  0.00  0.00    +0.000 NA
ATOM      3  C   UNL     1       3.363   4.136   0.288  0.00  0.00    +0.000 A 
ATOM      4  C   UNL     1       4.704   3.865   0.556  0.00  0.00    +0.000 A 
ATOM      5  N   UNL     1       5.328   4.092   1.787  0.00  0.00    +0.000 N 
ATOM      6  N   UNL     1       5.483   3.274  -0.380  0.00  0.00    +0.000 NA
ATOM      7  C   UNL     1       4.911   2.946  -1.563  0.00  0.00    +0.000 A 
ATOM      8  H   UNL     1       6.311   3.866   1.644  0.00  0.00    +0.000 HD
ENDROOT
BRANCH   1  10
ATOM      9  N   UNL     1       1.709   3.402  -3.362  0.00  0.00    +0.000 N 
ATOM     10  C   UNL     1       2.901   2.787  -3.071  0.00  0.00    +0.000 C 
ATOM     11  O   UNL     1       3.363   1.919  -3.804  0.00  0.00    +0.000 OA
ATOM     12  H   UNL     1       1.196   3.126  -4.185  0.00  0.00    +0.000 HD
ATOM     13  H   UNL     1       1.317   4.075  -2.711  0.00  0.00    +0.000 HD
ENDBRANCH   1  10
BRANCH   5  14
ATOM     14  C   UNL     1       5.053   5.244   2.662  0.00  0.00    +0.000 C 
ATOM     15  C   UNL     1       5.007   4.915   4.151  0.00  0.00    +0.000 C 
ATOM     16  C   UNL     1       3.769   5.373   3.457  0.00  0.00    +0.000 C 
BRANCH  14  17
ATOM     17  C   UNL     1       5.789   6.514   2.240  0.00  0.00    +0.000 A 
ATOM     18  C   UNL     1       7.079   6.807   2.720  0.00  0.00    +0.000 A 
ATOM     19  C   UNL     1       7.789   7.929   2.282  0.00  0.00    +0.000 A 
ATOM     20  C   UNL     1       7.226   8.791   1.338  0.00  0.00    +0.000 A 
ATOM     21 CL   UNL     1       8.172  10.132   0.807  0.00  0.00    +0.000 Cl
ATOM     22  C   UNL     1       5.940   8.535   0.854  0.00  0.00    +0.000 A 
ATOM     23 CL   UNL     1       5.172   9.549  -0.313  0.00  0.00    +0.000 Cl
ATOM     24  C   UNL     1       5.234   7.411   1.308  0.00  0.00    +0.000 A 
ENDBRANCH  14  17
ENDBRANCH   5  14
BRANCH   7  25
ATOM     25  N   UNL     1       5.785   2.449  -2.528  0.00  0.00    +0.000 N 
ATOM     26  H   UNL     1       6.676   2.210  -2.109  0.00  0.00    +0.000 HD
ATOM     27  H   UNL     1       5.367   1.710  -3.092  0.00  0.00    +0.000 HD
ENDBRANCH   7  25
TORSDOF 4
