REMARK  Name = 
REMARK  9 active torsions:
REMARK  status: ('A' for Active; 'I' for Inactive)
REMARK    1  A    between atoms: C_1  and  C_2
REMARK    2  A    between atoms: C_2  and  C_3
REMARK    3  A    between atoms: C_3  and  N_4
REMARK    4  A    between atoms: C_10  and  C_11
REMARK    5  A    between atoms: N_13  and  C_14
REMARK    6  A    between atoms: C_14  and  C_15
REMARK    7  A    between atoms: C_18  and  C_19
REMARK    8  A    between atoms: C_19  and  N_20
REMARK    9  A    between atoms: C_21  and  C_23
REMARK                            x       y       z     vdW  Elec       q    Type
REMARK                         _______ _______ _______ _____ _____    ______ ____
ROOT
ATOM      1  C   UNL     1       8.147  -7.150   0.769  0.00  0.00    +0.000 C 
ENDROOT
BRANCH   1   2
ATOM      2  C   UNL     1       9.464  -7.888   0.853  0.00  0.00    +0.000 A 
ATOM      3  C   UNL     1       9.463  -9.289   0.847  0.00  0.00    +0.000 A 
ATOM      4  C   UNL     1      10.663 -10.019   0.902  0.00  0.00    +0.000 A 
ATOM      5  C   UNL     1      11.902  -9.364   0.971  0.00  0.00    +0.000 A 
ATOM      6  C   UNL     1      11.900  -7.966   1.006  0.00  0.00    +0.000 A 
ATOM      7  C   UNL     1      10.704  -7.235   0.939  0.00  0.00    +0.000 A 
BRANCH   5   8
ATOM      8  C   UNL     1      13.227 -10.082   1.002  0.00  0.00    +0.000 C 
BRANCH   8   9
ATOM      9  N   UNL     1      13.765 -10.318  -0.317  0.00  0.00    +0.000 N 
ATOM     10  C   UNL     1      14.978 -10.926  -0.541  0.00  0.00    +0.000 C 
ATOM     11  O   UNL     1      15.711 -11.361   0.348  0.00  0.00    +0.000 OA
ATOM     12  H   UNL     1      13.210 -10.043  -1.116  0.00  0.00    +0.000 HD
BRANCH  10  13
ATOM     13  C   UNL     1      15.256 -11.102  -2.040  0.00  0.00    +0.000 C 
ATOM     14  C   UNL     1      16.590 -11.797  -2.250  0.00  0.00    +0.000 C 
ATOM     15  C   UNL     1      17.541 -10.624  -2.362  0.00  0.00    +0.000 C 
ATOM     16  N   UNL     1      16.820  -9.698  -3.244  0.00  0.00    +0.000 NA
ATOM     17  C   UNL     1      15.410  -9.783  -2.812  0.00  0.00    +0.000 C 
ATOM     18  H   UNL     1      16.892 -10.057  -4.198  0.00  0.00    +0.000 HD
ENDBRANCH  10  13
ENDBRANCH   8   9
ENDBRANCH   5   8
ENDBRANCH   1   2
BRANCH   1  21
ATOM     19  C   UNL     1       6.359  -6.218   2.181  0.00  0.00    +0.000 C 
ATOM     20  O   UNL     1       5.718  -5.815   1.196  0.00  0.00    +0.000 OA
ATOM     21  N   UNL     1       7.563  -6.853   2.052  0.00  0.00    +0.000 N 
ATOM     22  H   UNL     1       7.936  -7.349   2.856  0.00  0.00    +0.000 HD
BRANCH  19  29
ATOM     23  N   UNL     1       6.828  -8.709   6.081  0.00  0.00    +0.000 N 
ATOM     24  C   UNL     1       6.241  -8.059   7.147  0.00  0.00    +0.000 A 
ATOM     25  N   UNL     1       5.619  -6.927   7.097  0.00  0.00    +0.000 NA
ATOM     26  C   UNL     1       5.556  -6.373   5.867  0.00  0.00    +0.000 A 
ATOM     27  S   UNL     1       4.705  -4.932   5.612  0.00  0.00    +0.000 S 
ATOM     28  C   UNL     1       5.109  -4.929   3.948  0.00  0.00    +0.000 A 
ATOM     29  C   UNL     1       5.891  -6.011   3.560  0.00  0.00    +0.000 A 
ATOM     30  C   UNL     1       6.142  -6.860   4.711  0.00  0.00    +0.000 A 
ATOM     31  C   UNL     1       6.889  -8.102   4.834  0.00  0.00    +0.000 A 
ATOM     32  O   UNL     1       7.599  -8.550   3.920  0.00  0.00    +0.000 OA
BRANCH  23  33
ATOM     33  C   UNL     1       7.557  -9.958   6.271  0.00  0.00    +0.000 C 
BRANCH  33  35
ATOM     34  C   UNL     1       9.786 -11.058   6.699  0.00  0.00    +0.000 C 
ATOM     35  C   UNL     1       9.058  -9.737   6.503  0.00  0.00    +0.000 C 
ENDBRANCH  33  35
ENDBRANCH  23  33
ENDBRANCH  19  29
ENDBRANCH   1  21
TORSDOF 8
