REMARK  Name = 
REMARK  7 active torsions:
REMARK  status: ('A' for Active; 'I' for Inactive)
REMARK    1  A    between atoms: C_2  and  C_20
REMARK    2  A    between atoms: N_3  and  C_4
REMARK    3  A    between atoms: C_4  and  C_5
REMARK    4  A    between atoms: C_8  and  C_9
REMARK    5  A    between atoms: C_9  and  C_10
REMARK    6  A    between atoms: C_10  and  O_11
REMARK    7  A    between atoms: C_10  and  C_12
REMARK                            x       y       z     vdW  Elec       q    Type
REMARK                         _______ _______ _______ _____ _____    ______ ____
ROOT
ATOM      1  C   UNL     1       2.129   0.496  -2.481  0.00  0.00    +0.000 C 
ENDROOT
BRANCH   1   2
ATOM      2  C   UNL     1       3.086   0.946  -3.566  0.00  0.00    +0.000 A 
ATOM      3  N   UNL     1       3.145   2.259  -3.842  0.00  0.00    +0.000 NA
ATOM      4  C   UNL     1       3.994   2.640  -4.818  0.00  0.00    +0.000 A 
ATOM      5  C   UNL     1       4.776   1.769  -5.550  0.00  0.00    +0.000 A 
ATOM      6  C   UNL     1       4.596   0.439  -5.219  0.00  0.00    +0.000 A 
ATOM      7  N   UNL     1       3.757  -0.001  -4.257  0.00  0.00    +0.000 NA
BRANCH   5   8
ATOM      8  C   UNL     1       5.782   2.176  -6.598  0.00  0.00    +0.000 C 
BRANCH   8   9
ATOM      9  C   UNL     1       5.932   3.686  -6.850  0.00  0.00    +0.000 C 
BRANCH   9  10
ATOM     10  C   UNL     1       6.896   3.951  -7.996  0.00  0.00    +0.000 A 
ATOM     11  N   UNL     1       6.409   3.975  -9.252  0.00  0.00    +0.000 NA
ATOM     12  C   UNL     1       7.288   4.281 -10.227  0.00  0.00    +0.000 A 
ATOM     13  C   UNL     1       8.617   4.548  -9.998  0.00  0.00    +0.000 A 
ATOM     14  C   UNL     1       9.019   4.480  -8.685  0.00  0.00    +0.000 A 
ATOM     15  N   UNL     1       8.188   4.183  -7.667  0.00  0.00    +0.000 NA
ENDBRANCH   9  10
BRANCH   9  16
ATOM     16  O   UNL     1       6.412   4.306  -5.641  0.00  0.00    +0.000 OA
ATOM     17  H   UNL     1       7.374   4.429  -5.776  0.00  0.00    +0.000 HD
ENDBRANCH   9  16
ENDBRANCH   8   9
ENDBRANCH   5   8
ENDBRANCH   1   2
BRANCH   1  20
ATOM     18  O   UNL     1      -0.238  -0.142  -1.012  0.00  0.00    +0.000 OA
ATOM     19  C   UNL     1      -0.228  -0.200  -2.232  0.00  0.00    +0.000 C 
ATOM     20  N   UNL     1       0.829   0.171  -3.026  0.00  0.00    +0.000 N 
ATOM     21  H   UNL     1       0.830  -0.111  -3.994  0.00  0.00    +0.000 HD
BRANCH  19  22
ATOM     22  C   UNL     1      -1.259  -0.877  -3.015  0.00  0.00    +0.000 A 
ATOM     23  C   UNL     1      -1.838  -2.065  -2.612  0.00  0.00    +0.000 A 
ATOM     24  S   UNL     1      -2.572  -2.884  -3.931  0.00  0.00    +0.000 S 
ATOM     25  C   UNL     1      -2.229  -1.597  -4.996  0.00  0.00    +0.000 A 
ATOM     26  N   UNL     1      -2.446  -1.676  -6.336  0.00  0.00    +0.000 NA
ATOM     27  C   UNL     1      -2.169  -0.591  -6.983  0.00  0.00    +0.000 A 
ATOM     28  N   UNL     1      -1.748   0.585  -6.408  0.00  0.00    +0.000 N 
ATOM     29  C   UNL     1      -1.553   0.723  -5.056  0.00  0.00    +0.000 A 
ATOM     30  O   UNL     1      -1.297   1.803  -4.540  0.00  0.00    +0.000 OA
ATOM     31  C   UNL     1      -1.708  -0.516  -4.320  0.00  0.00    +0.000 A 
ATOM     32  H   UNL     1      -1.644   1.426  -6.955  0.00  0.00    +0.000 HD
ENDBRANCH  19  22
ENDBRANCH   1  20
TORSDOF 7
