REMARK  Name = 
REMARK  11 active torsions:
REMARK  status: ('A' for Active; 'I' for Inactive)
REMARK    1  A    between atoms: C_1  and  C_2
REMARK    2  A    between atoms: C_2  and  C_3
REMARK    3  A    between atoms: C_2  and  N_4
REMARK    4  A    between atoms: C_2  and  C_23
REMARK    5  A    between atoms: N_4  and  C_5
REMARK    6  A    between atoms: C_5  and  C_6
REMARK    7  A    between atoms: C_9  and  C_10
REMARK    8  A    between atoms: C_10  and  O_12
REMARK    9  A    between atoms: C_14  and  N_15
REMARK   10  A    between atoms: N_15  and  C_16
REMARK   11  A    between atoms: C_16  and  C_17
REMARK                            x       y       z     vdW  Elec       q    Type
REMARK                         _______ _______ _______ _____ _____    ______ ____
ROOT
ATOM      1  C   UNL     1       3.031  -2.579  -2.633  0.00  0.00    +0.000 A 
ATOM      2  C   UNL     1       2.980  -3.963  -2.764  0.00  0.00    +0.000 A 
ATOM      3  N   UNL     1       3.335  -4.648  -3.863  0.00  0.00    +0.000 NA
ATOM      4  C   UNL     1       3.758  -3.890  -4.882  0.00  0.00    +0.000 A 
ATOM      5  N   UNL     1       3.842  -2.547  -4.883  0.00  0.00    +0.000 NA
ATOM      6  C   UNL     1       3.488  -1.886  -3.757  0.00  0.00    +0.000 A 
ENDROOT
BRANCH   4   7
ATOM      7  C   UNL     1       4.148  -4.565  -6.171  0.00  0.00    +0.000 C 
ATOM      8  O   UNL     1       4.073  -5.755  -6.418  0.00  0.00    +0.000 OA
BRANCH   7   9
ATOM      9  O   UNL     1       4.616  -3.642  -7.069  0.00  0.00    +0.000 OA
ATOM     10  H   UNL     1       4.630  -2.745  -6.661  0.00  0.00    +0.000 HD
ENDBRANCH   7   9
ENDBRANCH   4   7
BRANCH   6  11
ATOM     11  N   UNL     1       3.520  -0.508  -3.838  0.00  0.00    +0.000 N 
ATOM     12  H   UNL     1       3.557   0.046  -2.992  0.00  0.00    +0.000 HD
BRANCH  11  13
ATOM     13  C   UNL     1       3.406   0.187  -5.122  0.00  0.00    +0.000 C 
BRANCH  13  14
ATOM     14  C   UNL     1       4.632   0.163  -6.017  0.00  0.00    +0.000 A 
ATOM     15  C   UNL     1       4.479   0.299  -7.407  0.00  0.00    +0.000 A 
ATOM     16  C   UNL     1       5.591   0.182  -8.235  0.00  0.00    +0.000 A 
ATOM     17  N   UNL     1       6.839  -0.046  -7.765  0.00  0.00    +0.000 NA
ATOM     18  C   UNL     1       6.985  -0.103  -6.431  0.00  0.00    +0.000 A 
ATOM     19  C   UNL     1       5.932   0.019  -5.524  0.00  0.00    +0.000 A 
ENDBRANCH  13  14
ENDBRANCH  11  13
ENDBRANCH   6  11
BRANCH   1  20
ATOM     20  C   UNL     1       2.508  -1.990  -1.335  0.00  0.00    +0.000 C 
BRANCH  20  21
ATOM     21  N   UNL     1       3.498  -1.993  -0.253  0.00  0.00    +0.000 NA
ATOM     22  H   UNL     1       3.887  -2.931  -0.139  0.00  0.00    +0.000 HD
BRANCH  21  24
ATOM     23  C   UNL     1       1.950  -2.452   1.698  0.00  0.00    +0.000 C 
ATOM     24  C   UNL     1       3.010  -1.502   1.098  0.00  0.00    +0.000 C 
ATOM     25  C   UNL     1       4.256  -1.598   2.016  0.00  0.00    +0.000 C 
BRANCH  24  26
ATOM     26  C   UNL     1       2.472  -0.017   1.174  0.00  0.00    +0.000 C 
ATOM     27  F   UNL     1       1.209   0.028   1.661  0.00  0.00    +0.000 F 
ATOM     28  F   UNL     1       3.231   0.766   1.973  0.00  0.00    +0.000 F 
ATOM     29  F   UNL     1       2.438   0.583  -0.040  0.00  0.00    +0.000 F 
ENDBRANCH  24  26
ENDBRANCH  21  24
ENDBRANCH  20  21
ENDBRANCH   1  20
TORSDOF 9
