REMARK  Name = 
REMARK  5 active torsions:
REMARK  status: ('A' for Active; 'I' for Inactive)
REMARK    1  A    between atoms: C_1  and  C_2
REMARK    2  A    between atoms: N_6  and  C_7
REMARK    3  A    between atoms: C_7  and  C_8
REMARK    4  A    between atoms: C_12  and  C_13
REMARK    5  A    between atoms: C_17  and  C_18
REMARK                            x       y       z     vdW  Elec       q    Type
REMARK                         _______ _______ _______ _____ _____    ______ ____
ROOT
ATOM      1  C   UNL     1       5.355  -0.983  -0.051  0.00  0.00    +0.000 A 
ATOM      2  C   UNL     1       5.844   0.320  -0.062  0.00  0.00    +0.000 A 
ATOM      3  C   UNL     1       7.218   0.515  -0.097  0.00  0.00    +0.000 A 
ATOM      4  C   UNL     1       8.066  -0.587  -0.112  0.00  0.00    +0.000 A 
ATOM      5  C   UNL     1       7.524  -1.872  -0.087  0.00  0.00    +0.000 A 
ATOM      6  N   UNL     1       6.179  -2.070  -0.045  0.00  0.00    +0.000 NA
ENDROOT
BRANCH   5   7
ATOM      7  C   UNL     1       8.370  -3.080  -0.064  0.00  0.00    +0.000 A 
ATOM      8  C   UNL     1       9.640  -3.121  -0.646  0.00  0.00    +0.000 A 
ATOM      9  N   UNL     1      10.494  -4.173  -0.597  0.00  0.00    +0.000 NA
ATOM     10  C   UNL     1      10.062  -5.269   0.060  0.00  0.00    +0.000 A 
ATOM     11  C   UNL     1       8.813  -5.370   0.656  0.00  0.00    +0.000 A 
ATOM     12  C   UNL     1       8.384  -6.610   1.371  0.00  0.00    +0.000 C 
ATOM     13  C   UNL     1       7.963  -4.258   0.578  0.00  0.00    +0.000 A 
ENDBRANCH   5   7
BRANCH   1  14
ATOM     14  C   UNL     1       3.856  -1.229  -0.040  0.00  0.00    +0.000 C 
BRANCH  14  20
ATOM     15  C   UNL     1       1.246   2.947   4.184  0.00  0.00    +0.000 C 
ATOM     16  C   UNL     1       1.844   1.839   3.391  0.00  0.00    +0.000 A 
ATOM     17  C   UNL     1       1.853   1.808   2.014  0.00  0.00    +0.000 A 
ATOM     18  N   UNL     1       2.370   0.795   1.285  0.00  0.00    +0.000 NA
ATOM     19  C   UNL     1       2.885  -0.241   1.963  0.00  0.00    +0.000 A 
ATOM     20  N   UNL     1       3.330  -1.366   1.303  0.00  0.00    +0.000 N 
ATOM     21  N   UNL     1       2.946  -0.296   3.298  0.00  0.00    +0.000 NA
ATOM     22  C   UNL     1       2.424   0.740   3.984  0.00  0.00    +0.000 A 
ATOM     23  H   UNL     1       3.903  -1.909   1.938  0.00  0.00    +0.000 HD
ENDBRANCH  14  20
ENDBRANCH   1  14
TORSDOF 3
