REMARK  Name = 
REMARK  5 active torsions:
REMARK  status: ('A' for Active; 'I' for Inactive)
REMARK    1  A    between atoms: C_1  and  C_2
REMARK    2  A    between atoms: C_4  and  C_5
REMARK    3  A    between atoms: N_10  and  C_11
REMARK    4  A    between atoms: C_11  and  C_12
REMARK    5  A    between atoms: C_16  and  C_17
REMARK                            x       y       z     vdW  Elec       q    Type
REMARK                         _______ _______ _______ _____ _____    ______ ____
ROOT
ATOM      1  C   UNL     1      -2.851   3.026  -1.319  0.00  0.00    +0.000 C 
ATOM      2  C   UNL     1      -1.458   2.605  -1.670  0.00  0.00    +0.000 A 
ATOM      3  C   UNL     1      -1.150   2.125  -2.917  0.00  0.00    +0.000 A 
ATOM      4  C   UNL     1       0.166   1.766  -3.095  0.00  0.00    +0.000 A 
ATOM      5  N   UNL     1       1.128   1.858  -2.141  0.00  0.00    +0.000 NA
ATOM      6  C   UNL     1       0.726   2.325  -0.957  0.00  0.00    +0.000 A 
ATOM      7  N   UNL     1       1.591   2.390   0.112  0.00  0.00    +0.000 N 
ATOM      8  N   UNL     1      -0.530   2.710  -0.695  0.00  0.00    +0.000 NA
ATOM      9  H   UNL     1       1.188   3.008   0.809  0.00  0.00    +0.000 HD
ENDROOT
BRANCH   4  10
ATOM     10  C   UNL     1       0.593   1.236  -4.427  0.00  0.00    +0.000 C 
ATOM     11  N   UNL     1       1.912   0.888  -4.536  0.00  0.00    +0.000 N 
ATOM     12  O   UNL     1      -0.181   1.116  -5.369  0.00  0.00    +0.000 OA
ATOM     13  H   UNL     1       2.513   0.937  -3.721  0.00  0.00    +0.000 HD
ATOM     14  H   UNL     1       2.248   0.484  -5.396  0.00  0.00    +0.000 HD
ENDBRANCH   4  10
BRANCH   7  15
ATOM     15  C   UNL     1       3.003   2.596  -0.135  0.00  0.00    +0.000 C 
BRANCH  15  16
ATOM     16  C   UNL     1       3.376   4.066  -0.169  0.00  0.00    +0.000 A 
ATOM     17  C   UNL     1       3.392   4.757  -1.376  0.00  0.00    +0.000 A 
ATOM     18  C   UNL     1       3.783   6.090  -1.377  0.00  0.00    +0.000 A 
ATOM     19  C   UNL     1       4.121   6.704  -0.175  0.00  0.00    +0.000 A 
ATOM     20  C   UNL     1       4.044   5.979   1.015  0.00  0.00    +0.000 A 
ATOM     21  N   UNL     1       3.680   4.664   1.016  0.00  0.00    +0.000 NA
BRANCH  20  22
ATOM     22  C   UNL     1       4.309   6.609   2.333  0.00  0.00    +0.000 A 
ATOM     23  C   UNL     1       4.271   5.885   3.527  0.00  0.00    +0.000 A 
ATOM     24  C   UNL     1       4.451   6.547   4.740  0.00  0.00    +0.000 A 
ATOM     25  C   UNL     1       4.671   7.917   4.742  0.00  0.00    +0.000 A 
ATOM     26  C   UNL     1       4.718   8.568   3.523  0.00  0.00    +0.000 A 
ATOM     27  N   UNL     1       4.547   7.952   2.332  0.00  0.00    +0.000 NA
ENDBRANCH  20  22
ENDBRANCH  15  16
ENDBRANCH   7  15
TORSDOF 4
