REMARK  Name = 
REMARK  6 active torsions:
REMARK  status: ('A' for Active; 'I' for Inactive)
REMARK    1  A    between atoms: C_2  and  C_4
REMARK    2  A    between atoms: N_8  and  C_9
REMARK    3  A    between atoms: C_9  and  C_10
REMARK    4  A    between atoms: C_10  and  C_13
REMARK    5  A    between atoms: C_17  and  O_18
REMARK    6  A    between atoms: O_18  and  C_19
REMARK                            x       y       z     vdW  Elec       q    Type
REMARK                         _______ _______ _______ _____ _____    ______ ____
ROOT
ATOM      1  C   UNL     1       6.264   4.890  -1.359  0.00  0.00    +0.000 C 
ENDROOT
BRANCH   1   6
ATOM      2  C   UNL     1       3.025   1.286  -0.254  0.00  0.00    +0.000 A 
ATOM      3  C   UNL     1       3.237   2.081   0.846  0.00  0.00    +0.000 A 
ATOM      4  N   UNL     1       3.966   3.220   0.814  0.00  0.00    +0.000 NA
ATOM      5  C   UNL     1       4.508   3.565  -0.364  0.00  0.00    +0.000 A 
ATOM      6  N   UNL     1       5.168   4.775  -0.392  0.00  0.00    +0.000 N 
ATOM      7  N   UNL     1       4.405   2.825  -1.477  0.00  0.00    +0.000 NA
ATOM      8  C   UNL     1       3.665   1.695  -1.399  0.00  0.00    +0.000 A 
ATOM      9  H   UNL     1       5.384   5.046   0.563  0.00  0.00    +0.000 HD
BRANCH   2  11
ATOM     10  N   UNL     1       1.169   0.011   0.652  0.00  0.00    +0.000 N 
ATOM     11  C   UNL     1       2.193   0.077  -0.252  0.00  0.00    +0.000 C 
ATOM     12  O   UNL     1       2.380  -0.818  -1.067  0.00  0.00    +0.000 OA
ATOM     13  H   UNL     1       0.536  -0.774   0.550  0.00  0.00    +0.000 HD
ATOM     14  H   UNL     1       0.814   0.819   1.147  0.00  0.00    +0.000 HD
ENDBRANCH   2  11
ENDBRANCH   1   6
BRANCH   1  15
ATOM     15  C   UNL     1       6.941   6.283  -1.311  0.00  0.00    +0.000 C 
ATOM     16  F   UNL     1       5.992   7.243  -1.526  0.00  0.00    +0.000 F 
ATOM     17  F   UNL     1       7.377   6.493  -0.030  0.00  0.00    +0.000 F 
BRANCH  15  18
ATOM     18  C   UNL     1       8.062   6.385  -2.313  0.00  0.00    +0.000 A 
ATOM     19  C   UNL     1       9.368   6.090  -1.941  0.00  0.00    +0.000 A 
ATOM     20  N   UNL     1      10.423   6.156  -2.782  0.00  0.00    +0.000 NA
ATOM     21  C   UNL     1      10.162   6.545  -4.053  0.00  0.00    +0.000 A 
ATOM     22  C   UNL     1       8.896   6.852  -4.532  0.00  0.00    +0.000 A 
ATOM     23  C   UNL     1       7.831   6.779  -3.641  0.00  0.00    +0.000 A 
BRANCH  22  24
ATOM     24  O   UNL     1       8.805   7.236  -5.843  0.00  0.00    +0.000 OA
BRANCH  24  25
ATOM     25  C   UNL     1       7.548   7.064  -6.531  0.00  0.00    +0.000 C 
ATOM     26  C   UNL     1       7.084   5.608  -6.797  0.00  0.00    +0.000 C 
ATOM     27  C   UNL     1       6.669   6.045  -8.211  0.00  0.00    +0.000 C 
ATOM     28  C   UNL     1       7.633   7.233  -8.070  0.00  0.00    +0.000 C 
ENDBRANCH  24  25
ENDBRANCH  22  24
ENDBRANCH  15  18
ENDBRANCH   1  15
TORSDOF 6
