REMARK  Name = 
REMARK  4 active torsions:
REMARK  status: ('A' for Active; 'I' for Inactive)
REMARK    1  A    between atoms: C_1  and  C_2
REMARK    2  A    between atoms: C_2  and  C_3
REMARK    3  A    between atoms: C_2  and  C_12
REMARK    4  A    between atoms: C_6  and  C_7
REMARK                            x       y       z     vdW  Elec       q    Type
REMARK                         _______ _______ _______ _____ _____    ______ ____
ROOT
ATOM      1  C   UNL     1       0.974   0.060  -0.332  0.00  0.00    +0.000 A 
ATOM      2  C   UNL     1       0.316  -1.129  -0.637  0.00  0.00    +0.000 A 
ATOM      3  C   UNL     1      -1.053  -1.096  -0.911  0.00  0.00    +0.000 A 
ATOM      4  C   UNL     1      -1.745   0.117  -0.878  0.00  0.00    +0.000 A 
ATOM      5  C   UNL     1      -1.014   1.248  -0.548  0.00  0.00    +0.000 A 
ATOM      6  N   UNL     1       0.316   1.244  -0.290  0.00  0.00    +0.000 NA
ENDROOT
BRANCH   4   7
ATOM      7  C   UNL     1      -3.186   0.142  -1.221  0.00  0.00    +0.000 C 
ATOM      8  N   UNL     1      -3.868   1.325  -1.160  0.00  0.00    +0.000 N 
ATOM      9  O   UNL     1      -3.771  -0.880  -1.565  0.00  0.00    +0.000 OA
ATOM     10  H   UNL     1      -3.491   2.217  -0.881  0.00  0.00    +0.000 HD
ATOM     11  H   UNL     1      -4.846   1.295  -1.422  0.00  0.00    +0.000 HD
ENDBRANCH   4   7
BRANCH   1  13
ATOM     12  C   UNL     1       3.139   0.866  -1.256  0.00  0.00    +0.000 C 
ATOM     13  C   UNL     1       2.482   0.076  -0.117  0.00  0.00    +0.000 C 
BRANCH  13  14
ATOM     14  C   UNL     1       2.951   0.561   1.292  0.00  0.00    +0.000 C 
ATOM     15  C   UNL     1       2.423  -0.376   2.398  0.00  0.00    +0.000 C 
ATOM     16  C   UNL     1       2.813   0.082   3.801  0.00  0.00    +0.000 C 
ATOM     17  C   UNL     1       2.392   1.525   4.047  0.00  0.00    +0.000 C 
ATOM     18  C   UNL     1       3.035   2.447   3.020  0.00  0.00    +0.000 C 
ATOM     19  C   UNL     1       2.652   2.043   1.597  0.00  0.00    +0.000 C 
ENDBRANCH  13  14
ENDBRANCH   1  13
TORSDOF 3
