REMARK  Name = 
REMARK  5 active torsions:
REMARK  status: ('A' for Active; 'I' for Inactive)
REMARK    1  A    between atoms: C_2  and  C_5
REMARK    2  A    between atoms: C_9  and  N_10
REMARK    3  A    between atoms: N_10  and  C_11
REMARK    4  A    between atoms: C_11  and  C_12
REMARK    5  A    between atoms: C_14  and  C_15
REMARK                            x       y       z     vdW  Elec       q    Type
REMARK                         _______ _______ _______ _____ _____    ______ ____
ROOT
ATOM      1  C   UNL     1       4.356   1.285   4.419  0.00  0.00    +0.000 C 
ENDROOT
BRANCH   1   2
ATOM      2  C   UNL     1       4.948   1.752   5.737  0.00  0.00    +0.000 A 
ATOM      3  C   UNL     1       4.900   3.105   6.081  0.00  0.00    +0.000 A 
ATOM      4  C   UNL     1       5.376   3.538   7.328  0.00  0.00    +0.000 A 
ATOM      5  C   UNL     1       5.898   2.553   8.179  0.00  0.00    +0.000 A 
ATOM      6  C   UNL     1       5.910   1.229   7.766  0.00  0.00    +0.000 A 
ATOM      7  N   UNL     1       5.436   0.806   6.576  0.00  0.00    +0.000 NA
BRANCH   4   8
ATOM      8  C   UNL     1       5.310   4.959   7.733  0.00  0.00    +0.000 A 
ATOM      9  C   UNL     1       4.280   5.811   7.305  0.00  0.00    +0.000 A 
ATOM     10  C   UNL     1       4.234   7.144   7.717  0.00  0.00    +0.000 A 
ATOM     11  C   UNL     1       5.228   7.603   8.562  0.00  0.00    +0.000 A 
ATOM     12  N   UNL     1       6.241   6.836   9.002  0.00  0.00    +0.000 NA
ATOM     13  C   UNL     1       6.259   5.546   8.575  0.00  0.00    +0.000 A 
ENDBRANCH   4   8
ENDBRANCH   1   2
BRANCH   1  14
ATOM     14  N   UNL     1       2.934   1.001   4.609  0.00  0.00    +0.000 N 
ATOM     15  H   UNL     1       2.809   0.328   5.364  0.00  0.00    +0.000 HD
BRANCH  14  20
ATOM     16  C   UNL     1       2.095   0.322   1.150  0.00  0.00    +0.000 A 
ATOM     17  C   UNL     1       0.764  -0.047   1.282  0.00  0.00    +0.000 A 
ATOM     18  N   UNL     1       0.140  -0.114   2.478  0.00  0.00    +0.000 NA
ATOM     19  C   UNL     1       0.908   0.219   3.545  0.00  0.00    +0.000 A 
ATOM     20  C   UNL     1       2.253   0.589   3.457  0.00  0.00    +0.000 A 
ATOM     21  N   UNL     1       2.851   0.643   2.248  0.00  0.00    +0.000 NA
BRANCH  16  23
ATOM     22  F   UNL     1       1.803   0.148  -1.232  0.00  0.00    +0.000 F 
ATOM     23  C   UNL     1       2.705   0.388  -0.232  0.00  0.00    +0.000 C 
ATOM     24  F   UNL     1       3.703  -0.521  -0.422  0.00  0.00    +0.000 F 
ATOM     25  F   UNL     1       3.245   1.606  -0.521  0.00  0.00    +0.000 F 
ENDBRANCH  16  23
ENDBRANCH  14  20
ENDBRANCH   1  14
TORSDOF 5
