REMARK  Name = 
REMARK  8 active torsions:
REMARK  status: ('A' for Active; 'I' for Inactive)
REMARK    1  A    between atoms: C_1  and  C_2
REMARK    2  A    between atoms: C_4  and  C_5
REMARK    3  A    between atoms: C_10  and  N_11
REMARK    4  A    between atoms: N_11  and  C_12
REMARK    5  A    between atoms: C_12  and  C_13
REMARK    6  A    between atoms: C_17  and  C_18
REMARK    7  A    between atoms: CA_21  and  C_22
REMARK    8  A    between atoms: C_22  and  O_23
REMARK                            x       y       z     vdW  Elec       q    Type
REMARK                         _______ _______ _______ _____ _____    ______ ____
ROOT
ATOM      1  C   UNL     1       2.381  -2.565   0.023  0.00  0.00    +0.000 C 
ATOM      2  C   UNL     1       3.325  -2.371   1.227  0.00  0.00    +0.000 C 
ATOM      3  C   UNL     1       3.708  -1.834  -0.099  0.00  0.00    +0.000 C 
ENDROOT
BRANCH   1   4
ATOM      4  C   UNL     1       2.353  -3.980  -0.581  0.00  0.00    +0.000 A 
ATOM      5  C   UNL     1       2.322  -4.192  -1.964  0.00  0.00    +0.000 A 
ATOM      6  C   UNL     1       2.409  -5.479  -2.498  0.00  0.00    +0.000 A 
ATOM      7  C   UNL     1       2.542  -6.586  -1.653  0.00  0.00    +0.000 A 
ATOM      8  C   UNL     1       2.576  -6.434  -0.260  0.00  0.00    +0.000 A 
ATOM      9  C   UNL     1       2.444  -5.124   0.242  0.00  0.00    +0.000 A 
BRANCH   8  10
ATOM     10  C   UNL     1       2.808  -7.572   0.657  0.00  0.00    +0.000 A 
ATOM     11  C   UNL     1       2.220  -7.645   1.927  0.00  0.00    +0.000 A 
ATOM     12  C   UNL     1       2.507  -8.702   2.793  0.00  0.00    +0.000 A 
ATOM     13  CA  UNL     1       3.383  -9.696   2.374  0.00  0.00    +0.000 A 
ATOM     14  N   UNL     1       3.978  -9.668   1.156  0.00  0.00    +0.000 NA
ATOM     15  C   UNL     1       3.677  -8.620   0.342  0.00  0.00    +0.000 A 
BRANCH  13  16
ATOM     16  C   UNL     1       3.701 -10.869   3.269  0.00  0.00    +0.000 C 
BRANCH  16  17
ATOM     17  O   UNL     1       5.109 -11.010   3.441  0.00  0.00    +0.000 OA
ATOM     18  H   UNL     1       5.493 -10.775   2.574  0.00  0.00    +0.000 HD
ENDBRANCH  16  17
ENDBRANCH  13  16
ENDBRANCH   8  10
ENDBRANCH   1   4
BRANCH   1  19
ATOM     19  N   UNL     1       1.043  -2.010   0.252  0.00  0.00    +0.000 N 
ATOM     20  H   UNL     1       0.413  -2.573   0.817  0.00  0.00    +0.000 HD
BRANCH  19  27
ATOM     21  C   UNL     1       1.995   0.101  -1.857  0.00  0.00    +0.000 C 
ATOM     22  C   UNL     1       0.665   0.004  -1.191  0.00  0.00    +0.000 A 
ATOM     23  C   UNL     1      -0.254   1.033  -1.494  0.00  0.00    +0.000 A 
ATOM     24  C   UNL     1      -1.541   1.047  -0.966  0.00  0.00    +0.000 A 
ATOM     25  C   UNL     1      -1.860   0.002  -0.131  0.00  0.00    +0.000 A 
ATOM     26  N   UNL     1      -0.988  -0.988   0.215  0.00  0.00    +0.000 NA
ATOM     27  C   UNL     1       0.279  -0.985  -0.290  0.00  0.00    +0.000 A 
BRANCH  24  28
ATOM     28  C   UNL     1      -2.442   2.170  -1.334  0.00  0.00    +0.000 C 
ATOM     29  N   UNL     1      -3.716   2.200  -0.846  0.00  0.00    +0.000 N 
ATOM     30  O   UNL     1      -2.057   3.071  -2.070  0.00  0.00    +0.000 OA
ATOM     31  H   UNL     1      -4.138   1.523  -0.231  0.00  0.00    +0.000 HD
ATOM     32  H   UNL     1      -4.280   2.994  -1.129  0.00  0.00    +0.000 HD
ENDBRANCH  24  28
ENDBRANCH  19  27
ENDBRANCH   1  19
TORSDOF 7
