REMARK  Name = 
REMARK  5 active torsions:
REMARK  status: ('A' for Active; 'I' for Inactive)
REMARK    1  A    between atoms: C_1  and  C_2
REMARK    2  A    between atoms: C_2  and  C_3
REMARK    3  A    between atoms: C_5  and  N_6
REMARK    4  A    between atoms: C_5  and  C_16
REMARK    5  A    between atoms: C_10  and  C_11
REMARK                            x       y       z     vdW  Elec       q    Type
REMARK                         _______ _______ _______ _____ _____    ______ ____
ROOT
ATOM      1  C   UNL     1       1.190  -1.354  -0.157  0.00  0.00    +0.000 C 
ATOM      2  C   UNL     1       0.448  -0.024  -0.028  0.00  0.00    +0.000 C 
ATOM      3  C   UNL     1       1.433   1.144   0.018  0.00  0.00    +0.000 C 
ATOM      4  C   UNL     1      -0.609   0.021   1.106  0.00  0.00    +0.000 C 
ATOM      5  C   UNL     1      -1.766  -0.067   0.063  0.00  0.00    +0.000 C 
ATOM      6  C   UNL     1      -0.695   0.168  -1.057  0.00  0.00    +0.000 C 
ENDROOT
BRANCH   5   7
ATOM      7  N   UNL     1      -2.292  -1.405  -0.037  0.00  0.00    +0.000 N 
ATOM      8  C   UNL     1      -3.083  -2.063   0.903  0.00  0.00    +0.000 A 
ATOM      9  N   UNL     1      -3.714  -1.371   1.859  0.00  0.00    +0.000 NA
ATOM     10  C   UNL     1      -4.545  -2.048   2.682  0.00  0.00    +0.000 A 
ATOM     11  C   UNL     1      -4.753  -3.402   2.596  0.00  0.00    +0.000 A 
ATOM     12  C   UNL     1      -4.011  -4.039   1.631  0.00  0.00    +0.000 A 
ATOM     13  N   UNL     1      -3.181  -3.396   0.773  0.00  0.00    +0.000 NA
ATOM     14  H   UNL     1      -1.717  -2.102  -0.495  0.00  0.00    +0.000 HD
BRANCH  11  15
ATOM     15  C   UNL     1      -5.696  -4.064   3.509  0.00  0.00    +0.000 C 
ATOM     16  N   UNL     1      -6.252  -5.249   3.112  0.00  0.00    +0.000 N 
ATOM     17  O   UNL     1      -6.010  -3.549   4.574  0.00  0.00    +0.000 OA
ATOM     18  H   UNL     1      -6.226  -5.590   2.161  0.00  0.00    +0.000 HD
ATOM     19  H   UNL     1      -6.991  -5.607   3.706  0.00  0.00    +0.000 HD
ENDBRANCH  11  15
ENDBRANCH   5   7
BRANCH   5  20
ATOM     20  C   UNL     1      -2.959   0.997   0.122  0.00  0.00    +0.000 A 
ATOM     21  C   UNL     1      -3.376   1.615   1.314  0.00  0.00    +0.000 A 
ATOM     22  N   UNL     1      -4.385   2.517   1.445  0.00  0.00    +0.000 NA
ATOM     23  C   UNL     1      -5.056   2.823   0.318  0.00  0.00    +0.000 A 
ATOM     24  C   UNL     1      -4.751   2.283  -0.915  0.00  0.00    +0.000 A 
ATOM     25  F   UNL     1      -5.451   2.625  -2.002  0.00  0.00    +0.000 F 
ATOM     26  C   UNL     1      -3.702   1.374  -1.013  0.00  0.00    +0.000 A 
ENDBRANCH   5  20
TORSDOF 3
