REMARK  Name = 
REMARK  7 active torsions:
REMARK  status: ('A' for Active; 'I' for Inactive)
REMARK    1  A    between atoms: C_2  and  C_3
REMARK    2  A    between atoms: C_6  and  C_7
REMARK    3  A    between atoms: N_9  and  C_10
REMARK    4  A    between atoms: C_10  and  C_11
REMARK    5  A    between atoms: C_14  and  C_15
REMARK    6  A    between atoms: C_15  and  N_16
REMARK    7  A    between atoms: C_17  and  C_19
REMARK                            x       y       z     vdW  Elec       q    Type
REMARK                         _______ _______ _______ _____ _____    ______ ____
ROOT
ATOM      1  C   UNL     1       4.820   2.787   5.675  0.00  0.00    +0.000 A 
ATOM      2  C   UNL     1       4.394   4.119   5.782  0.00  0.00    +0.000 A 
ATOM      3  C   UNL     1       3.307   4.461   6.599  0.00  0.00    +0.000 A 
ATOM      4  C   UNL     1       2.635   3.481   7.343  0.00  0.00    +0.000 A 
ATOM      5  C   UNL     1       3.051   2.149   7.220  0.00  0.00    +0.000 A 
ATOM      6  C   UNL     1       4.138   1.807   6.407  0.00  0.00    +0.000 A 
ENDROOT
BRANCH   1   7
ATOM      7  C   UNL     1       5.989   2.414   4.798  0.00  0.00    +0.000 C 
BRANCH   7  10
ATOM      8  C   UNL     1       8.437   2.241   4.847  0.00  0.00    +0.000 C 
ATOM      9  O   UNL     1       8.489   1.896   3.671  0.00  0.00    +0.000 OA
ATOM     10  N   UNL     1       7.251   2.495   5.501  0.00  0.00    +0.000 N 
ATOM     11  H   UNL     1       7.246   2.766   6.475  0.00  0.00    +0.000 HD
BRANCH   8  15
ATOM     12  C   UNL     1      12.028   2.025   6.040  0.00  0.00    +0.000 C 
ATOM     13  C   UNL     1      11.266   1.244   7.114  0.00  0.00    +0.000 C 
ATOM     14  C   UNL     1       9.775   1.540   6.902  0.00  0.00    +0.000 C 
ATOM     15  C   UNL     1       9.681   2.476   5.696  0.00  0.00    +0.000 C 
ATOM     16  C   UNL     1      10.990   2.226   4.938  0.00  0.00    +0.000 C 
BRANCH  12  18
ATOM     17  N   UNL     1      12.897   4.329   6.976  0.00  0.00    +0.000 NA
ATOM     18  C   UNL     1      12.521   3.315   6.562  0.00  0.00    +0.000 C 
ENDBRANCH  12  18
ENDBRANCH   8  15
ENDBRANCH   7  10
ENDBRANCH   1   7
BRANCH   4  19
ATOM     19  C   UNL     1       1.477   3.836   8.244  0.00  0.00    +0.000 C 
BRANCH  19  20
ATOM     20  N   UNL     1       0.219   3.771   7.547  0.00  0.00    +0.000 N 
ATOM     21  C   UNL     1      -0.964   4.084   8.173  0.00  0.00    +0.000 C 
ATOM     22  O   UNL     1      -1.004   4.479   9.334  0.00  0.00    +0.000 OA
ATOM     23  H   UNL     1       0.193   3.211   6.702  0.00  0.00    +0.000 HD
BRANCH  21  24
ATOM     24  C   UNL     1      -2.179   3.981   7.354  0.00  0.00    +0.000 A 
ATOM     25  C   UNL     1      -3.294   4.749   7.665  0.00  0.00    +0.000 A 
ATOM     26  S   UNL     1      -4.593   4.537   6.578  0.00  0.00    +0.000 S 
ATOM     27  C   UNL     1      -3.729   3.373   5.686  0.00  0.00    +0.000 A 
ATOM     28  N   UNL     1      -4.289   2.756   4.611  0.00  0.00    +0.000 NA
ATOM     29  C   UNL     1      -3.530   1.877   4.045  0.00  0.00    +0.000 A 
ATOM     30  N   UNL     1      -2.260   1.563   4.453  0.00  0.00    +0.000 N 
ATOM     31  C   UNL     1      -1.644   2.180   5.516  0.00  0.00    +0.000 A 
ATOM     32  O   UNL     1      -0.490   1.907   5.827  0.00  0.00    +0.000 OA
ATOM     33  C   UNL     1      -2.460   3.166   6.195  0.00  0.00    +0.000 A 
ATOM     34  H   UNL     1      -1.712   0.874   3.961  0.00  0.00    +0.000 HD
ENDBRANCH  21  24
ENDBRANCH  19  20
ENDBRANCH   4  19
TORSDOF 7
