REMARK  Name = 
REMARK  6 active torsions:
REMARK  status: ('A' for Active; 'I' for Inactive)
REMARK    1  A    between atoms: C_1  and  C_2
REMARK    2  A    between atoms: C_4  and  N_5
REMARK    3  A    between atoms: N_5  and  C_6
REMARK    4  A    between atoms: C_6  and  C_7
REMARK    5  A    between atoms: C_11  and  C_12
REMARK    6  A    between atoms: C_20  and  C_21
REMARK                            x       y       z     vdW  Elec       q    Type
REMARK                         _______ _______ _______ _____ _____    ______ ____
ROOT
ATOM      1  N   UNL     1       1.743  -2.361   0.095  0.00  0.00    +0.000 N 
ATOM      2  H   UNL     1       2.733  -2.238  -0.072  0.00  0.00    +0.000 HD
ENDROOT
BRANCH   1   6
ATOM      3  C   UNL     1      -2.602   0.038   0.082  0.00  0.00    +0.000 C 
ATOM      4  C   UNL     1      -1.102   0.016   0.076  0.00  0.00    +0.000 A 
ATOM      5  C   UNL     1      -0.393  -1.190   0.070  0.00  0.00    +0.000 A 
ATOM      6  C   UNL     1       1.005  -1.200   0.054  0.00  0.00    +0.000 A 
ATOM      7  N   UNL     1       1.712  -0.051   0.044  0.00  0.00    +0.000 NA
ATOM      8  C   UNL     1       1.008   1.121   0.062  0.00  0.00    +0.000 A 
ATOM      9  C   UNL     1      -0.378   1.202   0.079  0.00  0.00    +0.000 A 
BRANCH   8  10
ATOM     10  C   UNL     1       1.801   2.396   0.075  0.00  0.00    +0.000 C 
ATOM     11  N   UNL     1       3.162   2.265   0.055  0.00  0.00    +0.000 N 
ATOM     12  O   UNL     1       1.275   3.506   0.104  0.00  0.00    +0.000 OA
ATOM     13  H   UNL     1       3.581   1.342   0.037  0.00  0.00    +0.000 HD
ATOM     14  H   UNL     1       3.745   3.089   0.068  0.00  0.00    +0.000 HD
ENDBRANCH   8  10
ENDBRANCH   1   6
BRANCH   1  15
ATOM     15  C   UNL     1       1.168  -3.690  -0.002  0.00  0.00    +0.000 C 
BRANCH  15  16
ATOM     16  C   UNL     1       2.215  -4.790  -0.059  0.00  0.00    +0.000 A 
ATOM     17  C   UNL     1       2.716  -5.349   1.114  0.00  0.00    +0.000 A 
ATOM     18  C   UNL     1       3.615  -6.406   1.023  0.00  0.00    +0.000 A 
ATOM     19  C   UNL     1       3.990  -6.878  -0.231  0.00  0.00    +0.000 A 
ATOM     20  C   UNL     1       3.453  -6.286  -1.372  0.00  0.00    +0.000 A 
ATOM     21  N   UNL     1       2.590  -5.237  -1.288  0.00  0.00    +0.000 NA
BRANCH  20  22
ATOM     22  C   UNL     1       3.749  -6.768  -2.732  0.00  0.00    +0.000 A 
ATOM     23  C   UNL     1       3.767  -5.907  -3.838  0.00  0.00    +0.000 A 
ATOM     24  C   UNL     1       4.030  -6.396  -5.117  0.00  0.00    +0.000 A 
ATOM     25  C   UNL     1       4.271  -7.750  -5.266  0.00  0.00    +0.000 A 
ATOM     26  N   UNL     1       4.271  -8.624  -4.240  0.00  0.00    +0.000 NA
ATOM     27  C   UNL     1       4.007  -8.113  -3.011  0.00  0.00    +0.000 A 
ENDBRANCH  20  22
ENDBRANCH  15  16
ENDBRANCH   1  15
TORSDOF 5
