REMARK  Name = 
REMARK  6 active torsions:
REMARK  status: ('A' for Active; 'I' for Inactive)
REMARK    1  A    between atoms: N_1  and  C_2
REMARK    2  A    between atoms: C_2  and  C_3
REMARK    3  A    between atoms: C_7  and  O_8
REMARK    4  A    between atoms: O_8  and  C_9
REMARK    5  A    between atoms: C_9  and  C_10
REMARK    6  A    between atoms: C_10  and  C_11
REMARK                            x       y       z     vdW  Elec       q    Type
REMARK                         _______ _______ _______ _____ _____    ______ ____
ROOT
ATOM      1  C   UNL     1       2.934   1.057   1.043  0.00  0.00    +0.000 A 
ATOM      2  C   UNL     1       3.566   0.722   2.234  0.00  0.00    +0.000 A 
ATOM      3  N   UNL     1       3.936   1.622   3.171  0.00  0.00    +0.000 NA
ATOM      4  C   UNL     1       3.665   2.925   2.905  0.00  0.00    +0.000 A 
ATOM      5  C   UNL     1       3.044   3.376   1.746  0.00  0.00    +0.000 A 
ATOM      6  C   UNL     1       2.681   2.414   0.808  0.00  0.00    +0.000 A 
ENDROOT
BRANCH   1   7
ATOM      7  C   UNL     1       2.501   0.015   0.053  0.00  0.00    +0.000 C 
BRANCH   7   8
ATOM      8  N   UNL     1       3.129   0.215  -1.248  0.00  0.00    +0.000 NA
ATOM      9  H   UNL     1       2.846  -0.536  -1.875  0.00  0.00    +0.000 HD
ATOM     10  H   UNL     1       4.140   0.137  -1.146  0.00  0.00    +0.000 HD
ENDBRANCH   7   8
ENDBRANCH   1   7
BRANCH   5  11
ATOM     11  O   UNL     1       2.837   4.726   1.629  0.00  0.00    +0.000 OA
BRANCH  11  12
ATOM     12  C   UNL     1       2.193   5.146   0.419  0.00  0.00    +0.000 C 
BRANCH  12  13
ATOM     13  C   UNL     1       2.004   6.661   0.431  0.00  0.00    +0.000 C 
BRANCH  13  14
ATOM     14  C   UNL     1       1.308   7.148  -0.816  0.00  0.00    +0.000 A 
ATOM     15  C   UNL     1      -0.087   7.217  -0.874  0.00  0.00    +0.000 A 
ATOM     16  C   UNL     1      -0.686   7.662  -2.043  0.00  0.00    +0.000 A 
ATOM     17  N   UNL     1      -0.001   8.029  -3.146  0.00  0.00    +0.000 NA
ATOM     18  C   UNL     1       1.345   7.945  -3.076  0.00  0.00    +0.000 A 
ATOM     19  C   UNL     1       2.036   7.512  -1.953  0.00  0.00    +0.000 A 
ENDBRANCH  13  14
ENDBRANCH  12  13
ENDBRANCH  11  12
ENDBRANCH   5  11
TORSDOF 6
