REMARK  Name = 
REMARK  7 active torsions:
REMARK  status: ('A' for Active; 'I' for Inactive)
REMARK    1  A    between atoms: C_1  and  O_2
REMARK    2  A    between atoms: O_2  and  C_3
REMARK    3  A    between atoms: N_9  and  C_10
REMARK    4  A    between atoms: C_10  and  C_11
REMARK    5  A    between atoms: C_14  and  C_15
REMARK    6  A    between atoms: C_15  and  C_16
REMARK    7  A    between atoms: C_16  and  N_17
REMARK                            x       y       z     vdW  Elec       q    Type
REMARK                         _______ _______ _______ _____ _____    ______ ____
ROOT
ATOM      1  C   UNL     1       6.740  -1.293  -2.965  0.00  0.00    +0.000 C 
ENDROOT
BRANCH   1   8
ATOM      2  C   UNL     1       3.233  -0.060  -5.610  0.00  0.00    +0.000 A 
ATOM      3  C   UNL     1       3.059   1.317  -5.515  0.00  0.00    +0.000 A 
ATOM      4  N   UNL     1       3.746   2.148  -4.699  0.00  0.00    +0.000 NA
ATOM      5  C   UNL     1       4.676   1.542  -3.922  0.00  0.00    +0.000 A 
ATOM      6  C   UNL     1       5.557   2.129  -2.988  0.00  0.00    +0.000 A 
ATOM      7  C   UNL     1       6.341   1.122  -2.470  0.00  0.00    +0.000 A 
ATOM      8  N   UNL     1       5.965  -0.062  -3.066  0.00  0.00    +0.000 N 
ATOM      9  C   UNL     1       4.926   0.170  -3.946  0.00  0.00    +0.000 A 
ATOM     10  C   UNL     1       4.186  -0.667  -4.793  0.00  0.00    +0.000 A 
BRANCH   2  12
ATOM     11  C   UNL     1       1.953  -0.316  -7.582  0.00  0.00    +0.000 C 
ATOM     12  O   UNL     1       2.532  -0.907  -6.423  0.00  0.00    +0.000 OA
ENDBRANCH   2  12
ENDBRANCH   1   8
BRANCH   1  13
ATOM     13  C   UNL     1       6.331  -2.196  -1.838  0.00  0.00    +0.000 A 
ATOM     14  C   UNL     1       5.380  -3.203  -2.017  0.00  0.00    +0.000 A 
ATOM     15  C   UNL     1       5.179  -4.152  -1.018  0.00  0.00    +0.000 A 
ATOM     16  C   UNL     1       5.926  -4.075   0.153  0.00  0.00    +0.000 A 
ATOM     17  N   UNL     1       6.793  -3.059   0.383  0.00  0.00    +0.000 NA
ATOM     18  C   UNL     1       6.969  -2.148  -0.603  0.00  0.00    +0.000 A 
BRANCH  16  19
ATOM     19  C   UNL     1       5.899  -5.211   1.148  0.00  0.00    +0.000 C 
BRANCH  19  20
ATOM     20  C   UNL     1       5.388  -4.801   2.528  0.00  0.00    +0.000 C 
BRANCH  20  21
ATOM     21  N   UNL     1       5.356  -5.958   3.430  0.00  0.00    +0.000 NA
ATOM     22  H   UNL     1       4.707  -6.658   3.075  0.00  0.00    +0.000 HD
ATOM     23  H   UNL     1       4.996  -5.666   4.338  0.00  0.00    +0.000 HD
ENDBRANCH  20  21
ENDBRANCH  19  20
ENDBRANCH  16  19
ENDBRANCH   1  13
TORSDOF 6
