REMARK  Name = 
REMARK  4 active torsions:
REMARK  status: ('A' for Active; 'I' for Inactive)
REMARK    1  A    between atoms: C_1  and  S_2
REMARK    2  A    between atoms: S_2  and  C_3
REMARK    3  A    between atoms: N_7  and  C_8
REMARK    4  A    between atoms: C_8  and  C_9
REMARK                            x       y       z     vdW  Elec       q    Type
REMARK                         _______ _______ _______ _____ _____    ______ ____
ROOT
ATOM      1  C   UNL     1       3.346   1.236  -1.202  0.00  0.00    +0.000 A 
ATOM      2  C   UNL     1       3.252   0.537  -2.398  0.00  0.00    +0.000 A 
ATOM      3  C   UNL     1       3.525   1.192  -3.598  0.00  0.00    +0.000 A 
ATOM      4  C   UNL     1       3.850   2.545  -3.591  0.00  0.00    +0.000 A 
ATOM      5  N   UNL     1       4.010   3.172  -4.826  0.00  0.00    +0.000 N 
ATOM      6  N   UNL     1       3.947   3.242  -2.444  0.00  0.00    +0.000 NA
ATOM      7  C   UNL     1       3.698   2.578  -1.285  0.00  0.00    +0.000 A 
ATOM      8  H   UNL     1       4.762   2.745  -5.354  0.00  0.00    +0.000 HD
ENDROOT
BRANCH   1  10
ATOM      9  C   UNL     1       4.553   0.574   1.173  0.00  0.00    +0.000 C 
ATOM     10  S   UNL     1       2.956   0.428   0.331  0.00  0.00    +0.000 S 
ENDBRANCH   1  10
BRANCH   5  11
ATOM     11  C   UNL     1       4.063   4.625  -4.829  0.00  0.00    +0.000 C 
BRANCH  11  12
ATOM     12  C   UNL     1       3.798   5.096  -6.237  0.00  0.00    +0.000 A 
ATOM     13  C   UNL     1       2.667   4.663  -6.942  0.00  0.00    +0.000 A 
ATOM     14  C   UNL     1       2.442   5.105  -8.240  0.00  0.00    +0.000 A 
ATOM     15  C   UNL     1       3.355   5.984  -8.795  0.00  0.00    +0.000 A 
ATOM     16  N   UNL     1       4.450   6.439  -8.147  0.00  0.00    +0.000 NA
ATOM     17  C   UNL     1       4.644   5.989  -6.884  0.00  0.00    +0.000 A 
ENDBRANCH  11  12
ENDBRANCH   5  11
TORSDOF 3
