REMARK  Name = 
REMARK  7 active torsions:
REMARK  status: ('A' for Active; 'I' for Inactive)
REMARK    1  A    between atoms: C_1  and  C_2
REMARK    2  A    between atoms: C_5  and  C_6
REMARK    3  A    between atoms: C_7  and  N_8
REMARK    4  A    between atoms: N_8  and  C_9
REMARK    5  A    between atoms: C_9  and  C_10
REMARK    6  A    between atoms: C_14  and  C_15
REMARK    7  A    between atoms: C_19  and  C_20
REMARK                            x       y       z     vdW  Elec       q    Type
REMARK                         _______ _______ _______ _____ _____    ______ ____
ROOT
ATOM      1  C   UNL     1      -3.299  -4.011  -0.017  0.00  0.00    +0.000 A 
ATOM      2  C   UNL     1      -2.449  -5.047  -0.427  0.00  0.00    +0.000 A 
ATOM      3  C   UNL     1      -2.860  -6.373  -0.343  0.00  0.00    +0.000 A 
ATOM      4  C   UNL     1      -4.114  -6.677   0.191  0.00  0.00    +0.000 A 
ATOM      5  C   UNL     1      -4.977  -5.670   0.667  0.00  0.00    +0.000 A 
ATOM      6  C   UNL     1      -4.553  -4.334   0.528  0.00  0.00    +0.000 A 
ENDROOT
BRANCH   5   7
ATOM      7  C   UNL     1      -6.260  -6.001   1.324  0.00  0.00    +0.000 A 
ATOM      8  C   UNL     1      -6.405  -7.132   2.125  0.00  0.00    +0.000 A 
ATOM      9  C   UNL     1      -7.624  -7.377   2.748  0.00  0.00    +0.000 A 
ATOM     10  C   UNL     1      -8.672  -6.489   2.559  0.00  0.00    +0.000 A 
ATOM     11  C   UNL     1      -8.466  -5.375   1.753  0.00  0.00    +0.000 A 
ATOM     12  C   UNL     1      -9.570  -4.385   1.530  0.00  0.00    +0.000 C 
ATOM     13  N   UNL     1      -7.280  -5.121   1.143  0.00  0.00    +0.000 NA
ENDBRANCH   5   7
BRANCH   1  14
ATOM     14  C   UNL     1      -2.855  -2.570  -0.153  0.00  0.00    +0.000 C 
BRANCH  14  15
ATOM     15  N   UNL     1      -2.146  -2.150   1.046  0.00  0.00    +0.000 N 
ATOM     16  H   UNL     1      -2.613  -2.509   1.876  0.00  0.00    +0.000 HD
BRANCH  15  23
ATOM     17  C   UNL     1      -0.966   1.247   4.390  0.00  0.00    +0.000 C 
ATOM     18  C   UNL     1      -1.061   0.848   2.948  0.00  0.00    +0.000 A 
ATOM     19  C   UNL     1      -0.647   1.714   1.944  0.00  0.00    +0.000 A 
ATOM     20  C   UNL     1      -0.743   1.322   0.612  0.00  0.00    +0.000 A 
ATOM     21  C   UNL     1      -1.260   0.060   0.241  0.00  0.00    +0.000 A 
ATOM     22  C   UNL     1      -1.261  -0.238  -1.232  0.00  0.00    +0.000 C 
ATOM     23  C   UNL     1      -1.710  -0.829   1.240  0.00  0.00    +0.000 A 
ATOM     24  C   UNL     1      -1.571  -0.410   2.586  0.00  0.00    +0.000 A 
ENDBRANCH  15  23
ENDBRANCH  14  15
ENDBRANCH   1  14
TORSDOF 4
