REMARK  Name = 
REMARK  6 active torsions:
REMARK  status: ('A' for Active; 'I' for Inactive)
REMARK    1  A    between atoms: N_1  and  C_2
REMARK    2  A    between atoms: C_2  and  C_3
REMARK    3  A    between atoms: C_6  and  C_7
REMARK    4  A    between atoms: C_7  and  C_8
REMARK    5  A    between atoms: C_13  and  C_14
REMARK    6  A    between atoms: C_14  and  O_16
REMARK                            x       y       z     vdW  Elec       q    Type
REMARK                         _______ _______ _______ _____ _____    ______ ____
ROOT
ATOM      1  C   UNL     1       3.814   5.995  -2.598  0.00  0.00    +0.000 A 
ATOM      2  N   UNL     1       2.776   6.798  -2.757  0.00  0.00    +0.000 NA
ATOM      3  N   UNL     1       2.937   7.884  -1.930  0.00  0.00    +0.000 NA
ATOM      4  C   UNL     1       4.071   7.730  -1.284  0.00  0.00    +0.000 A 
ATOM      5  C   UNL     1       4.700   8.499  -0.263  0.00  0.00    +0.000 A 
ATOM      6  C   UNL     1       5.913   8.130   0.211  0.00  0.00    +0.000 A 
ATOM      7  C   UNL     1       6.576   6.934  -0.335  0.00  0.00    +0.000 A 
ATOM      8  C   UNL     1       5.953   6.179  -1.256  0.00  0.00    +0.000 A 
ATOM      9  N   UNL     1       4.699   6.570  -1.713  0.00  0.00    +0.000 N 
ENDROOT
BRANCH   6  10
ATOM     10  C   UNL     1       6.579   8.837   1.350  0.00  0.00    +0.000 C 
ATOM     11  O   UNL     1       7.434   8.305   2.041  0.00  0.00    +0.000 OA
BRANCH  10  12
ATOM     12  O   UNL     1       6.187  10.109   1.560  0.00  0.00    +0.000 OA
ATOM     13  H   UNL     1       5.617  10.512   0.884  0.00  0.00    +0.000 HD
ENDBRANCH  10  12
ENDBRANCH   6  10
BRANCH   1  14
ATOM     14  C   UNL     1       3.999   4.664  -3.235  0.00  0.00    +0.000 C 
BRANCH  14  18
ATOM     15  C   UNL     1       2.983   1.306  -0.784  0.00  0.00    +0.000 A 
ATOM     16  C   UNL     1       1.999   2.249  -1.083  0.00  0.00    +0.000 A 
ATOM     17  C   UNL     1       2.317   3.359  -1.866  0.00  0.00    +0.000 A 
ATOM     18  C   UNL     1       3.622   3.509  -2.332  0.00  0.00    +0.000 A 
ATOM     19  N   UNL     1       4.601   2.619  -2.039  0.00  0.00    +0.000 NA
ATOM     20  C   UNL     1       4.260   1.546  -1.283  0.00  0.00    +0.000 A 
BRANCH  15  21
ATOM     21  C   UNL     1       2.681   0.067   0.009  0.00  0.00    +0.000 C 
BRANCH  21  22
ATOM     22  N   UNL     1       3.489  -0.014   1.219  0.00  0.00    +0.000 NA
ATOM     23  H   UNL     1       3.214  -0.837   1.752  0.00  0.00    +0.000 HD
ATOM     24  H   UNL     1       3.282   0.790   1.811  0.00  0.00    +0.000 HD
ENDBRANCH  21  22
ENDBRANCH  15  21
ENDBRANCH  14  18
ENDBRANCH   1  14
TORSDOF 6
