REMARK  Name = 
REMARK  5 active torsions:
REMARK  status: ('A' for Active; 'I' for Inactive)
REMARK    1  A    between atoms: C_2  and  C_4
REMARK    2  A    between atoms: C_7  and  O_8
REMARK    3  A    between atoms: O_8  and  C_9
REMARK    4  A    between atoms: C_9  and  C_10
REMARK    5  A    between atoms: C_14  and  C_15
REMARK                            x       y       z     vdW  Elec       q    Type
REMARK                         _______ _______ _______ _____ _____    ______ ____
ROOT
ATOM      1  C   UNL     1       4.735   5.672  -1.717  0.00  0.00    +0.000 C 
ATOM      2  C   UNL     1       5.000   6.331  -0.369  0.00  0.00    +0.000 C 
ATOM      3  C   UNL     1       3.633   6.375  -0.959  0.00  0.00    +0.000 C 
ENDROOT
BRANCH   1   4
ATOM      4  C   UNL     1       5.222   6.292  -3.013  0.00  0.00    +0.000 A 
ATOM      5  C   UNL     1       6.582   6.316  -3.346  0.00  0.00    +0.000 A 
ATOM      6  C   UNL     1       7.008   6.757  -4.598  0.00  0.00    +0.000 A 
ATOM      7  C   UNL     1       6.076   7.179  -5.548  0.00  0.00    +0.000 A 
ATOM      8  C   UNL     1       4.700   7.175  -5.271  0.00  0.00    +0.000 A 
ATOM      9  C   UNL     1       4.307   6.753  -3.988  0.00  0.00    +0.000 A 
BRANCH   8  10
ATOM     10  C   UNL     1       3.707   7.508  -6.308  0.00  0.00    +0.000 A 
ATOM     11  C   UNL     1       3.866   7.150  -7.640  0.00  0.00    +0.000 A 
ATOM     12  N   UNL     1       2.977   7.399  -8.628  0.00  0.00    +0.000 NA
ATOM     13  C   UNL     1       1.861   8.033  -8.250  0.00  0.00    +0.000 A 
ATOM     14  N   UNL     1       1.572   8.438  -7.006  0.00  0.00    +0.000 NA
ATOM     15  C   UNL     1       2.507   8.160  -6.066  0.00  0.00    +0.000 A 
ENDBRANCH   8  10
ENDBRANCH   1   4
BRANCH   1  16
ATOM     16  O   UNL     1       4.940   4.248  -1.569  0.00  0.00    +0.000 OA
BRANCH  16  20
ATOM     17  C   UNL     1       2.554   1.520  -3.485  0.00  0.00    +0.000 A 
ATOM     18  C   UNL     1       3.744   1.109  -2.889  0.00  0.00    +0.000 A 
ATOM     19  C   UNL     1       4.550   2.063  -2.280  0.00  0.00    +0.000 A 
ATOM     20  C   UNL     1       4.137   3.389  -2.289  0.00  0.00    +0.000 A 
ATOM     21  N   UNL     1       3.004   3.827  -2.877  0.00  0.00    +0.000 NA
ATOM     22  C   UNL     1       2.244   2.877  -3.482  0.00  0.00    +0.000 A 
BRANCH  17  24
ATOM     23  N   UNL     1       1.614  -0.714  -3.626  0.00  0.00    +0.000 N 
ATOM     24  C   UNL     1       1.616   0.568  -4.112  0.00  0.00    +0.000 C 
ATOM     25  O   UNL     1       0.854   0.913  -4.999  0.00  0.00    +0.000 OA
ATOM     26  H   UNL     1       0.895  -1.328  -3.991  0.00  0.00    +0.000 HD
ATOM     27  H   UNL     1       2.039  -0.965  -2.744  0.00  0.00    +0.000 HD
ENDBRANCH  17  24
ENDBRANCH  16  20
ENDBRANCH   1  16
TORSDOF 5
