REMARK  Name = 
REMARK  7 active torsions:
REMARK  status: ('A' for Active; 'I' for Inactive)
REMARK    1  A    between atoms: C_2  and  C_3
REMARK    2  A    between atoms: C_7  and  C_8
REMARK    3  A    between atoms: N_10  and  C_11
REMARK    4  A    between atoms: C_11  and  C_12
REMARK    5  A    between atoms: C_15  and  C_16
REMARK    6  A    between atoms: C_16  and  N_17
REMARK    7  A    between atoms: C_18  and  C_20
REMARK                            x       y       z     vdW  Elec       q    Type
REMARK                         _______ _______ _______ _____ _____    ______ ____
ROOT
ATOM      1  C   UNL     1       3.978   6.164   1.303  0.00  0.00    +0.000 A 
ATOM      2  C   UNL     1       5.123   6.784   1.820  0.00  0.00    +0.000 A 
ATOM      3  C   UNL     1       5.015   7.857   2.715  0.00  0.00    +0.000 A 
ATOM      4  C   UNL     1       3.758   8.320   3.130  0.00  0.00    +0.000 A 
ATOM      5  C   UNL     1       2.614   7.715   2.593  0.00  0.00    +0.000 A 
ATOM      6  C   UNL     1       2.722   6.641   1.703  0.00  0.00    +0.000 A 
ENDROOT
BRANCH   1   7
ATOM      7  C   UNL     1       4.086   5.018   0.329  0.00  0.00    +0.000 C 
BRANCH   7  10
ATOM      8  C   UNL     1       2.987   2.981   1.176  0.00  0.00    +0.000 C 
ATOM      9  O   UNL     1       1.873   3.367   0.839  0.00  0.00    +0.000 OA
ATOM     10  N   UNL     1       4.128   3.725   0.983  0.00  0.00    +0.000 N 
ATOM     11  H   UNL     1       5.005   3.424   1.387  0.00  0.00    +0.000 HD
BRANCH   8  16
ATOM     12  C   UNL     1       1.908   0.832   1.945  0.00  0.00    +0.000 C 
ATOM     13  C   UNL     1       2.347  -0.634   2.029  0.00  0.00    +0.000 C 
ATOM     14  C   UNL     1       3.738  -0.703   1.407  0.00  0.00    +0.000 C 
ATOM     15  C   UNL     1       4.081   0.712   0.960  0.00  0.00    +0.000 C 
ATOM     16  C   UNL     1       3.216   1.624   1.826  0.00  0.00    +0.000 C 
BRANCH  12  18
ATOM     17  N   UNL     1       0.528   1.522   4.075  0.00  0.00    +0.000 NA
ATOM     18  C   UNL     1       1.131   1.231   3.123  0.00  0.00    +0.000 C 
ENDBRANCH  12  18
ENDBRANCH   8  16
ENDBRANCH   7  10
ENDBRANCH   1   7
BRANCH   4  19
ATOM     19  C   UNL     1       3.630   9.447   4.127  0.00  0.00    +0.000 C 
BRANCH  19  20
ATOM     20  N   UNL     1       3.592  10.735   3.481  0.00  0.00    +0.000 N 
ATOM     21  C   UNL     1       3.507  11.897   4.203  0.00  0.00    +0.000 C 
ATOM     22  O   UNL     1       3.517  11.911   5.431  0.00  0.00    +0.000 OA
ATOM     23  H   UNL     1       3.318  10.741   2.504  0.00  0.00    +0.000 HD
BRANCH  21  24
ATOM     24  C   UNL     1       3.468  13.144   3.424  0.00  0.00    +0.000 A 
ATOM     25  C   UNL     1       3.912  14.332   3.988  0.00  0.00    +0.000 A 
ATOM     26  S   UNL     1       3.840  15.662   2.920  0.00  0.00    +0.000 S 
ATOM     27  C   UNL     1       3.163  14.706   1.686  0.00  0.00    +0.000 A 
ATOM     28  N   UNL     1       2.830  15.245   0.482  0.00  0.00    +0.000 NA
ATOM     29  C   UNL     1       2.305  14.409  -0.350  0.00  0.00    +0.000 A 
ATOM     30  N   UNL     1       2.089  13.080  -0.092  0.00  0.00    +0.000 N 
ATOM     31  C   UNL     1       2.436  12.488   1.097  0.00  0.00    +0.000 A 
ATOM     32  O   UNL     1       2.275  11.284   1.277  0.00  0.00    +0.000 OA
ATOM     33  C   UNL     1       3.017  13.386   2.075  0.00  0.00    +0.000 A 
ATOM     34  H   UNL     1       1.686  12.473  -0.790  0.00  0.00    +0.000 HD
ENDBRANCH  21  24
ENDBRANCH  19  20
ENDBRANCH   4  19
TORSDOF 7
