REMARK  Name = 
REMARK  8 active torsions:
REMARK  status: ('A' for Active; 'I' for Inactive)
REMARK    1  A    between atoms: C_1  and  O_2
REMARK    2  A    between atoms: O_2  and  C_3
REMARK    3  A    between atoms: C_7  and  C_8
REMARK    4  A    between atoms: N_10  and  C_11
REMARK    5  A    between atoms: C_11  and  C_12
REMARK    6  A    between atoms: C_15  and  C_16
REMARK    7  A    between atoms: C_16  and  N_17
REMARK    8  A    between atoms: C_18  and  C_20
REMARK                            x       y       z     vdW  Elec       q    Type
REMARK                         _______ _______ _______ _____ _____    ______ ____
ROOT
ATOM      1  C   UNL     1       8.429   5.282  -3.180  0.00  0.00    +0.000 A 
ATOM      2  C   UNL     1       7.552   6.364  -3.212  0.00  0.00    +0.000 A 
ATOM      3  C   UNL     1       8.069   7.661  -3.238  0.00  0.00    +0.000 A 
ATOM      4  C   UNL     1       9.451   7.859  -3.255  0.00  0.00    +0.000 A 
ATOM      5  C   UNL     1      10.248   6.719  -3.216  0.00  0.00    +0.000 A 
ATOM      6  N   UNL     1       9.777   5.447  -3.185  0.00  0.00    +0.000 NA
ENDROOT
BRANCH   1   7
ATOM      7  C   UNL     1       7.891   3.868  -3.150  0.00  0.00    +0.000 C 
BRANCH   7  10
ATOM      8  C   UNL     1       6.495   3.425  -5.156  0.00  0.00    +0.000 C 
ATOM      9  O   UNL     1       5.498   3.978  -4.693  0.00  0.00    +0.000 OA
ATOM     10  N   UNL     1       7.690   3.316  -4.473  0.00  0.00    +0.000 N 
ATOM     11  H   UNL     1       8.482   2.944  -4.982  0.00  0.00    +0.000 HD
BRANCH   8  16
ATOM     12  C   UNL     1       7.626   1.591  -8.104  0.00  0.00    +0.000 A 
ATOM     13  C   UNL     1       6.533   1.572  -8.957  0.00  0.00    +0.000 A 
ATOM     14  C   UNL     1       5.366   2.215  -8.549  0.00  0.00    +0.000 A 
ATOM     15  C   UNL     1       5.335   2.845  -7.305  0.00  0.00    +0.000 A 
ATOM     16  C   UNL     1       6.481   2.805  -6.519  0.00  0.00    +0.000 A 
ATOM     17  N   UNL     1       7.631   2.196  -6.897  0.00  0.00    +0.000 NA
BRANCH  12  19
ATOM     18  C   UNL     1       9.821   1.031  -7.572  0.00  0.00    +0.000 C 
ATOM     19  O   UNL     1       8.764   0.933  -8.525  0.00  0.00    +0.000 OA
ENDBRANCH  12  19
ENDBRANCH   8  16
ENDBRANCH   7  10
ENDBRANCH   1   7
BRANCH   4  20
ATOM     20  C   UNL     1      10.067   9.230  -3.297  0.00  0.00    +0.000 C 
BRANCH  20  21
ATOM     21  N   UNL     1      10.298   9.757  -1.976  0.00  0.00    +0.000 N 
ATOM     22  C   UNL     1      10.813  11.016  -1.778  0.00  0.00    +0.000 C 
ATOM     23  O   UNL     1      11.072  11.771  -2.711  0.00  0.00    +0.000 OA
ATOM     24  H   UNL     1      10.355   9.086  -1.217  0.00  0.00    +0.000 HD
BRANCH  22  25
ATOM     25  C   UNL     1      10.976  11.435  -0.379  0.00  0.00    +0.000 A 
ATOM     26  C   UNL     1      10.950  12.784  -0.047  0.00  0.00    +0.000 A 
ATOM     27  S   UNL     1      11.101  13.077   1.628  0.00  0.00    +0.000 S 
ATOM     28  C   UNL     1      11.259  11.416   1.962  0.00  0.00    +0.000 A 
ATOM     29  N   UNL     1      11.451  10.970   3.233  0.00  0.00    +0.000 NA
ATOM     30  C   UNL     1      11.584   9.690   3.335  0.00  0.00    +0.000 A 
ATOM     31  N   UNL     1      11.534   8.813   2.283  0.00  0.00    +0.000 N 
ATOM     32  C   UNL     1      11.305   9.214   0.990  0.00  0.00    +0.000 A 
ATOM     33  O   UNL     1      11.204   8.399   0.078  0.00  0.00    +0.000 OA
ATOM     34  C   UNL     1      11.172  10.647   0.816  0.00  0.00    +0.000 A 
ATOM     35  H   UNL     1      11.626   7.818   2.432  0.00  0.00    +0.000 HD
ENDBRANCH  22  25
ENDBRANCH  20  21
ENDBRANCH   4  20
TORSDOF 7
