REMARK  Name = 
REMARK  8 active torsions:
REMARK  status: ('A' for Active; 'I' for Inactive)
REMARK    1  A    between atoms: C_1  and  S_2
REMARK    2  A    between atoms: S_2  and  C_5
REMARK    3  A    between atoms: C_9  and  C_10
REMARK    4  A    between atoms: C_10  and  N_11
REMARK    5  A    between atoms: N_11  and  C_12
REMARK    6  A    between atoms: C_15  and  C_16
REMARK    7  A    between atoms: C_16  and  N_17
REMARK    8  A    between atoms: C_18  and  C_20
REMARK                            x       y       z     vdW  Elec       q    Type
REMARK                         _______ _______ _______ _____ _____    ______ ____
ROOT
ATOM      1  C   UNL     1       3.557   0.909   7.577  0.00  0.00    +0.000 A 
ATOM      2  C   UNL     1       4.481  -0.071   7.960  0.00  0.00    +0.000 A 
ATOM      3  C   UNL     1       4.629  -0.440   9.310  0.00  0.00    +0.000 A 
ATOM      4  C   UNL     1       3.869   0.187  10.312  0.00  0.00    +0.000 A 
ATOM      5  C   UNL     1       3.023   1.228   9.937  0.00  0.00    +0.000 A 
ATOM      6  C   UNL     1       2.880   1.582   8.593  0.00  0.00    +0.000 A 
ENDROOT
BRANCH   1   7
ATOM      7  N   UNL     1       3.414   1.292   6.232  0.00  0.00    +0.000 N 
ATOM      8  H   UNL     1       3.751   0.568   5.607  0.00  0.00    +0.000 HD
BRANCH   7   9
ATOM      9  C   UNL     1       2.110   1.824   5.820  0.00  0.00    +0.000 C 
BRANCH   9  14
ATOM     10  C   UNL     1       1.095   1.976   2.153  0.00  0.00    +0.000 A 
ATOM     11  C   UNL     1       1.909   2.990   1.654  0.00  0.00    +0.000 A 
ATOM     12  C   UNL     1       2.840   3.591   2.498  0.00  0.00    +0.000 A 
ATOM     13  C   UNL     1       2.932   3.195   3.835  0.00  0.00    +0.000 A 
ATOM     14  C   UNL     1       2.101   2.184   4.351  0.00  0.00    +0.000 A 
ATOM     15  C   UNL     1       1.196   1.554   3.485  0.00  0.00    +0.000 A 
BRANCH  10  17
ATOM     16  C   UNL     1       0.738  -0.068   0.323  0.00  0.00    +0.000 C 
ATOM     17  S   UNL     1      -0.142   1.262   1.098  0.00  0.00    +0.000 S 
ATOM     18  O   UNL     1      -0.472   2.246   0.084  0.00  0.00    +0.000 OA
ATOM     19  O   UNL     1      -1.168   0.694   1.949  0.00  0.00    +0.000 OA
ENDBRANCH  10  17
ENDBRANCH   9  14
ENDBRANCH   7   9
ENDBRANCH   1   7
BRANCH   4  20
ATOM     20  C   UNL     1       3.916  -0.229  11.764  0.00  0.00    +0.000 C 
BRANCH  20  21
ATOM     21  N   UNL     1       4.907   0.487  12.523  0.00  0.00    +0.000 N 
ATOM     22  C   UNL     1       5.105   0.252  13.863  0.00  0.00    +0.000 C 
ATOM     23  O   UNL     1       4.468  -0.574  14.495  0.00  0.00    +0.000 OA
ATOM     24  H   UNL     1       5.178   1.394  12.157  0.00  0.00    +0.000 HD
BRANCH  22  25
ATOM     25  C   UNL     1       6.199   1.027  14.468  0.00  0.00    +0.000 A 
ATOM     26  C   UNL     1       6.905   0.510  15.545  0.00  0.00    +0.000 A 
ATOM     27  S   UNL     1       8.160   1.533  16.088  0.00  0.00    +0.000 S 
ATOM     28  C   UNL     1       7.781   2.714  14.921  0.00  0.00    +0.000 A 
ATOM     29  N   UNL     1       8.471   3.884  14.856  0.00  0.00    +0.000 NA
ATOM     30  C   UNL     1       8.056   4.698  13.939  0.00  0.00    +0.000 A 
ATOM     31  N   UNL     1       7.019   4.438  13.074  0.00  0.00    +0.000 N 
ATOM     32  C   UNL     1       6.334   3.252  13.064  0.00  0.00    +0.000 A 
ATOM     33  O   UNL     1       5.482   3.017  12.220  0.00  0.00    +0.000 OA
ATOM     34  C   UNL     1       6.733   2.319  14.108  0.00  0.00    +0.000 A 
ATOM     35  H   UNL     1       6.767   5.106  12.362  0.00  0.00    +0.000 HD
ENDBRANCH  22  25
ENDBRANCH  20  21
ENDBRANCH   4  20
TORSDOF 7
