REMARK  Name = 
REMARK  7 active torsions:
REMARK  status: ('A' for Active; 'I' for Inactive)
REMARK    1  A    between atoms: C_1  and  C_2
REMARK    2  A    between atoms: C_2  and  N_3
REMARK    3  A    between atoms: C_2  and  C_16
REMARK    4  A    between atoms: C_4  and  C_6
REMARK    5  A    between atoms: C_19  and  C_20
REMARK    6  A    between atoms: C_20  and  O_21
REMARK    7  A    between atoms: C_20  and  C_22
REMARK                            x       y       z     vdW  Elec       q    Type
REMARK                         _______ _______ _______ _____ _____    ______ ____
ROOT
ATOM      1  C   UNL     1       3.227   1.134  -0.870  0.00  0.00    +0.000 C 
ATOM      2  C   UNL     1       2.578   0.006  -0.059  0.00  0.00    +0.000 C 
ENDROOT
BRANCH   2   3
ATOM      3  C   UNL     1       3.038  -0.031   1.389  0.00  0.00    +0.000 A 
ATOM      4  C   UNL     1       3.161  -1.269   2.041  0.00  0.00    +0.000 A 
ATOM      5  C   UNL     1       3.618  -1.348   3.360  0.00  0.00    +0.000 A 
ATOM      6  C   UNL     1       3.951  -0.186   4.068  0.00  0.00    +0.000 A 
ATOM      7  C   UNL     1       3.770   1.056   3.438  0.00  0.00    +0.000 A 
ATOM      8  C   UNL     1       3.310   1.132   2.122  0.00  0.00    +0.000 A 
BRANCH   6   9
ATOM      9  C   UNL     1       4.455  -0.266   5.500  0.00  0.00    +0.000 C 
BRANCH   9  10
ATOM     10  C   UNL     1       3.586   0.451   6.512  0.00  0.00    +0.000 A 
ATOM     11  C   UNL     1       2.191   0.487   6.397  0.00  0.00    +0.000 A 
ATOM     12  C   UNL     1       1.438   1.245   7.286  0.00  0.00    +0.000 A 
ATOM     13  C   UNL     1       2.100   1.915   8.299  0.00  0.00    +0.000 A 
ATOM     14  N   UNL     1       3.433   1.848   8.499  0.00  0.00    +0.000 NA
ATOM     15  C   UNL     1       4.140   1.116   7.605  0.00  0.00    +0.000 A 
ENDBRANCH   9  10
BRANCH   9  16
ATOM     16  O   UNL     1       5.783   0.277   5.551  0.00  0.00    +0.000 OA
ATOM     17  H   UNL     1       5.895   0.832   4.761  0.00  0.00    +0.000 HD
ENDBRANCH   9  16
ENDBRANCH   6   9
ENDBRANCH   2   3
BRANCH   2  18
ATOM     18  N   UNL     1       1.142   0.086  -0.147  0.00  0.00    +0.000 N 
ATOM     19  C   UNL     1       0.436  -0.327  -1.244  0.00  0.00    +0.000 C 
ATOM     20  O   UNL     1       0.995  -0.786  -2.236  0.00  0.00    +0.000 OA
ATOM     21  H   UNL     1       0.597   0.292   0.706  0.00  0.00    +0.000 HD
BRANCH  19  22
ATOM     22  C   UNL     1      -1.022  -0.142  -1.207  0.00  0.00    +0.000 A 
ATOM     23  C   UNL     1      -1.714  -0.117  -2.408  0.00  0.00    +0.000 A 
ATOM     24  S   UNL     1      -3.394   0.036  -2.223  0.00  0.00    +0.000 S 
ATOM     25  C   UNL     1      -3.254   0.064  -0.528  0.00  0.00    +0.000 A 
ATOM     26  N   UNL     1      -4.381   0.126   0.209  0.00  0.00    +0.000 NA
ATOM     27  C   UNL     1      -4.107   0.156   1.516  0.00  0.00    +0.000 A 
ATOM     28  N   UNL     1      -2.909   0.175   2.107  0.00  0.00    +0.000 NA
ATOM     29  C   UNL     1      -1.802   0.122   1.338  0.00  0.00    +0.000 A 
ATOM     30  O   UNL     1      -0.657   0.170   1.868  0.00  0.00    +0.000 OA
ATOM     31  C   UNL     1      -1.936   0.025  -0.073  0.00  0.00    +0.000 A 
ENDBRANCH  19  22
ENDBRANCH   2  18
TORSDOF 6
