REMARK  Name = 
REMARK  8 active torsions:
REMARK  status: ('A' for Active; 'I' for Inactive)
REMARK    1  A    between atoms: C_2  and  C_20
REMARK    2  A    between atoms: N_3  and  C_4
REMARK    3  A    between atoms: C_4  and  C_5
REMARK    4  A    between atoms: C_8  and  C_9
REMARK    5  A    between atoms: C_9  and  O_10
REMARK    6  A    between atoms: C_9  and  C_11
REMARK    7  A    between atoms: C_11  and  N_12
REMARK    8  A    between atoms: N_12  and  C_13
REMARK                            x       y       z     vdW  Elec       q    Type
REMARK                         _______ _______ _______ _____ _____    ______ ____
ROOT
ATOM      1  C   UNL     1       4.608  -1.841 -10.220  0.00  0.00    +0.000 A 
ATOM      2  C   UNL     1       5.373  -0.696 -10.455  0.00  0.00    +0.000 A 
ATOM      3  C   UNL     1       5.841   0.085  -9.395  0.00  0.00    +0.000 A 
ATOM      4  C   UNL     1       5.580  -0.270  -8.064  0.00  0.00    +0.000 A 
ATOM      5  C   UNL     1       4.831  -1.439  -7.835  0.00  0.00    +0.000 A 
ATOM      6  C   UNL     1       4.353  -2.217  -8.897  0.00  0.00    +0.000 A 
ENDROOT
BRANCH   1   7
ATOM      7  C   UNL     1       4.101  -2.649 -11.387  0.00  0.00    +0.000 C 
BRANCH   7  10
ATOM      8  O   UNL     1       6.090  -2.329 -13.384  0.00  0.00    +0.000 OA
ATOM      9  C   UNL     1       6.046  -3.367 -12.733  0.00  0.00    +0.000 C 
ATOM     10  N   UNL     1       5.066  -3.629 -11.810  0.00  0.00    +0.000 N 
ATOM     11  H   UNL     1       5.181  -4.416 -11.183  0.00  0.00    +0.000 HD
BRANCH   9  12
ATOM     12  C   UNL     1       7.027  -4.443 -12.934  0.00  0.00    +0.000 A 
ATOM     13  C   UNL     1       7.702  -4.558 -14.141  0.00  0.00    +0.000 A 
ATOM     14  S   UNL     1       8.798  -5.867 -14.183  0.00  0.00    +0.000 S 
ATOM     15  C   UNL     1       8.435  -6.298 -12.577  0.00  0.00    +0.000 A 
ATOM     16  N   UNL     1       9.063  -7.340 -11.969  0.00  0.00    +0.000 NA
ATOM     17  C   UNL     1       8.716  -7.528 -10.736  0.00  0.00    +0.000 A 
ATOM     18  N   UNL     1       7.792  -6.773 -10.062  0.00  0.00    +0.000 N 
ATOM     19  C   UNL     1       7.077  -5.769 -10.659  0.00  0.00    +0.000 A 
ATOM     20  O   UNL     1       6.149  -5.221 -10.073  0.00  0.00    +0.000 OA
ATOM     21  C   UNL     1       7.467  -5.477 -12.028  0.00  0.00    +0.000 A 
ATOM     22  H   UNL     1       7.534  -6.994  -9.111  0.00  0.00    +0.000 HD
ENDBRANCH   9  12
ENDBRANCH   7  10
ENDBRANCH   1   7
BRANCH   4  23
ATOM     23  C   UNL     1       6.080   0.534  -6.873  0.00  0.00    +0.000 C 
BRANCH  23  24
ATOM     24  O   UNL     1       4.939   0.921  -6.104  0.00  0.00    +0.000 OA
ATOM     25  H   UNL     1       4.526   1.664  -6.575  0.00  0.00    +0.000 HD
ENDBRANCH  23  24
BRANCH  23  26
ATOM     26  C   UNL     1       6.954   1.776  -7.222  0.00  0.00    +0.000 C 
BRANCH  26  27
ATOM     27  N   UNL     1       7.459   2.521  -6.058  0.00  0.00    +0.000 NA
ATOM     28  H   UNL     1       7.951   1.896  -5.421  0.00  0.00    +0.000 HD
BRANCH  27  29
ATOM     29  C   UNL     1       8.370   3.575  -6.430  0.00  0.00    +0.000 C 
ATOM     30  C   UNL     1       9.597   3.147  -7.223  0.00  0.00    +0.000 C 
ATOM     31  C   UNL     1      10.576   4.269  -6.948  0.00  0.00    +0.000 C 
ATOM     32  C   UNL     1      10.212   4.734  -5.545  0.00  0.00    +0.000 C 
ATOM     33  N   UNL     1       8.956   4.063  -5.198  0.00  0.00    +0.000 NA
ATOM     34  H   UNL     1       8.308   4.706  -4.748  0.00  0.00    +0.000 HD
ENDBRANCH  27  29
ENDBRANCH  26  27
ENDBRANCH  23  26
ENDBRANCH   4  23
TORSDOF 8
