REMARK  Name = 
REMARK  5 active torsions:
REMARK  status: ('A' for Active; 'I' for Inactive)
REMARK    1  A    between atoms: C_1  and  C_2
REMARK    2  A    between atoms: C_2  and  C_3
REMARK    3  A    between atoms: C_2  and  C_14
REMARK    4  A    between atoms: C_3  and  N_4
REMARK    5  A    between atoms: C_8  and  C_9
REMARK                            x       y       z     vdW  Elec       q    Type
REMARK                         _______ _______ _______ _____ _____    ______ ____
ROOT
ATOM      1  N   UNL     1       2.762  -1.488  -2.001  0.00  0.00    +0.000 N 
ATOM      2  C   UNL     1       3.348  -1.794  -3.219  0.00  0.00    +0.000 A 
ATOM      3  N   UNL     1       4.530  -1.253  -3.543  0.00  0.00    +0.000 NA
ATOM      4  C   UNL     1       5.034  -1.551  -4.758  0.00  0.00    +0.000 A 
ATOM      5  C   UNL     1       4.413  -2.390  -5.651  0.00  0.00    +0.000 A 
ATOM      6  C   UNL     1       3.209  -2.900  -5.228  0.00  0.00    +0.000 A 
ATOM      7  N   UNL     1       2.658  -2.618  -4.025  0.00  0.00    +0.000 NA
ATOM      8  H   UNL     1       1.767  -1.659  -2.107  0.00  0.00    +0.000 HD
ENDROOT
BRANCH   5   9
ATOM      9  C   UNL     1       5.020  -2.633  -6.965  0.00  0.00    +0.000 C 
ATOM     10  N   UNL     1       4.694  -3.783  -7.626  0.00  0.00    +0.000 N 
ATOM     11  O   UNL     1       5.819  -1.838  -7.442  0.00  0.00    +0.000 OA
ATOM     12  H   UNL     1       4.232  -4.571  -7.195  0.00  0.00    +0.000 HD
ATOM     13  H   UNL     1       5.208  -3.959  -8.482  0.00  0.00    +0.000 HD
ENDBRANCH   5   9
BRANCH   1  14
ATOM     14  C   UNL     1       3.098  -0.163  -1.517  0.00  0.00    +0.000 C 
BRANCH  14  16
ATOM     15  C   UNL     1       2.819  -0.694   0.979  0.00  0.00    +0.000 C 
ATOM     16  C   UNL     1       2.349   0.044  -0.234  0.00  0.00    +0.000 C 
BRANCH  16  17
ATOM     17  C   UNL     1       0.963   0.523  -0.316  0.00  0.00    +0.000 A 
ATOM     18  C   UNL     1       0.665   1.752  -0.916  0.00  0.00    +0.000 A 
ATOM     19  C   UNL     1      -0.662   2.160  -1.068  0.00  0.00    +0.000 A 
ATOM     20  C   UNL     1      -1.699   1.341  -0.626  0.00  0.00    +0.000 A 
ATOM     21  C   UNL     1      -1.411   0.125  -0.012  0.00  0.00    +0.000 A 
ATOM     22  C   UNL     1      -0.085  -0.277   0.151  0.00  0.00    +0.000 A 
ENDBRANCH  16  17
ENDBRANCH  14  16
ENDBRANCH   1  14
TORSDOF 4
