REMARK  Name = 
REMARK  8 active torsions:
REMARK  status: ('A' for Active; 'I' for Inactive)
REMARK    1  A    between atoms: C_1  and  C_2
REMARK    2  A    between atoms: C_2  and  O_3
REMARK    3  A    between atoms: C_5  and  O_6
REMARK    4  A    between atoms: O_6  and  C_7
REMARK    5  A    between atoms: C_9  and  C_10
REMARK    6  A    between atoms: C_10  and  C_13
REMARK    7  A    between atoms: C_13  and  N_14
REMARK    8  A    between atoms: C_18  and  C_19
REMARK                            x       y       z     vdW  Elec       q    Type
REMARK                         _______ _______ _______ _____ _____    ______ ____
ROOT
ATOM      1  C   UNL     1       6.687  -4.415   1.512  0.00  0.00    +0.000 C 
ATOM      2  F   UNL     1       5.466  -4.957   1.221  0.00  0.00    +0.000 F 
ATOM      3  F   UNL     1       7.207  -4.034   0.303  0.00  0.00    +0.000 F 
ENDROOT
BRANCH   1   6
ATOM      4  C   UNL     1       5.590  -1.042   2.895  0.00  0.00    +0.000 A 
ATOM      5  C   UNL     1       5.749  -2.119   2.031  0.00  0.00    +0.000 A 
ATOM      6  C   UNL     1       6.529  -3.213   2.442  0.00  0.00    +0.000 A 
ATOM      7  C   UNL     1       7.107  -3.144   3.720  0.00  0.00    +0.000 A 
ATOM      8  C   UNL     1       6.889  -2.025   4.506  0.00  0.00    +0.000 A 
ATOM      9  N   UNL     1       6.149  -0.970   4.117  0.00  0.00    +0.000 NA
BRANCH   4  10
ATOM     10  O   UNL     1       4.819   0.022   2.459  0.00  0.00    +0.000 OA
BRANCH  10  14
ATOM     11  C   UNL     1       6.248   4.238   1.696  0.00  0.00    +0.000 C 
ATOM     12  C   UNL     1       5.742   3.307   2.787  0.00  0.00    +0.000 C 
ATOM     13  C   UNL     1       6.451   1.933   2.827  0.00  0.00    +0.000 C 
ATOM     14  C   UNL     1       5.074   1.284   3.124  0.00  0.00    +0.000 C 
ATOM     15  C   UNL     1       4.436   2.533   2.460  0.00  0.00    +0.000 C 
BRANCH  12  16
ATOM     16  O   UNL     1       5.717   4.023   4.042  0.00  0.00    +0.000 OA
ATOM     17  H   UNL     1       6.638   4.289   4.207  0.00  0.00    +0.000 HD
ENDBRANCH  12  16
ENDBRANCH  10  14
ENDBRANCH   4  10
ENDBRANCH   1   6
BRANCH   1  18
ATOM     18  C   UNL     1       7.598  -5.535   2.082  0.00  0.00    +0.000 C 
BRANCH  18  19
ATOM     19  N   UNL     1       7.764  -6.722   1.225  0.00  0.00    +0.000 N 
ATOM     20  C   UNL     1       8.594  -7.681   1.807  0.00  0.00    +0.000 A 
ATOM     21  N   UNL     1       8.649  -7.771   3.145  0.00  0.00    +0.000 NA
ATOM     22  C   UNL     1       9.502  -8.673   3.674  0.00  0.00    +0.000 A 
ATOM     23  C   UNL     1      10.299  -9.498   2.919  0.00  0.00    +0.000 A 
ATOM     24  C   UNL     1      10.168  -9.337   1.559  0.00  0.00    +0.000 A 
ATOM     25  N   UNL     1       9.330  -8.438   0.984  0.00  0.00    +0.000 NA
ATOM     26  H   UNL     1       8.103  -6.544   0.284  0.00  0.00    +0.000 HD
BRANCH  23  27
ATOM     27  C   UNL     1      11.235 -10.410   3.587  0.00  0.00    +0.000 C 
ATOM     28  N   UNL     1      11.629 -11.540   2.930  0.00  0.00    +0.000 N 
ATOM     29  O   UNL     1      11.632 -10.172   4.721  0.00  0.00    +0.000 OA
ATOM     30  H   UNL     1      11.229 -11.877   2.067  0.00  0.00    +0.000 HD
ATOM     31  H   UNL     1      12.215 -12.181   3.455  0.00  0.00    +0.000 HD
ENDBRANCH  23  27
ENDBRANCH  18  19
ENDBRANCH   1  18
TORSDOF 7
