REMARK  Name = 
REMARK  8 active torsions:
REMARK  status: ('A' for Active; 'I' for Inactive)
REMARK    1  A    between atoms: C_1  and  C_2
REMARK    2  A    between atoms: C_2  and  C_3
REMARK    3  A    between atoms: C_7  and  C_8
REMARK    4  A    between atoms: C_8  and  C_9
REMARK    5  A    between atoms: C_9  and  N_10
REMARK    6  A    between atoms: C_15  and  C_16
REMARK    7  A    between atoms: N_23  and  C_24
REMARK    8  A    between atoms: C_24  and  C_25
REMARK                            x       y       z     vdW  Elec       q    Type
REMARK                         _______ _______ _______ _____ _____    ______ ____
ROOT
ATOM      1  C   UNL     1       2.885   0.433   1.545  0.00  0.00    +0.000 A 
ATOM      2  C   UNL     1       2.654   1.698   2.104  0.00  0.00    +0.000 A 
ATOM      3  C   UNL     1       3.008   1.979   3.429  0.00  0.00    +0.000 A 
ATOM      4  C   UNL     1       3.575   0.994   4.239  0.00  0.00    +0.000 A 
ATOM      5  C   UNL     1       3.808  -0.284   3.728  0.00  0.00    +0.000 A 
ATOM      6  C   UNL     1       3.476  -0.526   2.381  0.00  0.00    +0.000 A 
ENDROOT
BRANCH   1   8
ATOM      7  C   UNL     1       1.003  -0.612   0.332  0.00  0.00    +0.000 C 
ATOM      8  C   UNL     1       2.399   0.029   0.130  0.00  0.00    +0.000 C 
ATOM      9  C   UNL     1       2.284   1.273  -0.794  0.00  0.00    +0.000 C 
ATOM     10  C   UNL     1       1.973   0.940  -2.254  0.00  0.00    +0.000 C 
ATOM     11  N   UNL     1       2.926   0.013  -2.868  0.00  0.00    +0.000 NA
ATOM     12  C   UNL     1       3.016  -1.215  -2.063  0.00  0.00    +0.000 C 
ATOM     13  C   UNL     1       3.344  -0.999  -0.578  0.00  0.00    +0.000 C 
ATOM     14  F   UNL     1       3.257  -2.224   0.026  0.00  0.00    +0.000 F 
BRANCH  11  15
ATOM     15  C   UNL     1       4.270   0.603  -3.119  0.00  0.00    +0.000 C 
BRANCH  15  16
ATOM     16  C   UNL     1       4.406   1.852  -4.024  0.00  0.00    +0.000 C 
ATOM     17  F   UNL     1       3.245   2.241  -4.589  0.00  0.00    +0.000 F 
ATOM     18  F   UNL     1       4.878   2.900  -3.305  0.00  0.00    +0.000 F 
ATOM     19  F   UNL     1       5.287   1.624  -5.026  0.00  0.00    +0.000 F 
ENDBRANCH  15  16
ENDBRANCH  11  15
ENDBRANCH   1   8
BRANCH   5  20
ATOM     20  C   UNL     1       4.352  -1.380   4.636  0.00  0.00    +0.000 C 
BRANCH  20  21
ATOM     21  C   UNL     1       4.584  -2.705   3.898  0.00  0.00    +0.000 C 
BRANCH  21  22
ATOM     22  N   UNL     1       5.124  -3.776   4.727  0.00  0.00    +0.000 N 
ATOM     23  C   UNL     1       5.287  -4.996   4.049  0.00  0.00    +0.000 A 
ATOM     24  C   UNL     1       5.737  -5.087   2.719  0.00  0.00    +0.000 A 
ATOM     25  N   UNL     1       5.900  -6.250   2.040  0.00  0.00    +0.000 NA
ATOM     26  C   UNL     1       5.625  -7.361   2.755  0.00  0.00    +0.000 A 
ATOM     27  C   UNL     1       5.209  -7.296   4.076  0.00  0.00    +0.000 A 
ATOM     28  N   UNL     1       5.022  -6.118   4.755  0.00  0.00    +0.000 NA
ATOM     29  H   UNL     1       4.603  -3.974   5.578  0.00  0.00    +0.000 HD
BRANCH  27  30
ATOM     30  C   UNL     1       4.971  -8.566   4.813  0.00  0.00    +0.000 C 
ATOM     31  N   UNL     1       4.617  -8.444   6.127  0.00  0.00    +0.000 N 
ATOM     32  O   UNL     1       5.098  -9.665   4.282  0.00  0.00    +0.000 OA
ATOM     33  H   UNL     1       4.571  -7.523   6.554  0.00  0.00    +0.000 HD
ATOM     34  H   UNL     1       4.498  -9.272   6.690  0.00  0.00    +0.000 HD
ENDBRANCH  27  30
ENDBRANCH  21  22
ENDBRANCH  20  21
ENDBRANCH   5  20
TORSDOF 7
