REMARK  Name = 
REMARK  4 active torsions:
REMARK  status: ('A' for Active; 'I' for Inactive)
REMARK    1  A    between atoms: C_1  and  N_2
REMARK    2  A    between atoms: C_10  and  C_11
REMARK    3  A    between atoms: C_11  and  O_12
REMARK    4  A    between atoms: O_12  and  C_13
REMARK                            x       y       z     vdW  Elec       q    Type
REMARK                         _______ _______ _______ _____ _____    ______ ____
ROOT
ATOM      1  C   UNL     1       1.999  -1.143  -1.116  0.00  0.00    +0.000 C 
ATOM      2  N   UNL     1       0.872  -0.286  -0.748  0.00  0.00    +0.000 NA
ATOM      3  C   UNL     1      -0.344  -0.663  -1.518  0.00  0.00    +0.000 C 
ATOM      4  C   UNL     1      -1.620   0.108  -1.079  0.00  0.00    +0.000 C 
ATOM      5  N   UNL     1      -1.798  -0.119   0.356  0.00  0.00    +0.000 N 
ATOM      6  C   UNL     1      -3.064  -0.036   0.908  0.00  0.00    +0.000 A 
ATOM      7  C   UNL     1      -3.296  -0.677   2.128  0.00  0.00    +0.000 A 
ATOM      8  C   UNL     1      -4.565  -0.693   2.688  0.00  0.00    +0.000 A 
ATOM      9  C   UNL     1      -5.593  -0.046   2.026  0.00  0.00    +0.000 A 
ATOM     10  C   UNL     1      -5.322   0.563   0.807  0.00  0.00    +0.000 A 
ATOM     11  N   UNL     1      -4.078   0.559   0.241  0.00  0.00    +0.000 NA
ATOM     12  C   UNL     1      -0.661   0.375   1.146  0.00  0.00    +0.000 C 
ATOM     13  C   UNL     1       0.604  -0.397   0.706  0.00  0.00    +0.000 C 
ENDROOT
BRANCH  10  14
ATOM     14  C   UNL     1      -6.445   1.242   0.051  0.00  0.00    +0.000 C 
BRANCH  14  15
ATOM     15  O   UNL     1      -6.675   2.547   0.591  0.00  0.00    +0.000 OA
BRANCH  15  16
ATOM     16  C   UNL     1      -7.694   3.279   0.042  0.00  0.00    +0.000 A 
ATOM     17  C   UNL     1      -8.557   2.853  -0.975  0.00  0.00    +0.000 A 
ATOM     18  C   UNL     1      -9.574   3.696  -1.438  0.00  0.00    +0.000 A 
ATOM     19  C   UNL     1      -9.727   4.962  -0.883  0.00  0.00    +0.000 A 
ATOM     20  F   UNL     1     -10.706   5.762  -1.328  0.00  0.00    +0.000 F 
ATOM     21  C   UNL     1      -8.870   5.392   0.120  0.00  0.00    +0.000 A 
ATOM     22  F   UNL     1      -9.014   6.614   0.653  0.00  0.00    +0.000 F 
ATOM     23  C   UNL     1      -7.856   4.559   0.586  0.00  0.00    +0.000 A 
ENDBRANCH  15  16
ENDBRANCH  14  15
ENDBRANCH  10  14
TORSDOF 3
