REMARK  Name = 
REMARK  7 active torsions:
REMARK  status: ('A' for Active; 'I' for Inactive)
REMARK    1  A    between atoms: C_1  and  C_2
REMARK    2  A    between atoms: C_7  and  C_8
REMARK    3  A    between atoms: N_10  and  C_11
REMARK    4  A    between atoms: C_11  and  C_12
REMARK    5  A    between atoms: C_15  and  C_16
REMARK    6  A    between atoms: C_16  and  N_17
REMARK    7  A    between atoms: C_18  and  C_20
REMARK                            x       y       z     vdW  Elec       q    Type
REMARK                         _______ _______ _______ _____ _____    ______ ____
ROOT
ATOM      1  C   UNL     1       4.487  -3.795   0.116  0.00  0.00    +0.000 A 
ATOM      2  C   UNL     1       5.014  -2.496   0.116  0.00  0.00    +0.000 A 
ATOM      3  C   UNL     1       6.396  -2.283   0.200  0.00  0.00    +0.000 A 
ATOM      4  C   UNL     1       7.283  -3.365   0.270  0.00  0.00    +0.000 A 
ATOM      5  C   UNL     1       6.755  -4.663   0.290  0.00  0.00    +0.000 A 
ATOM      6  C   UNL     1       5.374  -4.876   0.204  0.00  0.00    +0.000 A 
ENDROOT
BRANCH   1   7
ATOM      7  C   UNL     1       3.001  -4.024  -0.016  0.00  0.00    +0.000 C 
BRANCH   7  10
ATOM      8  C   UNL     1       1.320  -4.454  -1.763  0.00  0.00    +0.000 C 
ATOM      9  O   UNL     1       0.446  -4.686  -0.935  0.00  0.00    +0.000 OA
ATOM     10  N   UNL     1       2.611  -4.124  -1.407  0.00  0.00    +0.000 N 
ATOM     11  H   UNL     1       3.214  -3.679  -2.083  0.00  0.00    +0.000 HD
BRANCH   8  18
ATOM     12  C   UNL     1       3.191  -5.478  -4.016  0.00  0.00    +0.000 C 
ATOM     13  C   UNL     1       1.821  -4.913  -4.242  0.00  0.00    +0.000 A 
ATOM     14  N   UNL     1       1.432  -4.915  -5.551  0.00  0.00    +0.000 NA
ATOM     15  C   UNL     1       0.185  -4.495  -5.850  0.00  0.00    +0.000 A 
ATOM     16  C   UNL     1      -0.716  -4.054  -4.902  0.00  0.00    +0.000 A 
ATOM     17  C   UNL     1      -0.310  -4.040  -3.570  0.00  0.00    +0.000 A 
ATOM     18  C   UNL     1       0.983  -4.461  -3.216  0.00  0.00    +0.000 A 
ENDBRANCH   8  18
ENDBRANCH   7  10
ENDBRANCH   1   7
BRANCH   4  19
ATOM     19  C   UNL     1       8.774  -3.142   0.347  0.00  0.00    +0.000 C 
BRANCH  19  20
ATOM     20  N   UNL     1       9.225  -3.018   1.711  0.00  0.00    +0.000 N 
ATOM     21  C   UNL     1      10.532  -2.712   2.001  0.00  0.00    +0.000 C 
ATOM     22  O   UNL     1      11.354  -2.476   1.119  0.00  0.00    +0.000 OA
ATOM     23  H   UNL     1       8.639  -3.430   2.429  0.00  0.00    +0.000 HD
BRANCH  21  24
ATOM     24  C   UNL     1      10.891  -2.621   3.423  0.00  0.00    +0.000 A 
ATOM     25  C   UNL     1      12.000  -1.878   3.806  0.00  0.00    +0.000 A 
ATOM     26  S   UNL     1      12.248  -1.836   5.493  0.00  0.00    +0.000 S 
ATOM     27  C   UNL     1      10.914  -2.854   5.770  0.00  0.00    +0.000 A 
ATOM     28  N   UNL     1      10.579  -3.241   7.030  0.00  0.00    +0.000 NA
ATOM     29  C   UNL     1       9.564  -4.036   7.092  0.00  0.00    +0.000 A 
ATOM     30  N   UNL     1       8.850  -4.476   6.007  0.00  0.00    +0.000 N 
ATOM     31  C   UNL     1       9.134  -4.090   4.719  0.00  0.00    +0.000 A 
ATOM     32  O   UNL     1       8.450  -4.470   3.774  0.00  0.00    +0.000 OA
ATOM     33  C   UNL     1      10.275  -3.204   4.592  0.00  0.00    +0.000 A 
ATOM     34  H   UNL     1       8.060  -5.093   6.124  0.00  0.00    +0.000 HD
ENDBRANCH  21  24
ENDBRANCH  19  20
ENDBRANCH   4  19
TORSDOF 6
