REMARK  Name = 
REMARK  8 active torsions:
REMARK  status: ('A' for Active; 'I' for Inactive)
REMARK    1  A    between atoms: N_1  and  C_2
REMARK    2  A    between atoms: C_2  and  C_3
REMARK    3  A    between atoms: C_3  and  N_4
REMARK    4  A    between atoms: C_3  and  C_17
REMARK    5  A    between atoms: C_5  and  C_7
REMARK    6  A    between atoms: C_20  and  O_21
REMARK    7  A    between atoms: O_21  and  C_22
REMARK    8  A    between atoms: C_22  and  C_23
REMARK                            x       y       z     vdW  Elec       q    Type
REMARK                         _______ _______ _______ _____ _____    ______ ____
ROOT
ATOM      1  C   UNL     1       3.041  -1.105   0.738  0.00  0.00    +0.000 C 
ENDROOT
BRANCH   1   2
ATOM      2  C   UNL     1       4.550  -1.196   0.623  0.00  0.00    +0.000 A 
ATOM      3  C   UNL     1       5.377  -0.603   1.591  0.00  0.00    +0.000 A 
ATOM      4  C   UNL     1       6.769  -0.720   1.500  0.00  0.00    +0.000 A 
ATOM      5  C   UNL     1       7.339  -1.424   0.439  0.00  0.00    +0.000 A 
ATOM      6  C   UNL     1       6.525  -1.929  -0.572  0.00  0.00    +0.000 A 
ATOM      7  C   UNL     1       5.145  -1.827  -0.474  0.00  0.00    +0.000 A 
BRANCH   5   8
ATOM      8  O   UNL     1       8.695  -1.588   0.473  0.00  0.00    +0.000 OA
BRANCH   8   9
ATOM      9  C   UNL     1       9.148  -2.715  -0.289  0.00  0.00    +0.000 C 
BRANCH   9  10
ATOM     10  C   UNL     1      10.516  -3.137   0.167  0.00  0.00    +0.000 A 
ATOM     11  C   UNL     1      10.727  -3.462   1.506  0.00  0.00    +0.000 A 
ATOM     12  C   UNL     1      11.990  -3.883   1.899  0.00  0.00    +0.000 A 
ATOM     13  C   UNL     1      12.998  -3.976   0.944  0.00  0.00    +0.000 A 
ATOM     14  C   UNL     1      12.697  -3.651  -0.371  0.00  0.00    +0.000 A 
ATOM     15  N   UNL     1      11.482  -3.240  -0.779  0.00  0.00    +0.000 NA
ENDBRANCH   9  10
ENDBRANCH   8   9
ENDBRANCH   5   8
ENDBRANCH   1   2
BRANCH   1  16
ATOM     16  N   UNL     1       2.612   0.067  -0.004  0.00  0.00    +0.000 N 
ATOM     17  C   UNL     1       1.539   0.815   0.410  0.00  0.00    +0.000 C 
ATOM     18  O   UNL     1       0.918   0.575   1.438  0.00  0.00    +0.000 OA
ATOM     19  H   UNL     1       3.013   0.221  -0.918  0.00  0.00    +0.000 HD
BRANCH  17  20
ATOM     20  C   UNL     1       1.215   1.943  -0.455  0.00  0.00    +0.000 A 
ATOM     21  C   UNL     1       2.159   2.712  -1.118  0.00  0.00    +0.000 A 
ATOM     22  S   UNL     1       1.472   4.059  -1.920  0.00  0.00    +0.000 S 
ATOM     23  C   UNL     1      -0.096   3.643  -1.399  0.00  0.00    +0.000 A 
ATOM     24  N   UNL     1      -1.173   4.419  -1.694  0.00  0.00    +0.000 NA
ATOM     25  C   UNL     1      -2.287   3.984  -1.207  0.00  0.00    +0.000 A 
ATOM     26  N   UNL     1      -2.428   2.828  -0.477  0.00  0.00    +0.000 N 
ATOM     27  C   UNL     1      -1.391   1.952  -0.259  0.00  0.00    +0.000 A 
ATOM     28  O   UNL     1      -1.594   0.823   0.173  0.00  0.00    +0.000 OA
ATOM     29  C   UNL     1      -0.102   2.465  -0.680  0.00  0.00    +0.000 A 
ATOM     30  H   UNL     1      -3.340   2.505  -0.192  0.00  0.00    +0.000 HD
ENDBRANCH  17  20
ENDBRANCH   1  16
BRANCH   1  31
ATOM     31  C   UNL     1       2.272  -2.370   0.240  0.00  0.00    +0.000 C 
BRANCH  31  32
ATOM     32  N   UNL     1       2.638  -3.615   0.924  0.00  0.00    +0.000 NA
ATOM     33  H   UNL     1       2.117  -4.391   0.519  0.00  0.00    +0.000 HD
ATOM     34  H   UNL     1       2.349  -3.555   1.901  0.00  0.00    +0.000 HD
ENDBRANCH  31  32
ENDBRANCH   1  31
TORSDOF 8
