REMARK  Name = 
REMARK  6 active torsions:
REMARK  status: ('A' for Active; 'I' for Inactive)
REMARK    1  A    between atoms: C_1  and  C_2
REMARK    2  A    between atoms: C_2  and  C_3
REMARK    3  A    between atoms: C_2  and  N_4
REMARK    4  A    between atoms: C_2  and  C_14
REMARK    5  A    between atoms: N_4  and  C_5
REMARK    6  A    between atoms: C_8  and  C_9
REMARK                            x       y       z     vdW  Elec       q    Type
REMARK                         _______ _______ _______ _____ _____    ______ ____
ROOT
ATOM      1  N   UNL     1       2.724  -0.976   1.075  0.00  0.00    +0.000 N 
ATOM      2  H   UNL     1       3.727  -1.032   1.249  0.00  0.00    +0.000 HD
ENDROOT
BRANCH   1   3
ATOM      3  C   UNL     1       2.006  -1.258   2.231  0.00  0.00    +0.000 A 
ATOM      4  C   UNL     1       2.107  -2.547   2.774  0.00  0.00    +0.000 A 
ATOM      5  C   UNL     1       1.362  -2.930   3.898  0.00  0.00    +0.000 A 
ATOM      6  C   UNL     1       0.521  -2.010   4.527  0.00  0.00    +0.000 A 
ATOM      7  C   UNL     1       0.447  -0.710   4.031  0.00  0.00    +0.000 A 
ATOM      8  C   UNL     1       1.198  -0.342   2.909  0.00  0.00    +0.000 A 
BRANCH   6   9
ATOM      9  C   UNL     1      -0.300  -2.454   5.686  0.00  0.00    +0.000 C 
ATOM     10  N   UNL     1      -0.722  -1.491   6.562  0.00  0.00    +0.000 N 
ATOM     11  O   UNL     1      -0.571  -3.633   5.871  0.00  0.00    +0.000 OA
ATOM     12  H   UNL     1      -0.336  -0.560   6.580  0.00  0.00    +0.000 HD
ATOM     13  H   UNL     1      -1.206  -1.818   7.389  0.00  0.00    +0.000 HD
ENDBRANCH   6   9
ENDBRANCH   1   3
BRANCH   1  15
ATOM     14  C   UNL     1       0.831   0.078  -0.184  0.00  0.00    +0.000 C 
ATOM     15  C   UNL     1       2.362   0.008   0.033  0.00  0.00    +0.000 C 
ATOM     16  C   UNL     1       2.889   1.401   0.428  0.00  0.00    +0.000 C 
BRANCH  15  17
ATOM     17  C   UNL     1       3.010  -0.447  -1.342  0.00  0.00    +0.000 C 
ATOM     18  C   UNL     1       2.539  -1.850  -1.796  0.00  0.00    +0.000 C 
ATOM     19  C   UNL     1       3.096  -2.230  -3.166  0.00  0.00    +0.000 C 
ATOM     20  C   UNL     1       4.616  -2.142  -3.200  0.00  0.00    +0.000 C 
ATOM     21  C   UNL     1       5.097  -0.763  -2.765  0.00  0.00    +0.000 C 
ATOM     22  C   UNL     1       4.553  -0.377  -1.389  0.00  0.00    +0.000 C 
ENDBRANCH  15  17
ENDBRANCH   1  15
TORSDOF 4
