REMARK  Name = 
REMARK  11 active torsions:
REMARK  status: ('A' for Active; 'I' for Inactive)
REMARK    1  A    between atoms: C_1  and  O_2
REMARK    2  A    between atoms: O_2  and  C_3
REMARK    3  A    between atoms: C_10  and  C_11
REMARK    4  A    between atoms: N_13  and  C_14
REMARK    5  A    between atoms: C_14  and  C_15
REMARK    6  A    between atoms: C_18  and  C_19
REMARK    7  A    between atoms: C_19  and  N_20
REMARK    8  A    between atoms: N_20  and  C_21
REMARK    9  A    between atoms: N_20  and  C_22
REMARK   10  A    between atoms: C_22  and  C_23
REMARK   11  A    between atoms: C_22  and  C_24
REMARK                            x       y       z     vdW  Elec       q    Type
REMARK                         _______ _______ _______ _____ _____    ______ ____
ROOT
ATOM      1  C   UNL     1       2.172  -1.887   2.744  0.00  0.00    +0.000 A 
ATOM      2  C   UNL     1       1.074  -2.578   3.274  0.00  0.00    +0.000 A 
ATOM      3  C   UNL     1       0.099  -1.906   4.017  0.00  0.00    +0.000 A 
ATOM      4  C   UNL     1       0.199  -0.526   4.243  0.00  0.00    +0.000 A 
ATOM      5  C   UNL     1       1.275   0.172   3.677  0.00  0.00    +0.000 A 
ATOM      6  C   UNL     1       2.249  -0.500   2.933  0.00  0.00    +0.000 A 
ENDROOT
BRANCH   1   7
ATOM      7  C   UNL     1       3.217  -2.610   1.931  0.00  0.00    +0.000 C 
BRANCH   7  10
ATOM      8  C   UNL     1       3.601  -3.247  -0.419  0.00  0.00    +0.000 C 
ATOM      9  O   UNL     1       4.639  -3.841  -0.133  0.00  0.00    +0.000 OA
ATOM     10  N   UNL     1       2.851  -2.625   0.537  0.00  0.00    +0.000 N 
ATOM     11  H   UNL     1       2.014  -2.122   0.281  0.00  0.00    +0.000 HD
BRANCH   8  19
ATOM     12  C   UNL     1       0.787  -1.885  -1.868  0.00  0.00    +0.000 A 
ATOM     13  N   UNL     1      -0.178  -1.419  -2.686  0.00  0.00    +0.000 NA
ATOM     14  C   UNL     1      -0.058  -1.655  -3.995  0.00  0.00    +0.000 A 
ATOM     15  N   UNL     1       0.921  -2.318  -4.600  0.00  0.00    +0.000 NA
ATOM     16  C   UNL     1       1.866  -2.757  -3.754  0.00  0.00    +0.000 A 
ATOM     17  S   UNL     1       3.190  -3.631  -4.357  0.00  0.00    +0.000 S 
ATOM     18  C   UNL     1       3.857  -3.789  -2.803  0.00  0.00    +0.000 A 
ATOM     19  C   UNL     1       3.103  -3.185  -1.805  0.00  0.00    +0.000 A 
ATOM     20  C   UNL     1       1.900  -2.582  -2.375  0.00  0.00    +0.000 A 
BRANCH  12  22
ATOM     21  C   UNL     1      -0.665  -1.390  -0.097  0.00  0.00    +0.000 C 
ATOM     22  O   UNL     1       0.678  -1.618  -0.520  0.00  0.00    +0.000 OA
ENDBRANCH  12  22
ENDBRANCH   8  19
ENDBRANCH   7  10
ENDBRANCH   1   7
BRANCH   4  23
ATOM     23  C   UNL     1      -0.829   0.203   5.093  0.00  0.00    +0.000 C 
BRANCH  23  24
ATOM     24  N   UNL     1      -0.936  -0.302   6.474  0.00  0.00    +0.000 NA
ATOM     25  C   UNL     1       0.355  -0.224   7.173  0.00  0.00    +0.000 C 
BRANCH  24  26
ATOM     26  C   UNL     1      -2.003   0.357   7.271  0.00  0.00    +0.000 C 
ATOM     27  C   UNL     1      -1.793   1.859   7.558  0.00  0.00    +0.000 C 
BRANCH  26  28
ATOM     28  C   UNL     1      -3.421   0.089   6.756  0.00  0.00    +0.000 A 
ATOM     29  C   UNL     1      -4.138  -1.022   7.228  0.00  0.00    +0.000 A 
ATOM     30  C   UNL     1      -5.481  -1.206   6.884  0.00  0.00    +0.000 A 
ATOM     31  C   UNL     1      -6.120  -0.295   6.045  0.00  0.00    +0.000 A 
ATOM     32  C   UNL     1      -5.410   0.782   5.525  0.00  0.00    +0.000 A 
ATOM     33  C   UNL     1      -4.071   0.968   5.872  0.00  0.00    +0.000 A 
ENDBRANCH  26  28
ENDBRANCH  24  26
ENDBRANCH  23  24
ENDBRANCH   4  23
TORSDOF 8
