REMARK  Name = 
REMARK  8 active torsions:
REMARK  status: ('A' for Active; 'I' for Inactive)
REMARK    1  A    between atoms: N_1  and  C_2
REMARK    2  A    between atoms: C_2  and  C_3
REMARK    3  A    between atoms: C_2  and  C_7
REMARK    4  A    between atoms: C_3  and  C_4
REMARK    5  A    between atoms: C_4  and  C_5
REMARK    6  A    between atoms: C_10  and  O_11
REMARK    7  A    between atoms: O_11  and  C_12
REMARK    8  A    between atoms: C_12  and  C_13
REMARK                            x       y       z     vdW  Elec       q    Type
REMARK                         _______ _______ _______ _____ _____    ______ ____
ROOT
ATOM      1  C   UNL     1       2.970  -0.017  -1.326  0.00  0.00    +0.000 A 
ATOM      2  C   UNL     1       3.322   1.161  -2.005  0.00  0.00    +0.000 A 
ATOM      3  C   UNL     1       3.880   1.118  -3.286  0.00  0.00    +0.000 A 
ATOM      4  C   UNL     1       4.125  -0.110  -3.891  0.00  0.00    +0.000 A 
ATOM      5  C   UNL     1       3.734  -1.284  -3.250  0.00  0.00    +0.000 A 
ATOM      6  C   UNL     1       3.190  -1.242  -1.972  0.00  0.00    +0.000 A 
ENDROOT
BRANCH   1   7
ATOM      7  C   UNL     1       2.397  -0.010   0.082  0.00  0.00    +0.000 C 
BRANCH   7   8
ATOM      8  N   UNL     1       2.237   1.343   0.623  0.00  0.00    +0.000 NA
ATOM      9  H   UNL     1       1.860   1.292   1.565  0.00  0.00    +0.000 HD
ATOM     10  H   UNL     1       1.545   1.843   0.067  0.00  0.00    +0.000 HD
ENDBRANCH   7   8
BRANCH   7  11
ATOM     11  C   UNL     1       1.074  -0.802   0.194  0.00  0.00    +0.000 C 
BRANCH  11  12
ATOM     12  C   UNL     1      -0.077  -0.243  -0.653  0.00  0.00    +0.000 C 
BRANCH  12  13
ATOM     13  C   UNL     1      -1.327  -1.090  -0.496  0.00  0.00    +0.000 C 
ATOM     14  F   UNL     1      -1.697  -1.092   0.813  0.00  0.00    +0.000 F 
ENDBRANCH  12  13
ENDBRANCH  11  12
ENDBRANCH   7  11
ENDBRANCH   1   7
BRANCH   4  15
ATOM     15  O   UNL     1       4.764  -0.080  -5.100  0.00  0.00    +0.000 OA
BRANCH  15  16
ATOM     16  C   UNL     1       5.476  -1.289  -5.396  0.00  0.00    +0.000 C 
BRANCH  16  17
ATOM     17  C   UNL     1       6.568  -1.010  -6.391  0.00  0.00    +0.000 A 
ATOM     18  C   UNL     1       7.552  -0.071  -6.074  0.00  0.00    +0.000 A 
ATOM     19  C   UNL     1       8.567   0.161  -6.993  0.00  0.00    +0.000 A 
ATOM     20  C   UNL     1       8.578  -0.549  -8.187  0.00  0.00    +0.000 A 
ATOM     21  C   UNL     1       7.571  -1.476  -8.413  0.00  0.00    +0.000 A 
ATOM     22  N   UNL     1       6.575  -1.725  -7.541  0.00  0.00    +0.000 NA
ENDBRANCH  16  17
ENDBRANCH  15  16
ENDBRANCH   4  15
TORSDOF 8
