REMARK  Name = 
REMARK  7 active torsions:
REMARK  status: ('A' for Active; 'I' for Inactive)
REMARK    1  A    between atoms: C_1  and  O_2
REMARK    2  A    between atoms: O_2  and  C_3
REMARK    3  A    between atoms: C_6  and  C_7
REMARK    4  A    between atoms: C_11  and  O_12
REMARK    5  A    between atoms: O_12  and  C_13
REMARK    6  A    between atoms: C_13  and  C_14
REMARK    7  A    between atoms: C_19  and  C_20
REMARK                            x       y       z     vdW  Elec       q    Type
REMARK                         _______ _______ _______ _____ _____    ______ ____
ROOT
ATOM      1  C   UNL     1       4.420   1.134  -3.436  0.00  0.00    +0.000 A 
ATOM      2  N   UNL     1       3.778   1.950  -4.283  0.00  0.00    +0.000 NA
ATOM      3  C   UNL     1       4.356   2.108  -5.462  0.00  0.00    +0.000 A 
ATOM      4  N   UNL     1       3.743   2.946  -6.373  0.00  0.00    +0.000 N 
ATOM      5  N   UNL     1       5.462   1.506  -5.860  0.00  0.00    +0.000 NA
ATOM      6  C   UNL     1       6.025   0.709  -4.952  0.00  0.00    +0.000 A 
ATOM      7  N   UNL     1       5.535   0.472  -3.738  0.00  0.00    +0.000 NA
ATOM      8  H   UNL     1       2.760   3.037  -6.175  0.00  0.00    +0.000 HD
ATOM      9  H   UNL     1       4.016   2.707  -7.318  0.00  0.00    +0.000 HD
ENDROOT
BRANCH   6  10
ATOM     10  C   UNL     1       7.302   0.064  -5.297  0.00  0.00    +0.000 A 
ATOM     11  C   UNL     1       7.946   0.309  -6.526  0.00  0.00    +0.000 A 
ATOM     12  C   UNL     1       9.171  -0.290  -6.833  0.00  0.00    +0.000 A 
ATOM     13  C   UNL     1       9.769  -1.148  -5.914  0.00  0.00    +0.000 A 
ATOM     14 CL   UNL     1      11.274  -1.888  -6.290  0.00  0.00    +0.000 Cl
ATOM     15  C   UNL     1       9.157  -1.413  -4.695  0.00  0.00    +0.000 A 
ATOM     16  C   UNL     1       7.934  -0.810  -4.391  0.00  0.00    +0.000 A 
ENDBRANCH   6  10
BRANCH   1  17
ATOM     17  C   UNL     1       3.818   0.894  -2.071  0.00  0.00    +0.000 C 
BRANCH  17  18
ATOM     18  O   UNL     1       4.714   1.296  -1.026  0.00  0.00    +0.000 OA
BRANCH  18  24
ATOM     19  C   UNL     1       3.058   0.603   0.712  0.00  0.00    +0.000 A 
ATOM     20  C   UNL     1       2.781   0.567   2.082  0.00  0.00    +0.000 A 
ATOM     21  C   UNL     1       3.711   1.030   3.011  0.00  0.00    +0.000 A 
ATOM     22  C   UNL     1       4.949   1.525   2.595  0.00  0.00    +0.000 A 
ATOM     23  C   UNL     1       5.229   1.577   1.222  0.00  0.00    +0.000 A 
ATOM     24  C   UNL     1       4.286   1.134   0.273  0.00  0.00    +0.000 A 
BRANCH  22  25
ATOM     25  C   UNL     1       5.896   1.963   3.658  0.00  0.00    +0.000 C 
ATOM     26  N   UNL     1       7.120   2.446   3.294  0.00  0.00    +0.000 N 
ATOM     27  O   UNL     1       5.599   1.890   4.848  0.00  0.00    +0.000 OA
ATOM     28  H   UNL     1       7.450   2.548   2.348  0.00  0.00    +0.000 HD
ATOM     29  H   UNL     1       7.734   2.737   4.044  0.00  0.00    +0.000 HD
ENDBRANCH  22  25
BRANCH  19  31
ATOM     30  C   UNL     1       0.827  -0.003   0.122  0.00  0.00    +0.000 C 
ATOM     31  O   UNL     1       2.208   0.054  -0.208  0.00  0.00    +0.000 OA
ENDBRANCH  19  31
ENDBRANCH  18  24
ENDBRANCH  17  18
ENDBRANCH   1  17
TORSDOF 6
