REMARK  Name = 
REMARK  7 active torsions:
REMARK  status: ('A' for Active; 'I' for Inactive)
REMARK    1  A    between atoms: N_1  and  C_2
REMARK    2  A    between atoms: C_2  and  C_3
REMARK    3  A    between atoms: C_6  and  C_7
REMARK    4  A    between atoms: C_7  and  C_8
REMARK    5  A    between atoms: C_8  and  N_9
REMARK    6  A    between atoms: N_9  and  C_10
REMARK    7  A    between atoms: C_13  and  C_14
REMARK                            x       y       z     vdW  Elec       q    Type
REMARK                         _______ _______ _______ _____ _____    ______ ____
ROOT
ATOM      1  N   UNL     1       4.987  -6.060   4.178  0.00  0.00    +0.000 N 
ATOM      2  H   UNL     1       5.282  -6.783   3.522  0.00  0.00    +0.000 HD
ENDROOT
BRANCH   1   3
ATOM      3  C   UNL     1       5.807  -6.025   5.317  0.00  0.00    +0.000 A 
ATOM      4  C   UNL     1       5.888  -4.950   6.191  0.00  0.00    +0.000 A 
ATOM      5  N   UNL     1       6.636  -4.912   7.316  0.00  0.00    +0.000 NA
ATOM      6  C   UNL     1       7.313  -6.049   7.589  0.00  0.00    +0.000 A 
ATOM      7  N   UNL     1       7.304  -7.171   6.844  0.00  0.00    +0.000 NA
ATOM      8  C   UNL     1       6.534  -7.130   5.737  0.00  0.00    +0.000 A 
BRANCH   6   9
ATOM      9  C   UNL     1       8.123  -6.055   8.864  0.00  0.00    +0.000 C 
ATOM     10  N   UNL     1       8.083  -4.900   9.609  0.00  0.00    +0.000 N 
ATOM     11  O   UNL     1       8.787  -7.017   9.252  0.00  0.00    +0.000 OA
ATOM     12  H   UNL     1       7.516  -4.118   9.300  0.00  0.00    +0.000 HD
ATOM     13  H   UNL     1       8.586  -4.860  10.483  0.00  0.00    +0.000 HD
ENDBRANCH   6   9
ENDBRANCH   1   3
BRANCH   1  14
ATOM     14  C   UNL     1       4.769  -4.756   3.521  0.00  0.00    +0.000 C 
BRANCH  14  15
ATOM     15  C   UNL     1       3.876  -4.910   2.300  0.00  0.00    +0.000 C 
BRANCH  15  19
ATOM     16  C   UNL     1       3.125  -1.337   0.181  0.00  0.00    +0.000 A 
ATOM     17  C   UNL     1       4.229  -2.131  -0.053  0.00  0.00    +0.000 A 
ATOM     18  N   UNL     1       4.510  -3.257   0.636  0.00  0.00    +0.000 NA
ATOM     19  C   UNL     1       3.638  -3.602   1.601  0.00  0.00    +0.000 A 
ATOM     20  N   UNL     1       2.556  -2.877   1.944  0.00  0.00    +0.000 NA
ATOM     21  C   UNL     1       2.327  -1.759   1.223  0.00  0.00    +0.000 A 
BRANCH  16  22
ATOM     22  C   UNL     1       2.823  -0.120  -0.629  0.00  0.00    +0.000 C 
BRANCH  22  23
ATOM     23  N   UNL     1       2.650  -0.446  -2.040  0.00  0.00    +0.000 NA
ATOM     24  H   UNL     1       2.383   0.392  -2.552  0.00  0.00    +0.000 HD
ATOM     25  H   UNL     1       1.875  -1.101  -2.145  0.00  0.00    +0.000 HD
ENDBRANCH  22  23
ENDBRANCH  16  22
ENDBRANCH  15  19
ENDBRANCH  14  15
ENDBRANCH   1  14
TORSDOF 7
