REMARK  Name = 
REMARK  3 active torsions:
REMARK  status: ('A' for Active; 'I' for Inactive)
REMARK    1  A    between atoms: C_2  and  C_4
REMARK    2  A    between atoms: C_7  and  C_8
REMARK    3  A    between atoms: C_8  and  N_9
REMARK                            x       y       z     vdW  Elec       q    Type
REMARK                         _______ _______ _______ _____ _____    ______ ____
ROOT
ATOM      1  C   UNL     1       3.208   0.036   1.197  0.00  0.00    +0.000 A 
ATOM      2  C   UNL     1       2.771  -0.766   2.253  0.00  0.00    +0.000 A 
ATOM      3  C   UNL     1       3.489  -0.773   3.451  0.00  0.00    +0.000 A 
ATOM      4  C   UNL     1       4.638   0.011   3.557  0.00  0.00    +0.000 A 
ATOM      5  N   UNL     1       5.079   0.789   2.534  0.00  0.00    +0.000 NA
ATOM      6  C   UNL     1       4.362   0.781   1.382  0.00  0.00    +0.000 A 
ENDROOT
BRANCH   1   8
ATOM      7  N   UNL     1       1.182  -0.185  -0.129  0.00  0.00    +0.000 N 
ATOM      8  C   UNL     1       2.518   0.106  -0.108  0.00  0.00    +0.000 C 
ATOM      9  O   UNL     1       3.107   0.441  -1.126  0.00  0.00    +0.000 OA
ATOM     10  H   UNL     1       0.706  -0.023  -1.008  0.00  0.00    +0.000 HD
ATOM     11  H   UNL     1       0.617  -0.208   0.708  0.00  0.00    +0.000 HD
ENDBRANCH   1   8
BRANCH   4  12
ATOM     12  C   UNL     1       5.460   0.006   4.833  0.00  0.00    +0.000 C 
BRANCH  12  13
ATOM     13  N   UNL     1       4.995   1.016   5.768  0.00  0.00    +0.000 N 
ATOM     14  C   UNL     1       5.630   1.170   6.985  0.00  0.00    +0.000 A 
ATOM     15  C   UNL     1       6.998   0.964   7.199  0.00  0.00    +0.000 A 
ATOM     16  N   UNL     1       7.620   1.160   8.391  0.00  0.00    +0.000 NA
ATOM     17  C   UNL     1       6.822   1.610   9.378  0.00  0.00    +0.000 A 
ATOM     18  C   UNL     1       5.470   1.832   9.183  0.00  0.00    +0.000 A 
ATOM     19  N   UNL     1       4.852   1.607   7.997  0.00  0.00    +0.000 NA
ATOM     20  H   UNL     1       3.993   1.100   5.898  0.00  0.00    +0.000 HD
ENDBRANCH  12  13
ENDBRANCH   4  12
TORSDOF 3
