REMARK  Name = 
REMARK  10 active torsions:
REMARK  status: ('A' for Active; 'I' for Inactive)
REMARK    1  A    between atoms: C_1  and  O_2
REMARK    2  A    between atoms: O_2  and  C_3
REMARK    3  A    between atoms: C_10  and  C_11
REMARK    4  A    between atoms: N_13  and  C_14
REMARK    5  A    between atoms: C_14  and  C_15
REMARK    6  A    between atoms: C_18  and  C_19
REMARK    7  A    between atoms: C_19  and  O_20
REMARK    8  A    between atoms: O_20  and  C_21
REMARK    9  A    between atoms: C_21  and  C_22
REMARK   10  A    between atoms: C_21  and  C_23
REMARK                            x       y       z     vdW  Elec       q    Type
REMARK                         _______ _______ _______ _____ _____    ______ ____
ROOT
ATOM      1  C   UNL     1       2.800   3.341   0.529  0.00  0.00    +0.000 C 
ENDROOT
BRANCH   1   2
ATOM      2  C   UNL     1       1.615   3.359  -0.412  0.00  0.00    +0.000 A 
ATOM      3  C   UNL     1       1.245   2.205  -1.115  0.00  0.00    +0.000 A 
ATOM      4  C   UNL     1       0.053   2.164  -1.850  0.00  0.00    +0.000 A 
ATOM      5  C   UNL     1      -0.776   3.290  -1.946  0.00  0.00    +0.000 A 
ATOM      6  C   UNL     1      -0.354   4.476  -1.330  0.00  0.00    +0.000 A 
ATOM      7  C   UNL     1       0.825   4.508  -0.566  0.00  0.00    +0.000 A 
BRANCH   5   8
ATOM      8  C   UNL     1      -2.057   3.228  -2.750  0.00  0.00    +0.000 C 
BRANCH   8   9
ATOM      9  O   UNL     1      -2.892   2.172  -2.267  0.00  0.00    +0.000 OA
BRANCH   9  10
ATOM     10  C   UNL     1      -4.154   2.052  -2.953  0.00  0.00    +0.000 C 
ATOM     11  C   UNL     1      -3.958   1.685  -4.427  0.00  0.00    +0.000 C 
BRANCH  10  12
ATOM     12  C   UNL     1      -5.023   0.977  -2.299  0.00  0.00    +0.000 A 
ATOM     13  C   UNL     1      -4.451  -0.123  -1.657  0.00  0.00    +0.000 A 
ATOM     14  C   UNL     1      -5.276  -1.122  -1.142  0.00  0.00    +0.000 A 
ATOM     15  C   UNL     1      -6.652  -1.006  -1.278  0.00  0.00    +0.000 A 
ATOM     16  C   UNL     1      -7.148   0.114  -1.925  0.00  0.00    +0.000 A 
ATOM     17  N   UNL     1      -6.371   1.097  -2.440  0.00  0.00    +0.000 NA
ENDBRANCH  10  12
ENDBRANCH   9  10
ENDBRANCH   8   9
ENDBRANCH   5   8
ENDBRANCH   1   2
BRANCH   1  20
ATOM     18  C   UNL     1       5.225   3.809   0.572  0.00  0.00    +0.000 C 
ATOM     19  O   UNL     1       5.300   3.528   1.772  0.00  0.00    +0.000 OA
ATOM     20  N   UNL     1       4.035   3.740  -0.101  0.00  0.00    +0.000 N 
ATOM     21  H   UNL     1       4.009   3.905  -1.097  0.00  0.00    +0.000 HD
BRANCH  18  29
ATOM     22  C   UNL     1       5.743   4.643  -2.713  0.00  0.00    +0.000 A 
ATOM     23  N   UNL     1       6.165   5.130  -3.896  0.00  0.00    +0.000 NA
ATOM     24  C   UNL     1       7.420   5.581  -3.972  0.00  0.00    +0.000 A 
ATOM     25  N   UNL     1       8.332   5.579  -3.003  0.00  0.00    +0.000 NA
ATOM     26  C   UNL     1       7.864   5.095  -1.840  0.00  0.00    +0.000 A 
ATOM     27  S   UNL     1       8.891   4.985  -0.493  0.00  0.00    +0.000 S 
ATOM     28  C   UNL     1       7.634   4.373   0.479  0.00  0.00    +0.000 A 
ATOM     29  C   UNL     1       6.417   4.255  -0.181  0.00  0.00    +0.000 A 
ATOM     30  C   UNL     1       6.575   4.636  -1.585  0.00  0.00    +0.000 A 
BRANCH  22  32
ATOM     31  C   UNL     1       3.963   3.662  -3.867  0.00  0.00    +0.000 C 
ATOM     32  O   UNL     1       4.452   4.170  -2.631  0.00  0.00    +0.000 OA
ENDBRANCH  22  32
ENDBRANCH  18  29
ENDBRANCH   1  20
TORSDOF 8
