REMARK  Name = 
REMARK  5 active torsions:
REMARK  status: ('A' for Active; 'I' for Inactive)
REMARK    1  A    between atoms: C_2  and  C_5
REMARK    2  A    between atoms: C_9  and  N_10
REMARK    3  A    between atoms: N_10  and  C_11
REMARK    4  A    between atoms: C_11  and  C_12
REMARK    5  A    between atoms: C_16  and  C_17
REMARK                            x       y       z     vdW  Elec       q    Type
REMARK                         _______ _______ _______ _____ _____    ______ ____
ROOT
ATOM      1  C   UNL     1       5.441  -1.644   3.882  0.00  0.00    +0.000 C 
ENDROOT
BRANCH   1   2
ATOM      2  C   UNL     1       6.336  -2.059   5.022  0.00  0.00    +0.000 A 
ATOM      3  C   UNL     1       6.471  -3.399   5.386  0.00  0.00    +0.000 A 
ATOM      4  C   UNL     1       7.271  -3.709   6.472  0.00  0.00    +0.000 A 
ATOM      5  N   UNL     1       7.938  -2.791   7.206  0.00  0.00    +0.000 NA
ATOM      6  C   UNL     1       7.828  -1.483   6.847  0.00  0.00    +0.000 A 
ATOM      7  C   UNL     1       7.047  -1.098   5.753  0.00  0.00    +0.000 A 
BRANCH   6   8
ATOM      8  C   UNL     1       8.541  -0.493   7.693  0.00  0.00    +0.000 A 
ATOM      9  C   UNL     1       9.244  -0.865   8.841  0.00  0.00    +0.000 A 
ATOM     10  C   UNL     1       9.870   0.111   9.614  0.00  0.00    +0.000 A 
ATOM     11  C   UNL     1       9.787   1.441   9.225  0.00  0.00    +0.000 A 
ATOM     12  C   UNL     1       9.079   1.738   8.076  0.00  0.00    +0.000 A 
ATOM     13  N   UNL     1       8.460   0.813   7.309  0.00  0.00    +0.000 NA
ENDBRANCH   6   8
ENDBRANCH   1   2
BRANCH   1  14
ATOM     14  N   UNL     1       6.170  -1.686   2.625  0.00  0.00    +0.000 N 
ATOM     15  H   UNL     1       7.133  -1.363   2.705  0.00  0.00    +0.000 HD
BRANCH  14  20
ATOM     16  C   UNL     1       3.643  -0.766   0.021  0.00  0.00    +0.000 A 
ATOM     17  C   UNL     1       4.492  -0.756  -1.071  0.00  0.00    +0.000 A 
ATOM     18  N   UNL     1       5.815  -1.009  -0.990  0.00  0.00    +0.000 NA
ATOM     19  C   UNL     1       6.305  -1.283   0.244  0.00  0.00    +0.000 A 
ATOM     20  C   UNL     1       5.565  -1.299   1.429  0.00  0.00    +0.000 A 
ATOM     21  C   UNL     1       4.197  -1.055   1.281  0.00  0.00    +0.000 A 
BRANCH  16  23
ATOM     22  F   UNL     1       1.807  -0.273  -1.437  0.00  0.00    +0.000 F 
ATOM     23  C   UNL     1       2.183  -0.483  -0.145  0.00  0.00    +0.000 C 
ATOM     24  F   UNL     1       1.788   0.625   0.541  0.00  0.00    +0.000 F 
ATOM     25  F   UNL     1       1.399  -1.499   0.309  0.00  0.00    +0.000 F 
ENDBRANCH  16  23
ENDBRANCH  14  20
ENDBRANCH   1  14
TORSDOF 5
