REMARK  Name = 
REMARK  6 active torsions:
REMARK  status: ('A' for Active; 'I' for Inactive)
REMARK    1  A    between atoms: N_1  and  C_2
REMARK    2  A    between atoms: C_2  and  C_3
REMARK    3  A    between atoms: C_3  and  C_4
REMARK    4  A    between atoms: C_4  and  N_5
REMARK    5  A    between atoms: N_8  and  C_9
REMARK    6  A    between atoms: C_9  and  C_10
REMARK                            x       y       z     vdW  Elec       q    Type
REMARK                         _______ _______ _______ _____ _____    ______ ____
ROOT
ATOM      1  N   UNL     1       5.198  -2.275  -0.714  0.00  0.00    +0.000 NA
ATOM      2  C   UNL     1       4.741  -3.535  -0.071  0.00  0.00    +0.000 C 
ATOM      3  C   UNL     1       4.886  -3.562   1.471  0.00  0.00    +0.000 C 
ATOM      4  N   UNL     1       6.242  -3.248   1.971  0.00  0.00    +0.000 NA
ATOM      5  C   UNL     1       6.686  -1.981   1.341  0.00  0.00    +0.000 C 
ATOM      6  C   UNL     1       6.548  -1.952  -0.204  0.00  0.00    +0.000 C 
ENDROOT
BRANCH   1   7
ATOM      7  C   UNL     1       4.215  -1.204  -0.465  0.00  0.00    +0.000 C 
BRANCH   7   8
ATOM      8  C   UNL     1       4.507   0.127  -1.172  0.00  0.00    +0.000 C 
BRANCH   8   9
ATOM      9  C   UNL     1       3.411   1.135  -0.823  0.00  0.00    +0.000 C 
BRANCH   9  10
ATOM     10  N   UNL     1       3.675   2.434  -1.427  0.00  0.00    +0.000 NA
ATOM     11  H   UNL     1       2.918   3.075  -1.187  0.00  0.00    +0.000 HD
ATOM     12  H   UNL     1       3.666   2.349  -2.442  0.00  0.00    +0.000 HD
ENDBRANCH   9  10
ENDBRANCH   8   9
ENDBRANCH   7   8
ENDBRANCH   1   7
BRANCH   4  13
ATOM     13  C   UNL     1       7.225  -4.311   1.686  0.00  0.00    +0.000 C 
BRANCH  13  14
ATOM     14  C   UNL     1       6.866  -5.607   2.348  0.00  0.00    +0.000 A 
ATOM     15  C   UNL     1       6.687  -5.831   3.705  0.00  0.00    +0.000 A 
ATOM     16  N   UNL     1       6.390  -7.156   3.887  0.00  0.00    +0.000 N 
ATOM     17  C   UNL     1       6.377  -7.802   2.685  0.00  0.00    +0.000 A 
ATOM     18  N   UNL     1       6.119  -9.113   2.530  0.00  0.00    +0.000 NA
ATOM     19  C   UNL     1       6.179  -9.510   1.238  0.00  0.00    +0.000 A 
ATOM     20  C   UNL     1       6.472  -8.696   0.153  0.00  0.00    +0.000 A 
ATOM     21  C   UNL     1       6.727  -7.341   0.371  0.00  0.00    +0.000 A 
ATOM     22  C   UNL     1       6.677  -6.870   1.695  0.00  0.00    +0.000 A 
ATOM     23  H   UNL     1       6.211  -7.615   4.768  0.00  0.00    +0.000 HD
ENDBRANCH  13  14
ENDBRANCH   4  13
TORSDOF 6
