REMARK  Name = 
REMARK  7 active torsions:
REMARK  status: ('A' for Active; 'I' for Inactive)
REMARK    1  A    between atoms: C_2  and  C_3
REMARK    2  A    between atoms: C_7  and  C_8
REMARK    3  A    between atoms: N_10  and  C_11
REMARK    4  A    between atoms: C_11  and  C_12
REMARK    5  A    between atoms: C_15  and  C_16
REMARK    6  A    between atoms: C_16  and  N_17
REMARK    7  A    between atoms: C_18  and  C_20
REMARK                            x       y       z     vdW  Elec       q    Type
REMARK                         _______ _______ _______ _____ _____    ______ ____
ROOT
ATOM      1  C   UNL     1       3.943   6.019   1.372  0.00  0.00    +0.000 C 
ATOM      2  C   UNL     1       2.606   6.747   1.141  0.00  0.00    +0.000 C 
ATOM      3  C   UNL     1       2.474   8.003   2.009  0.00  0.00    +0.000 C 
ATOM      4  C   UNL     1       3.649   8.981   1.830  0.00  0.00    +0.000 C 
ATOM      5  C   UNL     1       4.960   8.228   2.115  0.00  0.00    +0.000 C 
ATOM      6  C   UNL     1       5.117   7.004   1.208  0.00  0.00    +0.000 C 
ENDROOT
BRANCH   1   7
ATOM      7  C   UNL     1       3.983   5.356   2.762  0.00  0.00    +0.000 C 
BRANCH   7  10
ATOM      8  C   UNL     1       3.181   3.047   2.644  0.00  0.00    +0.000 C 
ATOM      9  O   UNL     1       4.242   2.659   2.166  0.00  0.00    +0.000 OA
ATOM     10  N   UNL     1       2.942   4.367   2.951  0.00  0.00    +0.000 N 
ATOM     11  H   UNL     1       2.012   4.676   3.193  0.00  0.00    +0.000 HD
BRANCH   8  16
ATOM     12  C   UNL     1       2.438   0.647   2.721  0.00  0.00    +0.000 C 
ATOM     13  C   UNL     1       1.475  -0.156   3.598  0.00  0.00    +0.000 C 
ATOM     14  C   UNL     1       0.971   0.800   4.678  0.00  0.00    +0.000 C 
ATOM     15  C   UNL     1       1.660   2.133   4.428  0.00  0.00    +0.000 C 
ATOM     16  C   UNL     1       2.032   2.107   2.949  0.00  0.00    +0.000 C 
BRANCH  12  18
ATOM     17  N   UNL     1       2.221  -0.018   0.191  0.00  0.00    +0.000 NA
ATOM     18  C   UNL     1       2.336   0.271   1.298  0.00  0.00    +0.000 C 
ENDBRANCH  12  18
ENDBRANCH   8  16
ENDBRANCH   7  10
ENDBRANCH   1   7
BRANCH   4  19
ATOM     19  C   UNL     1       3.639   9.620   0.427  0.00  0.00    +0.000 C 
BRANCH  19  20
ATOM     20  N   UNL     1       2.438  10.396   0.174  0.00  0.00    +0.000 N 
ATOM     21  C   UNL     1       2.378  11.736   0.470  0.00  0.00    +0.000 C 
ATOM     22  O   UNL     1       3.325  12.344   0.959  0.00  0.00    +0.000 OA
ATOM     23  H   UNL     1       1.566   9.891   0.052  0.00  0.00    +0.000 HD
BRANCH  21  24
ATOM     24  C   UNL     1       1.132  12.423   0.121  0.00  0.00    +0.000 A 
ATOM     25  C   UNL     1       1.158  13.771  -0.210  0.00  0.00    +0.000 A 
ATOM     26  S   UNL     1      -0.386  14.421  -0.528  0.00  0.00    +0.000 S 
ATOM     27  C   UNL     1      -1.138  12.923  -0.231  0.00  0.00    +0.000 A 
ATOM     28  N   UNL     1      -2.492  12.789  -0.296  0.00  0.00    +0.000 NA
ATOM     29  C   UNL     1      -2.923  11.594  -0.063  0.00  0.00    +0.000 A 
ATOM     30  N   UNL     1      -2.126  10.521   0.226  0.00  0.00    +0.000 N 
ATOM     31  C   UNL     1      -0.758  10.615   0.330  0.00  0.00    +0.000 A 
ATOM     32  O   UNL     1      -0.079   9.636   0.595  0.00  0.00    +0.000 OA
ATOM     33  C   UNL     1      -0.222  11.936   0.073  0.00  0.00    +0.000 A 
ATOM     34  H   UNL     1      -2.519   9.604   0.382  0.00  0.00    +0.000 HD
ENDBRANCH  21  24
ENDBRANCH  19  20
ENDBRANCH   4  19
TORSDOF 7
