REMARK  Name = 
REMARK  8 active torsions:
REMARK  status: ('A' for Active; 'I' for Inactive)
REMARK    1  A    between atoms: C_1  and  O_2
REMARK    2  A    between atoms: O_2  and  C_3
REMARK    3  A    between atoms: C_5  and  C_6
REMARK    4  A    between atoms: C_6  and  N_7
REMARK    5  A    between atoms: C_8  and  C_10
REMARK    6  A    between atoms: C_22  and  C_23
REMARK    7  A    between atoms: C_23  and  N_24
REMARK    8  A    between atoms: C_25  and  C_27
REMARK                            x       y       z     vdW  Elec       q    Type
REMARK                         _______ _______ _______ _____ _____    ______ ____
ROOT
ATOM      1  C   UNL     1       3.206  -0.033  -1.090  0.00  0.00    +0.000 A 
ATOM      2  C   UNL     1       2.809   0.735  -2.200  0.00  0.00    +0.000 A 
ATOM      3  C   UNL     1       3.497   0.658  -3.416  0.00  0.00    +0.000 A 
ATOM      4  C   UNL     1       4.541  -0.249  -3.479  0.00  0.00    +0.000 A 
ATOM      5  N   UNL     1       4.928  -1.036  -2.449  0.00  0.00    +0.000 NA
ATOM      6  C   UNL     1       4.264  -0.936  -1.260  0.00  0.00    +0.000 A 
ENDROOT
BRANCH   1   8
ATOM      7  C   UNL     1       3.102   0.136   1.285  0.00  0.00    +0.000 C 
ATOM      8  O   UNL     1       2.438   0.165   0.026  0.00  0.00    +0.000 OA
ENDBRANCH   1   8
BRANCH   3   9
ATOM      9  C   UNL     1       3.133   1.498  -4.609  0.00  0.00    +0.000 C 
BRANCH   9  10
ATOM     10  N   UNL     1       2.174   0.841  -5.461  0.00  0.00    +0.000 N 
ATOM     11  C   UNL     1       1.841   1.348  -6.691  0.00  0.00    +0.000 C 
ATOM     12  O   UNL     1       2.362   2.366  -7.143  0.00  0.00    +0.000 OA
ATOM     13  H   UNL     1       1.573   0.143  -5.030  0.00  0.00    +0.000 HD
BRANCH  11  14
ATOM     14  C   UNL     1       0.851   0.582  -7.471  0.00  0.00    +0.000 A 
ATOM     15  C   UNL     1       0.781   0.748  -8.848  0.00  0.00    +0.000 A 
ATOM     16  S   UNL     1      -0.371  -0.257  -9.605  0.00  0.00    +0.000 S 
ATOM     17  C   UNL     1      -0.862  -0.910  -8.113  0.00  0.00    +0.000 A 
ATOM     18  N   UNL     1      -1.858  -1.835  -8.049  0.00  0.00    +0.000 NA
ATOM     19  C   UNL     1      -2.144  -2.226  -6.852  0.00  0.00    +0.000 A 
ATOM     20  N   UNL     1      -1.525  -1.785  -5.716  0.00  0.00    +0.000 N 
ATOM     21  C   UNL     1      -0.492  -0.873  -5.734  0.00  0.00    +0.000 A 
ATOM     22  O   UNL     1       0.074  -0.531  -4.701  0.00  0.00    +0.000 OA
ATOM     23  C   UNL     1      -0.140  -0.387  -7.054  0.00  0.00    +0.000 A 
ATOM     24  H   UNL     1      -1.787  -2.138  -4.808  0.00  0.00    +0.000 HD
ENDBRANCH  11  14
ENDBRANCH   9  10
ENDBRANCH   3   9
BRANCH   6  25
ATOM     25  C   UNL     1       4.751  -1.896  -0.198  0.00  0.00    +0.000 C 
BRANCH  25  26
ATOM     26  N   UNL     1       3.747  -2.847   0.233  0.00  0.00    +0.000 N 
ATOM     27  C   UNL     1       3.913  -3.619   1.362  0.00  0.00    +0.000 C 
ATOM     28  O   UNL     1       4.942  -3.630   2.031  0.00  0.00    +0.000 OA
ATOM     29  H   UNL     1       2.792  -2.768  -0.107  0.00  0.00    +0.000 HD
BRANCH  27  30
ATOM     30  C   UNL     1       2.687  -4.494   1.701  0.00  0.00    +0.000 C 
ATOM     31  C   UNL     1       2.760  -5.786   0.882  0.00  0.00    +0.000 C 
ATOM     32  C   UNL     1       1.511  -6.644   1.060  0.00  0.00    +0.000 C 
ATOM     33  C   UNL     1       0.250  -5.821   0.823  0.00  0.00    +0.000 C 
ATOM     34  C   UNL     1       0.256  -4.552   1.670  0.00  0.00    +0.000 C 
ATOM     35  N   UNL     1       1.442  -3.735   1.399  0.00  0.00    +0.000 NA
ATOM     36  H   UNL     1       1.415  -2.913   2.005  0.00  0.00    +0.000 HD
ENDBRANCH  27  30
ENDBRANCH  25  26
ENDBRANCH   6  25
TORSDOF 7
