REMARK  Name = 
REMARK  7 active torsions:
REMARK  status: ('A' for Active; 'I' for Inactive)
REMARK    1  A    between atoms: C_1  and  O_2
REMARK    2  A    between atoms: O_2  and  C_3
REMARK    3  A    between atoms: C_5  and  C_6
REMARK    4  A    between atoms: C_6  and  N_7
REMARK    5  A    between atoms: C_8  and  C_10
REMARK    6  A    between atoms: C_22  and  C_23
REMARK    7  A    between atoms: C_23  and  N_24
REMARK                            x       y       z     vdW  Elec       q    Type
REMARK                         _______ _______ _______ _____ _____    ______ ____
ROOT
ATOM      1  C   UNL     1       2.884  -0.970  -0.677  0.00  0.00    +0.000 A 
ATOM      2  C   UNL     1       2.626  -1.516  -1.937  0.00  0.00    +0.000 A 
ATOM      3  C   UNL     1       3.372  -2.597  -2.411  0.00  0.00    +0.000 A 
ATOM      4  C   UNL     1       4.353  -3.108  -1.573  0.00  0.00    +0.000 A 
ATOM      5  N   UNL     1       4.646  -2.602  -0.354  0.00  0.00    +0.000 NA
ATOM      6  C   UNL     1       3.921  -1.529   0.080  0.00  0.00    +0.000 A 
ENDROOT
BRANCH   1   8
ATOM      7  C   UNL     1       0.902   0.322  -0.702  0.00  0.00    +0.000 C 
ATOM      8  O   UNL     1       2.194   0.085  -0.146  0.00  0.00    +0.000 OA
ENDBRANCH   1   8
BRANCH   3   9
ATOM      9  C   UNL     1       3.102  -3.186  -3.760  0.00  0.00    +0.000 C 
BRANCH   9  10
ATOM     10  N   UNL     1       2.116  -4.234  -3.699  0.00  0.00    +0.000 N 
ATOM     11  C   UNL     1       0.794  -4.036  -4.003  0.00  0.00    +0.000 C 
ATOM     12  O   UNL     1       0.355  -2.934  -4.322  0.00  0.00    +0.000 OA
ATOM     13  H   UNL     1       2.399  -5.104  -3.257  0.00  0.00    +0.000 HD
BRANCH  11  14
ATOM     14  C   UNL     1      -0.067  -5.229  -3.993  0.00  0.00    +0.000 A 
ATOM     15  C   UNL     1      -1.257  -5.219  -4.708  0.00  0.00    +0.000 A 
ATOM     16  S   UNL     1      -2.112  -6.692  -4.636  0.00  0.00    +0.000 S 
ATOM     17  C   UNL     1      -0.946  -7.382  -3.608  0.00  0.00    +0.000 A 
ATOM     18  N   UNL     1      -1.091  -8.651  -3.142  0.00  0.00    +0.000 NA
ATOM     19  C   UNL     1      -0.154  -9.036  -2.342  0.00  0.00    +0.000 A 
ATOM     20  N   UNL     1       0.922  -8.270  -1.974  0.00  0.00    +0.000 N 
ATOM     21  C   UNL     1       1.141  -7.006  -2.467  0.00  0.00    +0.000 A 
ATOM     22  O   UNL     1       2.166  -6.386  -2.200  0.00  0.00    +0.000 OA
ATOM     23  C   UNL     1       0.094  -6.509  -3.341  0.00  0.00    +0.000 A 
ATOM     24  H   UNL     1       1.633  -8.640  -1.361  0.00  0.00    +0.000 HD
ENDBRANCH  11  14
ENDBRANCH   9  10
ENDBRANCH   3   9
BRANCH   6  25
ATOM     25  C   UNL     1       4.288  -0.979   1.453  0.00  0.00    +0.000 C 
BRANCH  25  26
ATOM     26  N   UNL     1       5.354   0.006   1.367  0.00  0.00    +0.000 N 
ATOM     27  C   UNL     1       5.894   0.588   2.494  0.00  0.00    +0.000 A 
ATOM     28  C   UNL     1       6.007  -0.060   3.721  0.00  0.00    +0.000 A 
ATOM     29  C   UNL     1       6.646   0.576   4.786  0.00  0.00    +0.000 A 
ATOM     30  C   UNL     1       7.177   1.842   4.598  0.00  0.00    +0.000 A 
ATOM     31  C   UNL     1       7.028   2.420   3.352  0.00  0.00    +0.000 A 
ATOM     32  N   UNL     1       6.396   1.827   2.313  0.00  0.00    +0.000 NA
ATOM     33  H   UNL     1       5.241   0.717   0.651  0.00  0.00    +0.000 HD
ENDBRANCH  25  26
ENDBRANCH   6  25
TORSDOF 6
