REMARK  Name = 
REMARK  11 active torsions:
REMARK  status: ('A' for Active; 'I' for Inactive)
REMARK    1  A    between atoms: C_1  and  S_2
REMARK    2  A    between atoms: S_2  and  N_5
REMARK    3  A    between atoms: N_5  and  C_6
REMARK    4  A    between atoms: C_6  and  C_7
REMARK    5  A    between atoms: N_10  and  C_11
REMARK    6  A    between atoms: C_11  and  C_12
REMARK    7  A    between atoms: C_12  and  N_13
REMARK    8  A    between atoms: C_12  and  C_14
REMARK    9  A    between atoms: C_17  and  C_18
REMARK   10  A    between atoms: C_18  and  N_19
REMARK   11  A    between atoms: C_20  and  C_22
REMARK                            x       y       z     vdW  Elec       q    Type
REMARK                         _______ _______ _______ _____ _____    ______ ____
ROOT
ATOM      1  C   UNL     1       9.779   5.275  -0.762  0.00  0.00    +0.000 A 
ATOM      2  C   UNL     1      10.519   6.434  -0.537  0.00  0.00    +0.000 A 
ATOM      3  C   UNL     1      10.840   7.250  -1.618  0.00  0.00    +0.000 A 
ATOM      4  C   UNL     1      10.417   6.896  -2.901  0.00  0.00    +0.000 A 
ATOM      5  C   UNL     1       9.714   5.705  -3.036  0.00  0.00    +0.000 A 
ATOM      6  N   UNL     1       9.379   4.899  -2.005  0.00  0.00    +0.000 NA
ENDROOT
BRANCH   1   7
ATOM      7  C   UNL     1       9.362   4.392   0.409  0.00  0.00    +0.000 C 
BRANCH   7   8
ATOM      8  N   UNL     1      10.022   3.073   0.352  0.00  0.00    +0.000 NA
ATOM      9  H   UNL     1       9.640   2.592  -0.465  0.00  0.00    +0.000 HD
ATOM     10  H   UNL     1       9.703   2.530   1.153  0.00  0.00    +0.000 HD
ENDBRANCH   7   8
BRANCH   7  11
ATOM     11  C   UNL     1       7.801   4.303   0.428  0.00  0.00    +0.000 C 
BRANCH  11  15
ATOM     12  C   UNL     1       5.242   3.282   3.757  0.00  0.00    +0.000 C 
ATOM     13  C   UNL     1       6.764   3.324   3.970  0.00  0.00    +0.000 C 
ATOM     14  C   UNL     1       7.495   4.054   2.836  0.00  0.00    +0.000 C 
ATOM     15  N   UNL     1       7.183   3.491   1.513  0.00  0.00    +0.000 NA
ATOM     16  C   UNL     1       5.727   3.427   1.272  0.00  0.00    +0.000 C 
ATOM     17  C   UNL     1       4.996   2.660   2.375  0.00  0.00    +0.000 C 
BRANCH  12  18
ATOM     18  C   UNL     1       4.621   4.685   3.920  0.00  0.00    +0.000 C 
BRANCH  18  19
ATOM     19  N   UNL     1       3.147   4.636   3.722  0.00  0.00    +0.000 NA
ATOM     20  H   UNL     1       2.909   4.231   2.818  0.00  0.00    +0.000 HD
BRANCH  19  22
ATOM     21  C   UNL     1       0.721   5.756   3.442  0.00  0.00    +0.000 C 
ATOM     22  S   UNL     1       2.406   6.162   3.841  0.00  0.00    +0.000 S 
ATOM     23  O   UNL     1       2.948   6.958   2.762  0.00  0.00    +0.000 OA
ATOM     24  O   UNL     1       2.483   6.588   5.219  0.00  0.00    +0.000 OA
ENDBRANCH  19  22
ENDBRANCH  18  19
ENDBRANCH  12  18
ENDBRANCH  11  15
ENDBRANCH   7  11
ENDBRANCH   1   7
BRANCH   4  25
ATOM     25  C   UNL     1      10.748   7.722  -4.106  0.00  0.00    +0.000 C 
BRANCH  25  26
ATOM     26  N   UNL     1      12.000   7.311  -4.684  0.00  0.00    +0.000 N 
ATOM     27  C   UNL     1      12.526   7.956  -5.772  0.00  0.00    +0.000 C 
ATOM     28  O   UNL     1      11.982   8.935  -6.275  0.00  0.00    +0.000 OA
ATOM     29  H   UNL     1      12.348   6.390  -4.435  0.00  0.00    +0.000 HD
BRANCH  27  30
ATOM     30  C   UNL     1      13.812   7.451  -6.266  0.00  0.00    +0.000 A 
ATOM     31  C   UNL     1      14.656   8.296  -6.974  0.00  0.00    +0.000 A 
ATOM     32  S   UNL     1      16.125   7.564  -7.434  0.00  0.00    +0.000 S 
ATOM     33  C   UNL     1      15.665   6.075  -6.751  0.00  0.00    +0.000 A 
ATOM     34  N   UNL     1      16.473   4.991  -6.823  0.00  0.00    +0.000 NA
ATOM     35  C   UNL     1      15.988   3.919  -6.282  0.00  0.00    +0.000 A 
ATOM     36  N   UNL     1      14.764   3.846  -5.668  0.00  0.00    +0.000 N 
ATOM     37  C   UNL     1      13.921   4.923  -5.549  0.00  0.00    +0.000 A 
ATOM     38  O   UNL     1      12.849   4.835  -4.959  0.00  0.00    +0.000 OA
ATOM     39  C   UNL     1      14.415   6.145  -6.155  0.00  0.00    +0.000 A 
ATOM     40  H   UNL     1      14.446   2.980  -5.251  0.00  0.00    +0.000 HD
ENDBRANCH  27  30
ENDBRANCH  25  26
ENDBRANCH   4  25
TORSDOF 10
