REMARK  Name = 
REMARK  10 active torsions:
REMARK  status: ('A' for Active; 'I' for Inactive)
REMARK    1  A    between atoms: C_1  and  O_2
REMARK    2  A    between atoms: O_2  and  C_3
REMARK    3  A    between atoms: C_10  and  C_11
REMARK    4  A    between atoms: N_13  and  C_14
REMARK    5  A    between atoms: C_14  and  C_15
REMARK    6  A    between atoms: C_18  and  C_19
REMARK    7  A    between atoms: C_19  and  N_20
REMARK    8  A    between atoms: N_20  and  C_21
REMARK    9  A    between atoms: N_20  and  C_22
REMARK   10  A    between atoms: C_22  and  C_23
REMARK                            x       y       z     vdW  Elec       q    Type
REMARK                         _______ _______ _______ _____ _____    ______ ____
ROOT
ATOM      1  C   UNL     1       1.638  -1.398  -3.170  0.00  0.00    +0.000 A 
ATOM      2  C   UNL     1       1.733  -2.784  -3.233  0.00  0.00    +0.000 A 
ATOM      3  C   UNL     1       0.602  -3.550  -2.963  0.00  0.00    +0.000 A 
ATOM      4  C   UNL     1      -0.591  -2.922  -2.599  0.00  0.00    +0.000 A 
ATOM      5  C   UNL     1      -0.597  -1.536  -2.580  0.00  0.00    +0.000 A 
ATOM      6  N   UNL     1       0.484  -0.760  -2.844  0.00  0.00    +0.000 NA
ENDROOT
BRANCH   1   7
ATOM      7  C   UNL     1       2.873  -0.554  -3.395  0.00  0.00    +0.000 C 
BRANCH   7  10
ATOM      8  C   UNL     1       4.933  -0.117  -2.107  0.00  0.00    +0.000 C 
ATOM      9  O   UNL     1       5.622  -0.167  -3.124  0.00  0.00    +0.000 OA
ATOM     10  N   UNL     1       3.583  -0.320  -2.154  0.00  0.00    +0.000 N 
ATOM     11  H   UNL     1       3.012  -0.181  -1.330  0.00  0.00    +0.000 HD
BRANCH   8  19
ATOM     12  C   UNL     1       3.662   0.132   1.090  0.00  0.00    +0.000 A 
ATOM     13  N   UNL     1       3.437   0.345   2.403  0.00  0.00    +0.000 NA
ATOM     14  C   UNL     1       4.475   0.661   3.179  0.00  0.00    +0.000 A 
ATOM     15  N   UNL     1       5.742   0.794   2.803  0.00  0.00    +0.000 NA
ATOM     16  C   UNL     1       5.926   0.595   1.486  0.00  0.00    +0.000 A 
ATOM     17  S   UNL     1       7.484   0.712   0.832  0.00  0.00    +0.000 S 
ATOM     18  C   UNL     1       6.910   0.370  -0.729  0.00  0.00    +0.000 A 
ATOM     19  C   UNL     1       5.536   0.163  -0.792  0.00  0.00    +0.000 A 
ATOM     20  C   UNL     1       4.950   0.272   0.543  0.00  0.00    +0.000 A 
BRANCH  12  22
ATOM     21  C   UNL     1       1.381  -0.405   1.032  0.00  0.00    +0.000 C 
ATOM     22  O   UNL     1       2.592  -0.235   0.298  0.00  0.00    +0.000 OA
ENDBRANCH  12  22
ENDBRANCH   8  19
ENDBRANCH   7  10
ENDBRANCH   1   7
BRANCH   4  23
ATOM     23  C   UNL     1      -1.811  -3.715  -2.195  0.00  0.00    +0.000 C 
BRANCH  23  24
ATOM     24  N   UNL     1      -1.569  -4.607  -1.041  0.00  0.00    +0.000 NA
ATOM     25  C   UNL     1      -1.198  -3.840   0.157  0.00  0.00    +0.000 C 
BRANCH  24  26
ATOM     26  C   UNL     1      -2.764  -5.419  -0.740  0.00  0.00    +0.000 C 
BRANCH  26  27
ATOM     27  C   UNL     1      -3.183  -6.363  -1.852  0.00  0.00    +0.000 A 
ATOM     28  C   UNL     1      -2.315  -7.365  -2.319  0.00  0.00    +0.000 A 
ATOM     29  C   UNL     1      -2.743  -8.273  -3.291  0.00  0.00    +0.000 A 
ATOM     30  C   UNL     1      -4.028  -8.169  -3.809  0.00  0.00    +0.000 A 
ATOM     31  F   UNL     1      -4.447  -9.055  -4.724  0.00  0.00    +0.000 F 
ATOM     32  C   UNL     1      -4.890  -7.166  -3.387  0.00  0.00    +0.000 A 
ATOM     33  C   UNL     1      -4.470  -6.266  -2.407  0.00  0.00    +0.000 A 
ENDBRANCH  26  27
ENDBRANCH  24  26
ENDBRANCH  23  24
ENDBRANCH   4  23
TORSDOF 8
