REMARK  Name = 
REMARK  10 active torsions:
REMARK  status: ('A' for Active; 'I' for Inactive)
REMARK    1  A    between atoms: C_2  and  C_3
REMARK    2  A    between atoms: C_3  and  N_4
REMARK    3  A    between atoms: C_3  and  C_32
REMARK    4  A    between atoms: N_4  and  C_5
REMARK    5  A    between atoms: C_5  and  C_6
REMARK    6  A    between atoms: C_9  and  C_10
REMARK    7  A    between atoms: C_10  and  N_11
REMARK    8  A    between atoms: C_12  and  C_14
REMARK    9  A    between atoms: N_20  and  C_21
REMARK   10  A    between atoms: C_21  and  C_22
REMARK                            x       y       z     vdW  Elec       q    Type
REMARK                         _______ _______ _______ _____ _____    ______ ____
ROOT
ATOM      1  C   UNL     1      -4.070  -0.227   1.428  0.00  0.00    +0.000 C 
ENDROOT
BRANCH   1   5
ATOM      2  C   UNL     1       0.261  -0.397   1.427  0.00  0.00    +0.000 A 
ATOM      3  C   UNL     1      -0.498  -1.451   1.954  0.00  0.00    +0.000 A 
ATOM      4  C   UNL     1      -1.897  -1.394   1.958  0.00  0.00    +0.000 A 
ATOM      5  C   UNL     1      -2.566  -0.290   1.419  0.00  0.00    +0.000 A 
ATOM      6  C   UNL     1      -1.807   0.761   0.901  0.00  0.00    +0.000 A 
ATOM      7  F   UNL     1      -2.415   1.846   0.402  0.00  0.00    +0.000 F 
ATOM      8  C   UNL     1      -0.413   0.712   0.895  0.00  0.00    +0.000 A 
BRANCH   2   9
ATOM      9  C   UNL     1       1.772  -0.470   1.408  0.00  0.00    +0.000 C 
BRANCH   9  10
ATOM     10  N   UNL     1       2.354   0.681   2.098  0.00  0.00    +0.000 NA
ATOM     11  H   UNL     1       2.002   0.694   3.057  0.00  0.00    +0.000 HD
BRANCH  10  12
ATOM     12  C   UNL     1       3.840   0.612   2.183  0.00  0.00    +0.000 C 
BRANCH  12  13
ATOM     13  C   UNL     1       4.378   1.819   2.954  0.00  0.00    +0.000 A 
ATOM     14  C   UNL     1       4.099   3.122   2.530  0.00  0.00    +0.000 A 
ATOM     15  C   UNL     1       4.560   4.195   3.287  0.00  0.00    +0.000 A 
ATOM     16  C   UNL     1       5.297   3.948   4.438  0.00  0.00    +0.000 A 
ATOM     17  C   UNL     1       5.545   2.631   4.786  0.00  0.00    +0.000 A 
ATOM     18  N   UNL     1       5.095   1.567   4.082  0.00  0.00    +0.000 NA
ENDBRANCH  12  13
BRANCH  12  20
ATOM     19  N   UNL     1       5.034   0.391  -0.170  0.00  0.00    +0.000 NA
ATOM     20  C   UNL     1       4.524   0.508   0.868  0.00  0.00    +0.000 C 
ENDBRANCH  12  20
ENDBRANCH  10  12
ENDBRANCH   9  10
ENDBRANCH   2   9
ENDBRANCH   1   5
BRANCH   1  21
ATOM     21  N   UNL     1      -4.563   0.344   2.658  0.00  0.00    +0.000 N 
ATOM     22  C   UNL     1      -5.913   0.534   2.866  0.00  0.00    +0.000 C 
ATOM     23  O   UNL     1      -6.763   0.237   2.037  0.00  0.00    +0.000 OA
ATOM     24  H   UNL     1      -3.911   0.509   3.410  0.00  0.00    +0.000 HD
BRANCH  22  25
ATOM     25  C   UNL     1      -6.238   1.158   4.151  0.00  0.00    +0.000 A 
ATOM     26  C   UNL     1      -5.436   2.124   4.743  0.00  0.00    +0.000 A 
ATOM     27  S   UNL     1      -6.086   2.745   6.192  0.00  0.00    +0.000 S 
ATOM     28  C   UNL     1      -7.457   1.742   6.073  0.00  0.00    +0.000 A 
ATOM     29  N   UNL     1      -8.436   1.785   7.012  0.00  0.00    +0.000 NA
ATOM     30  C   UNL     1      -9.429   0.990   6.784  0.00  0.00    +0.000 A 
ATOM     31  N   UNL     1      -9.544   0.140   5.702  0.00  0.00    +0.000 N 
ATOM     32  C   UNL     1      -8.505  -0.011   4.783  0.00  0.00    +0.000 A 
ATOM     33  O   UNL     1      -8.510  -0.905   3.941  0.00  0.00    +0.000 OA
ATOM     34  C   UNL     1      -7.411   0.930   4.958  0.00  0.00    +0.000 A 
BRANCH  31  35
ATOM     35  C   UNL     1     -10.699  -0.749   5.576  0.00  0.00    +0.000 C 
BRANCH  35  36
ATOM     36  C   UNL     1     -10.526  -2.131   6.208  0.00  0.00    +0.000 C 
ATOM     37  F   UNL     1      -9.342  -2.270   6.842  0.00  0.00    +0.000 F 
ATOM     38  F   UNL     1     -11.497  -2.338   7.133  0.00  0.00    +0.000 F 
ATOM     39  F   UNL     1     -10.631  -3.118   5.293  0.00  0.00    +0.000 F 
ENDBRANCH  35  36
ENDBRANCH  31  35
ENDBRANCH  22  25
ENDBRANCH   1  21
TORSDOF 10
