REMARK  Name = 
REMARK  6 active torsions:
REMARK  status: ('A' for Active; 'I' for Inactive)
REMARK    1  A    between atoms: N_1  and  C_2
REMARK    2  A    between atoms: C_2  and  C_3
REMARK    3  A    between atoms: C_7  and  C_8
REMARK    4  A    between atoms: C_9  and  C_10
REMARK    5  A    between atoms: C_14  and  C_15
REMARK    6  A    between atoms: C_15  and  N_16
REMARK                            x       y       z     vdW  Elec       q    Type
REMARK                         _______ _______ _______ _____ _____    ______ ____
ROOT
ATOM      1  C   UNL     1       3.832  -3.125  -3.639  0.00  0.00    +0.000 C 
ATOM      2  C   UNL     1       4.552  -3.460  -4.721  0.00  0.00    +0.000 C 
ENDROOT
BRANCH   1   7
ATOM      3  C   UNL     1       2.210  -0.166  -1.937  0.00  0.00    +0.000 A 
ATOM      4  C   UNL     1       3.174   0.830  -2.136  0.00  0.00    +0.000 A 
ATOM      5  C   UNL     1       4.337   0.552  -2.852  0.00  0.00    +0.000 A 
ATOM      6  C   UNL     1       4.555  -0.727  -3.369  0.00  0.00    +0.000 A 
ATOM      7  C   UNL     1       3.606  -1.741  -3.188  0.00  0.00    +0.000 A 
ATOM      8  C   UNL     1       2.437  -1.446  -2.474  0.00  0.00    +0.000 A 
BRANCH   3   9
ATOM      9  C   UNL     1       0.951   0.124  -1.161  0.00  0.00    +0.000 C 
BRANCH   9  10
ATOM     10  N   UNL     1       0.824  -0.749   0.000  0.00  0.00    +0.000 NA
ATOM     11  H   UNL     1       0.019  -0.458   0.551  0.00  0.00    +0.000 HD
ATOM     12  H   UNL     1       1.643  -0.623   0.594  0.00  0.00    +0.000 HD
ENDBRANCH   9  10
ENDBRANCH   3   9
ENDBRANCH   1   7
BRANCH   2  13
ATOM     13  C   UNL     1       4.815  -4.837  -5.171  0.00  0.00    +0.000 A 
ATOM     14  C   UNL     1       3.943  -5.903  -4.931  0.00  0.00    +0.000 A 
ATOM     15  C   UNL     1       4.223  -7.176  -5.434  0.00  0.00    +0.000 A 
ATOM     16  C   UNL     1       5.369  -7.394  -6.203  0.00  0.00    +0.000 A 
ATOM     17  C   UNL     1       6.249  -6.339  -6.470  0.00  0.00    +0.000 A 
ATOM     18  C   UNL     1       5.965  -5.071  -5.939  0.00  0.00    +0.000 A 
BRANCH  17  19
ATOM     19  C   UNL     1       7.484  -6.546  -7.309  0.00  0.00    +0.000 C 
BRANCH  19  20
ATOM     20  N   UNL     1       7.490  -5.667  -8.475  0.00  0.00    +0.000 NA
ATOM     21  H   UNL     1       6.698  -5.906  -9.067  0.00  0.00    +0.000 HD
ATOM     22  H   UNL     1       8.330  -5.841  -9.023  0.00  0.00    +0.000 HD
ENDBRANCH  19  20
ENDBRANCH  17  19
ENDBRANCH   2  13
TORSDOF 6
