REMARK  Name = 
REMARK  15 active torsions:
REMARK  status: ('A' for Active; 'I' for Inactive)
REMARK    1  A    between atoms: C_1  and  N_2
REMARK    2  A    between atoms: N_2  and  C_3
REMARK    3  A    between atoms: N_2  and  C_4
REMARK    4  A    between atoms: C_4  and  C_5
REMARK    5  A    between atoms: C_5  and  C_6
REMARK    6  A    between atoms: C_6  and  C_7
REMARK    7  A    between atoms: C_7  and  N_8
REMARK    8  A    between atoms: C_9  and  C_11
REMARK    9  A    between atoms: C_16  and  N_17
REMARK   10  A    between atoms: N_17  and  C_18
REMARK   11  A    between atoms: C_18  and  C_19
REMARK   12  A    between atoms: C_19  and  C_20
REMARK   13  A    between atoms: C_19  and  C_21
REMARK   14  A    between atoms: C_19  and  C_22
REMARK   15  A    between atoms: C_26  and  C_27
REMARK                            x       y       z     vdW  Elec       q    Type
REMARK                         _______ _______ _______ _____ _____    ______ ____
ROOT
ATOM      1  C   UNL     1       8.679   4.079  -4.292  0.00  0.00    +0.000 A 
ATOM      2  C   UNL     1       8.153   5.372  -4.429  0.00  0.00    +0.000 A 
ATOM      3  C   UNL     1       8.577   6.185  -5.470  0.00  0.00    +0.000 A 
ATOM      4  C   UNL     1       9.516   5.672  -6.339  0.00  0.00    +0.000 A 
ATOM      5  N   UNL     1      10.047   4.432  -6.232  0.00  0.00    +0.000 NA
ATOM      6  C   UNL     1       9.632   3.630  -5.223  0.00  0.00    +0.000 A 
ENDROOT
BRANCH   1   8
ATOM      7  N   UNL     1       9.080   2.394  -2.572  0.00  0.00    +0.000 N 
ATOM      8  C   UNL     1       8.201   3.296  -3.123  0.00  0.00    +0.000 C 
ATOM      9  O   UNL     1       7.080   3.503  -2.668  0.00  0.00    +0.000 OA
ATOM     10  H   UNL     1      10.030   2.369  -2.937  0.00  0.00    +0.000 HD
BRANCH   7  11
ATOM     11  C   UNL     1       8.755   1.636  -1.385  0.00  0.00    +0.000 C 
BRANCH  11  12
ATOM     12  C   UNL     1       9.455   0.285  -1.397  0.00  0.00    +0.000 C 
BRANCH  12  13
ATOM     13  C   UNL     1       9.036  -0.556  -0.190  0.00  0.00    +0.000 C 
BRANCH  13  14
ATOM     14  C   UNL     1       9.765  -1.905  -0.125  0.00  0.00    +0.000 C 
BRANCH  14  16
ATOM     15  C   UNL     1      11.702  -1.104   1.119  0.00  0.00    +0.000 C 
ATOM     16  N   UNL     1      11.233  -1.793  -0.084  0.00  0.00    +0.000 NA
ATOM     17  C   UNL     1      11.840  -3.124  -0.163  0.00  0.00    +0.000 C 
ENDBRANCH  14  16
ENDBRANCH  13  14
ENDBRANCH  12  13
ENDBRANCH  11  12
ENDBRANCH   7  11
ENDBRANCH   1   8
BRANCH   6  18
ATOM     18  N   UNL     1      10.181   2.342  -5.141  0.00  0.00    +0.000 N 
ATOM     19  H   UNL     1       9.457   1.639  -5.260  0.00  0.00    +0.000 HD
BRANCH  18  20
ATOM     20  C   UNL     1      11.450   2.089  -5.842  0.00  0.00    +0.000 C 
BRANCH  20  21
ATOM     21  C   UNL     1      11.397   1.167  -7.092  0.00  0.00    +0.000 C 
ATOM     22  C   UNL     1      10.859  -0.230  -6.714  0.00  0.00    +0.000 C 
ATOM     23  C   UNL     1      10.518   1.769  -8.199  0.00  0.00    +0.000 C 
BRANCH  21  24
ATOM     24  C   UNL     1      12.824   1.011  -7.649  0.00  0.00    +0.000 A 
ATOM     25  N   UNL     1      13.003   0.204  -8.717  0.00  0.00    +0.000 NA
ATOM     26  C   UNL     1      14.246   0.117  -9.233  0.00  0.00    +0.000 A 
ATOM     27  C   UNL     1      15.321   0.795  -8.730  0.00  0.00    +0.000 A 
ATOM     28  C   UNL     1      15.050   1.584  -7.641  0.00  0.00    +0.000 A 
ATOM     29  N   UNL     1      13.823   1.707  -7.076  0.00  0.00    +0.000 NA
BRANCH  28  30
ATOM     30  C   UNL     1      16.151   2.382  -7.017  0.00  0.00    +0.000 C 
ATOM     31  N   UNL     1      15.802   3.143  -5.938  0.00  0.00    +0.000 N 
ATOM     32  O   UNL     1      17.295   2.359  -7.448  0.00  0.00    +0.000 OA
ATOM     33  H   UNL     1      14.838   3.159  -5.620  0.00  0.00    +0.000 HD
ATOM     34  H   UNL     1      16.497   3.719  -5.489  0.00  0.00    +0.000 HD
ENDBRANCH  28  30
ENDBRANCH  21  24
ENDBRANCH  20  21
ENDBRANCH  18  20
ENDBRANCH   6  18
TORSDOF 11
