REMARK  Name = 
REMARK  7 active torsions:
REMARK  status: ('A' for Active; 'I' for Inactive)
REMARK    1  A    between atoms: C_2  and  C_4
REMARK    2  A    between atoms: C_7  and  O_8
REMARK    3  A    between atoms: O_8  and  C_9
REMARK    4  A    between atoms: C_9  and  C_10
REMARK    5  A    between atoms: C_10  and  C_13
REMARK    6  A    between atoms: C_17  and  C_18
REMARK    7  A    between atoms: C_18  and  C_19
REMARK                            x       y       z     vdW  Elec       q    Type
REMARK                         _______ _______ _______ _____ _____    ______ ____
ROOT
ATOM      1  C   UNL     1       6.120   2.494   6.362  0.00  0.00    +0.000 C 
ATOM      2  F   UNL     1       7.366   2.069   5.993  0.00  0.00    +0.000 F 
ATOM      3  F   UNL     1       6.131   3.849   6.177  0.00  0.00    +0.000 F 
ENDROOT
BRANCH   1   4
ATOM      4  C   UNL     1       5.820   2.112   7.806  0.00  0.00    +0.000 A 
ATOM      5  C   UNL     1       5.800   0.764   8.198  0.00  0.00    +0.000 A 
ATOM      6  C   UNL     1       5.559   0.413   9.526  0.00  0.00    +0.000 A 
ATOM      7  C   UNL     1       5.374   1.405  10.491  0.00  0.00    +0.000 A 
ATOM      8  C   UNL     1       5.420   2.760  10.137  0.00  0.00    +0.000 A 
ATOM      9  C   UNL     1       5.613   3.100   8.786  0.00  0.00    +0.000 A 
BRANCH   8  10
ATOM     10  C   UNL     1       5.374   3.837  11.196  0.00  0.00    +0.000 C 
BRANCH  10  11
ATOM     11  C   UNL     1       3.960   4.339  11.473  0.00  0.00    +0.000 C 
ATOM     12  C   UNL     1       3.911   5.450  12.550  0.00  0.00    +0.000 C 
ATOM     13  C   UNL     1       2.739   4.727  13.237  0.00  0.00    +0.000 C 
ATOM     14  F   UNL     1       2.874   4.554  14.572  0.00  0.00    +0.000 F 
ATOM     15  F   UNL     1       1.523   5.286  13.042  0.00  0.00    +0.000 F 
ATOM     16  C   UNL     1       3.044   3.484  12.378  0.00  0.00    +0.000 C 
ENDBRANCH  10  11
ENDBRANCH   8  10
ENDBRANCH   1   4
BRANCH   1  17
ATOM     17  C   UNL     1       5.091   1.882   5.402  0.00  0.00    +0.000 C 
BRANCH  17  18
ATOM     18  O   UNL     1       5.348   2.246   4.033  0.00  0.00    +0.000 OA
BRANCH  18  22
ATOM     19  C   UNL     1       2.639   0.502   1.466  0.00  0.00    +0.000 A 
ATOM     20  C   UNL     1       3.656   1.311   0.947  0.00  0.00    +0.000 A 
ATOM     21  C   UNL     1       4.571   1.901   1.822  0.00  0.00    +0.000 A 
ATOM     22  C   UNL     1       4.432   1.659   3.182  0.00  0.00    +0.000 A 
ATOM     23  N   UNL     1       3.456   0.886   3.704  0.00  0.00    +0.000 NA
ATOM     24  C   UNL     1       2.575   0.335   2.838  0.00  0.00    +0.000 A 
BRANCH  19  26
ATOM     25  N   UNL     1       1.976  -0.494  -0.645  0.00  0.00    +0.000 N 
ATOM     26  C   UNL     1       1.623  -0.171   0.634  0.00  0.00    +0.000 C 
ATOM     27  O   UNL     1       0.525  -0.472   1.086  0.00  0.00    +0.000 OA
ATOM     28  H   UNL     1       1.313  -1.066  -1.156  0.00  0.00    +0.000 HD
ATOM     29  H   UNL     1       2.936  -0.508  -0.955  0.00  0.00    +0.000 HD
ENDBRANCH  19  26
ENDBRANCH  18  22
ENDBRANCH  17  18
ENDBRANCH   1  17
TORSDOF 7
