REMARK  Name = 
REMARK  7 active torsions:
REMARK  status: ('A' for Active; 'I' for Inactive)
REMARK    1  A    between atoms: C_1  and  C_2
REMARK    2  A    between atoms: C_2  and  C_3
REMARK    3  A    between atoms: C_2  and  N_4
REMARK    4  A    between atoms: C_2  and  C_5
REMARK    5  A    between atoms: C_5  and  C_6
REMARK    6  A    between atoms: C_9  and  C_10
REMARK    7  A    between atoms: C_10  and  N_11
REMARK                            x       y       z     vdW  Elec       q    Type
REMARK                         _______ _______ _______ _____ _____    ______ ____
ROOT
ATOM      1  C   UNL     1       4.622  -0.878   1.227  0.00  0.00    +0.000 A 
ATOM      2  C   UNL     1       5.323   0.275   1.584  0.00  0.00    +0.000 A 
ATOM      3  C   UNL     1       6.717   0.264   1.590  0.00  0.00    +0.000 A 
ATOM      4  C   UNL     1       7.385  -0.907   1.234  0.00  0.00    +0.000 A 
ATOM      5  N   UNL     1       6.719  -2.044   0.904  0.00  0.00    +0.000 NA
ATOM      6  C   UNL     1       5.370  -2.006   0.914  0.00  0.00    +0.000 A 
ENDROOT
BRANCH   1   7
ATOM      7  C   UNL     1       3.115  -0.880   1.129  0.00  0.00    +0.000 C 
BRANCH   7   9
ATOM      8  C   UNL     1       1.006  -0.488  -0.191  0.00  0.00    +0.000 C 
ATOM      9  C   UNL     1       2.542  -0.475  -0.262  0.00  0.00    +0.000 C 
ATOM     10  C   UNL     1       2.996  -1.440  -1.370  0.00  0.00    +0.000 C 
BRANCH   9  11
ATOM     11  N   UNL     1       2.950   0.892  -0.623  0.00  0.00    +0.000 NA
ATOM     12  H   UNL     1       2.531   1.156  -1.516  0.00  0.00    +0.000 HD
ATOM     13  H   UNL     1       3.959   0.916  -0.778  0.00  0.00    +0.000 HD
ENDBRANCH   9  11
ENDBRANCH   7   9
ENDBRANCH   1   7
BRANCH   4  14
ATOM     14  C   UNL     1       8.886  -0.992   1.263  0.00  0.00    +0.000 C 
BRANCH  14  15
ATOM     15  N   UNL     1       9.525  -0.073   0.340  0.00  0.00    +0.000 N 
ATOM     16  N   UNL     1      10.330   0.900   0.825  0.00  0.00    +0.000 NA
ATOM     17  N   UNL     1      10.970   1.441  -0.202  0.00  0.00    +0.000 NA
ATOM     18  C   UNL     1      10.555   0.810  -1.344  0.00  0.00    +0.000 A 
ATOM     19  C   UNL     1      10.948   0.984  -2.678  0.00  0.00    +0.000 A 
ATOM     20  C   UNL     1      10.343   0.190  -3.662  0.00  0.00    +0.000 A 
ATOM     21  C   UNL     1       9.365  -0.749  -3.321  0.00  0.00    +0.000 A 
ATOM     22  C   UNL     1       8.970  -0.945  -1.992  0.00  0.00    +0.000 A 
ATOM     23  C   UNL     1       9.598  -0.149  -1.027  0.00  0.00    +0.000 A 
ENDBRANCH  14  15
ENDBRANCH   4  14
TORSDOF 5
