REMARK  Name = 
REMARK  5 active torsions:
REMARK  status: ('A' for Active; 'I' for Inactive)
REMARK    1  A    between atoms: C_2  and  C_5
REMARK    2  A    between atoms: C_9  and  N_10
REMARK    3  A    between atoms: N_10  and  C_11
REMARK    4  A    between atoms: C_11  and  C_12
REMARK    5  A    between atoms: C_14  and  C_15
REMARK                            x       y       z     vdW  Elec       q    Type
REMARK                         _______ _______ _______ _____ _____    ______ ____
ROOT
ATOM      1  C   UNL     1       1.681   5.224  -0.276  0.00  0.00    +0.000 C 
ENDROOT
BRANCH   1   2
ATOM      2  C   UNL     1       1.400   6.705  -0.423  0.00  0.00    +0.000 A 
ATOM      3  C   UNL     1       0.250   7.138  -1.089  0.00  0.00    +0.000 A 
ATOM      4  C   UNL     1      -0.012   8.509  -1.229  0.00  0.00    +0.000 A 
ATOM      5  C   UNL     1       0.926   9.388  -0.671  0.00  0.00    +0.000 A 
ATOM      6  C   UNL     1       2.038   8.880  -0.017  0.00  0.00    +0.000 A 
ATOM      7  N   UNL     1       2.290   7.565   0.126  0.00  0.00    +0.000 NA
BRANCH   4   8
ATOM      8  C   UNL     1      -1.221   9.002  -1.931  0.00  0.00    +0.000 A 
ATOM      9  C   UNL     1      -2.434   8.298  -1.888  0.00  0.00    +0.000 A 
ATOM     10  C   UNL     1      -3.542   8.798  -2.559  0.00  0.00    +0.000 A 
ATOM     11  N   UNL     1      -3.537   9.946  -3.263  0.00  0.00    +0.000 NA
ATOM     12  C   UNL     1      -2.372  10.620  -3.300  0.00  0.00    +0.000 A 
ATOM     13  C   UNL     1      -1.210  10.195  -2.670  0.00  0.00    +0.000 A 
ENDBRANCH   4   8
ENDBRANCH   1   2
BRANCH   1  14
ATOM     14  N   UNL     1       0.988   4.679   0.890  0.00  0.00    +0.000 N 
ATOM     15  H   UNL     1       1.094   5.280   1.706  0.00  0.00    +0.000 HD
BRANCH  14  20
ATOM     16  C   UNL     1       1.636   1.007   0.641  0.00  0.00    +0.000 A 
ATOM     17  C   UNL     1       1.091   0.628   1.854  0.00  0.00    +0.000 A 
ATOM     18  N   UNL     1       0.563   1.501   2.738  0.00  0.00    +0.000 NA
ATOM     19  C   UNL     1       0.578   2.812   2.385  0.00  0.00    +0.000 A 
ATOM     20  C   UNL     1       1.121   3.324   1.203  0.00  0.00    +0.000 A 
ATOM     21  C   UNL     1       1.642   2.373   0.323  0.00  0.00    +0.000 A 
BRANCH  16  23
ATOM     22  F   UNL     1       2.045  -1.290   0.100  0.00  0.00    +0.000 F 
ATOM     23  C   UNL     1       2.186  -0.002  -0.315  0.00  0.00    +0.000 C 
ATOM     24  F   UNL     1       3.516   0.174  -0.549  0.00  0.00    +0.000 F 
ATOM     25  F   UNL     1       1.586   0.063  -1.537  0.00  0.00    +0.000 F 
ENDBRANCH  16  23
ENDBRANCH  14  20
ENDBRANCH   1  14
TORSDOF 5
