REMARK  Name = 
REMARK  9 active torsions:
REMARK  status: ('A' for Active; 'I' for Inactive)
REMARK    1  A    between atoms: C_1  and  C_2
REMARK    2  A    between atoms: C_2  and  N_3
REMARK    3  A    between atoms: C_2  and  C_4
REMARK    4  A    between atoms: C_7  and  C_8
REMARK    5  A    between atoms: C_8  and  N_9
REMARK    6  A    between atoms: C_11  and  C_12
REMARK    7  A    between atoms: C_12  and  C_13
REMARK    8  A    between atoms: C_12  and  C_14
REMARK    9  A    between atoms: C_12  and  C_15
REMARK                            x       y       z     vdW  Elec       q    Type
REMARK                         _______ _______ _______ _____ _____    ______ ____
ROOT
ATOM      1  N   UNL     1       3.293   6.299   0.936  0.00  0.00    +0.000 N 
ATOM      2  C   UNL     1       3.636   7.304   0.069  0.00  0.00    +0.000 A 
ATOM      3  C   UNL     1       2.511   8.046  -0.248  0.00  0.00    +0.000 A 
ATOM      4  C   UNL     1       1.424   7.435   0.478  0.00  0.00    +0.000 A 
ATOM      5  C   UNL     1       0.034   7.684   0.567  0.00  0.00    +0.000 A 
ATOM      6  C   UNL     1      -0.783   6.866   1.353  0.00  0.00    +0.000 A 
ATOM      7  C   UNL     1      -0.235   5.819   2.082  0.00  0.00    +0.000 A 
ATOM      8  C   UNL     1       1.136   5.555   2.033  0.00  0.00    +0.000 A 
ATOM      9  C   UNL     1       1.943   6.364   1.214  0.00  0.00    +0.000 A 
ENDROOT
BRANCH   3  10
ATOM     10  C   UNL     1       2.440   9.242  -1.202  0.00  0.00    +0.000 C 
ATOM     11  C   UNL     1       3.821   9.557  -1.823  0.00  0.00    +0.000 C 
ATOM     12  C   UNL     1       1.467   8.954  -2.365  0.00  0.00    +0.000 C 
ATOM     13  C   UNL     1       1.977  10.511  -0.459  0.00  0.00    +0.000 C 
ENDBRANCH   3  10
BRANCH   1  14
ATOM     14  C   UNL     1       4.185   5.213   1.322  0.00  0.00    +0.000 C 
BRANCH  14  18
ATOM     15  C   UNL     1       6.512   5.799   4.860  0.00  0.00    +0.000 A 
ATOM     16  C   UNL     1       7.013   6.233   3.628  0.00  0.00    +0.000 A 
ATOM     17  C   UNL     1       6.243   6.100   2.475  0.00  0.00    +0.000 A 
ATOM     18  C   UNL     1       4.984   5.508   2.564  0.00  0.00    +0.000 A 
ATOM     19  N   UNL     1       4.472   5.091   3.750  0.00  0.00    +0.000 NA
ATOM     20  C   UNL     1       5.231   5.258   4.860  0.00  0.00    +0.000 A 
BRANCH  15  22
ATOM     21  C   UNL     1       7.588   7.365   6.500  0.00  0.00    +0.000 C 
ATOM     22  C   UNL     1       7.300   5.906   6.145  0.00  0.00    +0.000 C 
BRANCH  22  23
ATOM     23  N   UNL     1       8.556   5.155   6.076  0.00  0.00    +0.000 NA
ATOM     24  H   UNL     1       9.178   5.577   5.390  0.00  0.00    +0.000 HD
ATOM     25  H   UNL     1       8.363   4.209   5.748  0.00  0.00    +0.000 HD
ENDBRANCH  22  23
ENDBRANCH  15  22
ENDBRANCH  14  18
ENDBRANCH   1  14
TORSDOF 5
