REMARK  Name = 
REMARK  6 active torsions:
REMARK  status: ('A' for Active; 'I' for Inactive)
REMARK    1  A    between atoms: C_1  and  C_2
REMARK    2  A    between atoms: C_5  and  C_6
REMARK    3  A    between atoms: C_10  and  C_11
REMARK    4  A    between atoms: C_11  and  N_12
REMARK    5  A    between atoms: N_12  and  C_13
REMARK    6  A    between atoms: C_16  and  C_17
REMARK                            x       y       z     vdW  Elec       q    Type
REMARK                         _______ _______ _______ _____ _____    ______ ____
ROOT
ATOM      1  C   UNL     1      -6.022  -0.782   2.094  0.00  0.00    +0.000 C 
ATOM      2  C   UNL     1      -7.056  -1.893   2.017  0.00  0.00    +0.000 C 
ATOM      3  C   UNL     1      -7.506  -0.505   2.320  0.00  0.00    +0.000 C 
ENDROOT
BRANCH   1   8
ATOM      4  C   UNL     1      -5.279   1.384  -0.810  0.00  0.00    +0.000 A 
ATOM      5  N   UNL     1      -4.506   0.655  -1.634  0.00  0.00    +0.000 NA
ATOM      6  C   UNL     1      -4.171  -0.571  -1.202  0.00  0.00    +0.000 A 
ATOM      7  C   UNL     1      -4.594  -1.092  -0.002  0.00  0.00    +0.000 A 
ATOM      8  C   UNL     1      -5.412  -0.291   0.777  0.00  0.00    +0.000 A 
ATOM      9  N   UNL     1      -5.727   0.960   0.382  0.00  0.00    +0.000 NA
BRANCH   4  14
ATOM     10  C   UNL     1      -7.176   6.573  -2.349  0.00  0.00    +0.000 C 
ATOM     11  C   UNL     1      -6.635   5.225  -1.987  0.00  0.00    +0.000 A 
ATOM     12  C   UNL     1      -5.871   4.492  -2.885  0.00  0.00    +0.000 A 
ATOM     13  C   UNL     1      -5.408   3.232  -2.509  0.00  0.00    +0.000 A 
ATOM     14  C   UNL     1      -5.710   2.713  -1.244  0.00  0.00    +0.000 A 
ATOM     15  C   UNL     1      -6.475   3.536  -0.418  0.00  0.00    +0.000 A 
ATOM     16  N   UNL     1      -6.938   4.766  -0.752  0.00  0.00    +0.000 NA
ENDBRANCH   4  14
ENDBRANCH   1   8
BRANCH   1  17
ATOM     17  N   UNL     1      -5.167  -0.556   3.286  0.00  0.00    +0.000 N 
ATOM     18  H   UNL     1      -4.839   0.403   3.385  0.00  0.00    +0.000 HD
BRANCH  17  19
ATOM     19  C   UNL     1      -4.216  -1.494   3.727  0.00  0.00    +0.000 A 
ATOM     20  C   UNL     1      -3.357  -1.173   4.785  0.00  0.00    +0.000 A 
ATOM     21  C   UNL     1      -2.453  -2.122   5.271  0.00  0.00    +0.000 A 
ATOM     22  C   UNL     1      -2.447  -3.377   4.683  0.00  0.00    +0.000 A 
ATOM     23  N   UNL     1      -3.284  -3.750   3.680  0.00  0.00    +0.000 NA
ATOM     24  C   UNL     1      -4.150  -2.804   3.254  0.00  0.00    +0.000 A 
BRANCH  22  25
ATOM     25  C   UNL     1      -1.481  -4.428   5.130  0.00  0.00    +0.000 C 
ATOM     26  N   UNL     1      -1.595  -5.622   4.463  0.00  0.00    +0.000 N 
ATOM     27  O   UNL     1      -0.656  -4.246   6.013  0.00  0.00    +0.000 OA
ATOM     28  H   UNL     1      -2.300  -5.722   3.740  0.00  0.00    +0.000 HD
ATOM     29  H   UNL     1      -0.980  -6.387   4.695  0.00  0.00    +0.000 HD
ENDBRANCH  22  25
ENDBRANCH  17  19
ENDBRANCH   1  17
TORSDOF 5
