REMARK  Name = 
REMARK  5 active torsions:
REMARK  status: ('A' for Active; 'I' for Inactive)
REMARK    1  A    between atoms: C_2  and  C_4
REMARK    2  A    between atoms: C_8  and  N_9
REMARK    3  A    between atoms: N_9  and  C_10
REMARK    4  A    between atoms: C_10  and  C_11
REMARK    5  A    between atoms: C_15  and  C_16
REMARK                            x       y       z     vdW  Elec       q    Type
REMARK                         _______ _______ _______ _____ _____    ______ ____
ROOT
ATOM      1  C   UNL     1       3.569  -5.631  -1.617  0.00  0.00    +0.000 C 
ATOM      2  C   UNL     1       3.672  -6.836  -0.678  0.00  0.00    +0.000 C 
ATOM      3  C   UNL     1       4.913  -6.230  -1.233  0.00  0.00    +0.000 C 
ENDROOT
BRANCH   1   4
ATOM      4  C   UNL     1       3.182  -5.863  -3.075  0.00  0.00    +0.000 A 
ATOM      5  C   UNL     1       3.871  -5.216  -4.112  0.00  0.00    +0.000 A 
ATOM      6  C   UNL     1       3.693  -5.593  -5.442  0.00  0.00    +0.000 A 
ATOM      7  C   UNL     1       2.810  -6.625  -5.760  0.00  0.00    +0.000 A 
ATOM      8  C   UNL     1       2.053  -7.267  -4.767  0.00  0.00    +0.000 A 
ATOM      9  C   UNL     1       2.229  -6.835  -3.438  0.00  0.00    +0.000 A 
BRANCH   8  10
ATOM     10  C   UNL     1       1.179  -8.414  -5.079  0.00  0.00    +0.000 A 
ATOM     11  C   UNL     1      -0.061  -8.609  -4.455  0.00  0.00    +0.000 A 
ATOM     12  C   UNL     1      -0.826  -9.741  -4.735  0.00  0.00    +0.000 A 
ATOM     13  C   UNL     1      -0.337 -10.657  -5.650  0.00  0.00    +0.000 A 
ATOM     14  N   UNL     1       0.843 -10.517  -6.284  0.00  0.00    +0.000 NA
ATOM     15  C   UNL     1       1.566  -9.411  -5.981  0.00  0.00    +0.000 A 
ENDBRANCH   8  10
ENDBRANCH   1   4
BRANCH   1  16
ATOM     16  N   UNL     1       2.940  -4.475  -0.980  0.00  0.00    +0.000 N 
ATOM     17  H   UNL     1       1.922  -4.439  -1.006  0.00  0.00    +0.000 HD
BRANCH  16  22
ATOM     18  C   UNL     1       2.746  -0.966  -0.746  0.00  0.00    +0.000 A 
ATOM     19  N   UNL     1       4.009  -0.483  -0.753  0.00  0.00    +0.000 NA
ATOM     20  C   UNL     1       4.962  -1.427  -0.883  0.00  0.00    +0.000 A 
ATOM     21  C   UNL     1       4.708  -2.773  -0.997  0.00  0.00    +0.000 A 
ATOM     22  C   UNL     1       3.380  -3.158  -0.974  0.00  0.00    +0.000 A 
ATOM     23  N   UNL     1       2.393  -2.254  -0.842  0.00  0.00    +0.000 NA
BRANCH  18  25
ATOM     24  N   UNL     1       2.003   1.358  -0.483  0.00  0.00    +0.000 N 
ATOM     25  C   UNL     1       1.624   0.040  -0.594  0.00  0.00    +0.000 C 
ATOM     26  O   UNL     1       0.436  -0.253  -0.574  0.00  0.00    +0.000 OA
ATOM     27  H   UNL     1       1.287   2.063  -0.378  0.00  0.00    +0.000 HD
ATOM     28  H   UNL     1       2.983   1.615  -0.501  0.00  0.00    +0.000 HD
ENDBRANCH  18  25
ENDBRANCH  16  22
ENDBRANCH   1  16
TORSDOF 5
