REMARK  Name = 
REMARK  6 active torsions:
REMARK  status: ('A' for Active; 'I' for Inactive)
REMARK    1  A    between atoms: C_2  and  C_25
REMARK    2  A    between atoms: N_3  and  C_4
REMARK    3  A    between atoms: C_4  and  C_5
REMARK    4  A    between atoms: C_8  and  C_9
REMARK    5  A    between atoms: C_9  and  N_10
REMARK    6  A    between atoms: C_11  and  C_13
REMARK                            x       y       z     vdW  Elec       q    Type
REMARK                         _______ _______ _______ _____ _____    ______ ____
ROOT
ATOM      1  C   UNL     1       3.178   2.745  -2.861  0.00  0.00    +0.000 C 
ATOM      2  C   UNL     1       4.610   2.249  -2.593  0.00  0.00    +0.000 C 
ATOM      3  C   UNL     1       5.694   3.227  -3.050  0.00  0.00    +0.000 C 
ATOM      4  C   UNL     1       5.497   4.659  -2.523  0.00  0.00    +0.000 C 
ATOM      5  C   UNL     1       4.077   5.144  -2.851  0.00  0.00    +0.000 C 
ATOM      6  C   UNL     1       2.992   4.186  -2.355  0.00  0.00    +0.000 C 
ENDROOT
BRANCH   1   7
ATOM      7  C   UNL     1       2.776   2.630  -4.344  0.00  0.00    +0.000 C 
BRANCH   7  10
ATOM      8  O   UNL     1       0.566   0.870  -4.022  0.00  0.00    +0.000 OA
ATOM      9  C   UNL     1       1.576   0.475  -4.599  0.00  0.00    +0.000 C 
ATOM     10  N   UNL     1       2.690   1.259  -4.796  0.00  0.00    +0.000 N 
ATOM     11  H   UNL     1       3.468   0.821  -5.282  0.00  0.00    +0.000 HD
BRANCH   9  12
ATOM     12  C   UNL     1       1.691  -0.859  -5.154  0.00  0.00    +0.000 A 
ATOM     13  N   UNL     1       2.780  -1.374  -5.704  0.00  0.00    +0.000 NA
ATOM     14  C   UNL     1       2.422  -2.638  -6.105  0.00  0.00    +0.000 A 
ATOM     15  C   UNL     1       1.104  -2.892  -5.810  0.00  0.00    +0.000 A 
ATOM     16  N   UNL     1       0.656  -1.761  -5.189  0.00  0.00    +0.000 N 
ATOM     17  H   UNL     1      -0.271  -1.577  -4.830  0.00  0.00    +0.000 HD
ENDBRANCH   9  12
ENDBRANCH   7  10
ENDBRANCH   1   7
BRANCH   4  18
ATOM     18  C   UNL     1       5.782   4.804  -1.020  0.00  0.00    +0.000 C 
BRANCH  18  19
ATOM     19  N   UNL     1       7.126   4.420  -0.656  0.00  0.00    +0.000 N 
ATOM     20  C   UNL     1       8.191   5.279  -0.637  0.00  0.00    +0.000 C 
ATOM     21  O   UNL     1       8.130   6.427  -1.068  0.00  0.00    +0.000 OA
ATOM     22  H   UNL     1       7.215   3.516  -0.210  0.00  0.00    +0.000 HD
BRANCH  20  23
ATOM     23  C   UNL     1       9.436   4.721  -0.094  0.00  0.00    +0.000 A 
ATOM     24  C   UNL     1      10.663   5.248  -0.467  0.00  0.00    +0.000 A 
ATOM     25  S   UNL     1      11.991   4.463   0.265  0.00  0.00    +0.000 S 
ATOM     26  C   UNL     1      10.968   3.429   1.150  0.00  0.00    +0.000 A 
ATOM     27  N   UNL     1      11.475   2.514   2.020  0.00  0.00    +0.000 NA
ATOM     28  C   UNL     1      10.585   1.829   2.657  0.00  0.00    +0.000 A 
ATOM     29  N   UNL     1       9.232   1.965   2.493  0.00  0.00    +0.000 N 
ATOM     30  C   UNL     1       8.678   2.818   1.571  0.00  0.00    +0.000 A 
ATOM     31  O   UNL     1       7.470   2.811   1.352  0.00  0.00    +0.000 OA
ATOM     32  C   UNL     1       9.634   3.653   0.864  0.00  0.00    +0.000 A 
ATOM     33  H   UNL     1       8.584   1.380   2.999  0.00  0.00    +0.000 HD
ENDBRANCH  20  23
ENDBRANCH  18  19
ENDBRANCH   4  18
TORSDOF 6
