REMARK  Name = 
REMARK  7 active torsions:
REMARK  status: ('A' for Active; 'I' for Inactive)
REMARK    1  A    between atoms: C_2  and  C_22
REMARK    2  A    between atoms: N_3  and  C_4
REMARK    3  A    between atoms: C_4  and  C_5
REMARK    4  A    between atoms: C_8  and  C_9
REMARK    5  A    between atoms: C_9  and  C_10
REMARK    6  A    between atoms: C_10  and  O_11
REMARK    7  A    between atoms: C_10  and  C_12
REMARK                            x       y       z     vdW  Elec       q    Type
REMARK                         _______ _______ _______ _____ _____    ______ ____
ROOT
ATOM      1  C   UNL     1       3.330  -0.771  -3.540  0.00  0.00    +0.000 A 
ATOM      2  C   UNL     1       3.972   0.324  -4.127  0.00  0.00    +0.000 A 
ATOM      3  C   UNL     1       4.918   0.143  -5.138  0.00  0.00    +0.000 A 
ATOM      4  C   UNL     1       5.248  -1.141  -5.590  0.00  0.00    +0.000 A 
ATOM      5  C   UNL     1       4.584  -2.237  -5.020  0.00  0.00    +0.000 A 
ATOM      6  C   UNL     1       3.630  -2.056  -4.011  0.00  0.00    +0.000 A 
ENDROOT
BRANCH   1   7
ATOM      7  C   UNL     1       2.341  -0.544  -2.428  0.00  0.00    +0.000 C 
BRANCH   7  10
ATOM      8  O   UNL     1       1.223   1.949  -3.096  0.00  0.00    +0.000 OA
ATOM      9  C   UNL     1       0.558   0.924  -3.258  0.00  0.00    +0.000 C 
ATOM     10  N   UNL     1       1.009  -0.321  -2.909  0.00  0.00    +0.000 N 
ATOM     11  H   UNL     1       0.526  -1.140  -3.261  0.00  0.00    +0.000 HD
BRANCH   9  12
ATOM     12  C   UNL     1      -0.794   0.978  -3.802  0.00  0.00    +0.000 A 
ATOM     13  C   UNL     1      -1.616   2.085  -3.629  0.00  0.00    +0.000 A 
ATOM     14  S   UNL     1      -3.140   1.904  -4.384  0.00  0.00    +0.000 S 
ATOM     15  C   UNL     1      -2.727   0.362  -4.978  0.00  0.00    +0.000 A 
ATOM     16  N   UNL     1      -3.589  -0.363  -5.740  0.00  0.00    +0.000 NA
ATOM     17  C   UNL     1      -3.122  -1.499  -6.138  0.00  0.00    +0.000 A 
ATOM     18  N   UNL     1      -1.873  -1.984  -5.846  0.00  0.00    +0.000 N 
ATOM     19  C   UNL     1      -1.001  -1.329  -5.025  0.00  0.00    +0.000 A 
ATOM     20  O   UNL     1       0.044  -1.866  -4.668  0.00  0.00    +0.000 OA
ATOM     21  C   UNL     1      -1.460  -0.024  -4.588  0.00  0.00    +0.000 A 
ATOM     22  H   UNL     1      -1.578  -2.900  -6.148  0.00  0.00    +0.000 HD
ENDBRANCH   9  12
ENDBRANCH   7  10
ENDBRANCH   1   7
BRANCH   4  23
ATOM     23  C   UNL     1       6.274  -1.358  -6.687  0.00  0.00    +0.000 C 
BRANCH  23  24
ATOM     24  C   UNL     1       7.680  -0.833  -6.345  0.00  0.00    +0.000 C 
BRANCH  24  25
ATOM     25  C   UNL     1       8.638  -0.913  -7.577  0.00  0.00    +0.000 C 
ATOM     26  O   UNL     1       8.246  -1.396  -8.642  0.00  0.00    +0.000 OA
ATOM     27  N   UNL     1       9.904  -0.354  -7.423  0.00  0.00    +0.000 N 
ATOM     28  C   UNL     1      10.773  -0.222  -8.592  0.00  0.00    +0.000 C 
ATOM     29  C   UNL     1      12.002  -1.114  -8.456  0.00  0.00    +0.000 C 
ATOM     30  C   UNL     1      12.733  -0.844  -7.140  0.00  0.00    +0.000 C 
ATOM     31  C   UNL     1      11.778  -0.939  -5.949  0.00  0.00    +0.000 C 
ATOM     32  C   UNL     1      10.555  -0.043  -6.148  0.00  0.00    +0.000 C 
ENDBRANCH  24  25
BRANCH  24  33
ATOM     33  O   UNL     1       8.175  -1.530  -5.202  0.00  0.00    +0.000 OA
ATOM     34  H   UNL     1       8.103  -2.479  -5.377  0.00  0.00    +0.000 HD
ENDBRANCH  24  33
ENDBRANCH  23  24
ENDBRANCH   4  23
TORSDOF 7
