REMARK  Name = 
REMARK  7 active torsions:
REMARK  status: ('A' for Active; 'I' for Inactive)
REMARK    1  A    between atoms: C_2  and  C_20
REMARK    2  A    between atoms: N_3  and  C_4
REMARK    3  A    between atoms: C_4  and  C_5
REMARK    4  A    between atoms: C_8  and  C_9
REMARK    5  A    between atoms: C_9  and  O_10
REMARK    6  A    between atoms: C_9  and  C_11
REMARK    7  A    between atoms: C_11  and  C_12
REMARK                            x       y       z     vdW  Elec       q    Type
REMARK                         _______ _______ _______ _____ _____    ______ ____
ROOT
ATOM      1  C   UNL     1       2.332  -1.881  -1.680  0.00  0.00    +0.000 C 
ENDROOT
BRANCH   1   2
ATOM      2  C   UNL     1       3.273  -2.788  -2.418  0.00  0.00    +0.000 A 
ATOM      3  C   UNL     1       3.065  -4.164  -2.409  0.00  0.00    +0.000 A 
ATOM      4  N   UNL     1       3.837  -5.036  -3.105  0.00  0.00    +0.000 NA
ATOM      5  C   UNL     1       4.828  -4.472  -3.847  0.00  0.00    +0.000 A 
ATOM      6  C   UNL     1       5.033  -3.094  -3.852  0.00  0.00    +0.000 A 
ATOM      7  N   UNL     1       4.268  -2.226  -3.151  0.00  0.00    +0.000 NA
BRANCH   5   8
ATOM      8  C   UNL     1       5.707  -5.371  -4.686  0.00  0.00    +0.000 C 
BRANCH   8   9
ATOM      9  O   UNL     1       6.368  -6.328  -3.858  0.00  0.00    +0.000 OA
ATOM     10  H   UNL     1       5.657  -6.812  -3.396  0.00  0.00    +0.000 HD
ENDBRANCH   8   9
BRANCH   8  11
ATOM     11  C   UNL     1       4.909  -6.110  -5.772  0.00  0.00    +0.000 C 
BRANCH  11  12
ATOM     12  C   UNL     1       5.774  -7.037  -6.653  0.00  0.00    +0.000 C 
ATOM     13  C   UNL     1       6.879  -6.270  -7.394  0.00  0.00    +0.000 C 
ATOM     14  C   UNL     1       7.594  -7.160  -8.401  0.00  0.00    +0.000 C 
ATOM     15  O   UNL     1       6.666  -7.745  -9.310  0.00  0.00    +0.000 OA
ATOM     16  C   UNL     1       5.728  -8.588  -8.643  0.00  0.00    +0.000 C 
ATOM     17  C   UNL     1       4.887  -7.780  -7.663  0.00  0.00    +0.000 C 
ENDBRANCH  11  12
ENDBRANCH   8  11
ENDBRANCH   5   8
ENDBRANCH   1   2
BRANCH   1  20
ATOM     18  O   UNL     1      -0.097  -3.241  -1.960  0.00  0.00    +0.000 OA
ATOM     19  C   UNL     1       0.058  -2.181  -2.560  0.00  0.00    +0.000 C 
ATOM     20  N   UNL     1       1.237  -1.483  -2.518  0.00  0.00    +0.000 N 
ATOM     21  H   UNL     1       1.319  -0.571  -2.957  0.00  0.00    +0.000 HD
BRANCH  19  22
ATOM     22  C   UNL     1      -0.993  -1.591  -3.382  0.00  0.00    +0.000 A 
ATOM     23  C   UNL     1      -1.969  -2.373  -3.983  0.00  0.00    +0.000 A 
ATOM     24  S   UNL     1      -3.095  -1.452  -4.882  0.00  0.00    +0.000 S 
ATOM     25  C   UNL     1      -2.321   0.007  -4.468  0.00  0.00    +0.000 A 
ATOM     26  N   UNL     1      -2.781   1.210  -4.907  0.00  0.00    +0.000 NA
ATOM     27  C   UNL     1      -2.102   2.225  -4.486  0.00  0.00    +0.000 A 
ATOM     28  N   UNL     1      -1.008   2.157  -3.663  0.00  0.00    +0.000 N 
ATOM     29  C   UNL     1      -0.469   0.971  -3.243  0.00  0.00    +0.000 A 
ATOM     30  O   UNL     1       0.574   0.959  -2.615  0.00  0.00    +0.000 OA
ATOM     31  C   UNL     1      -1.212  -0.203  -3.668  0.00  0.00    +0.000 A 
ATOM     32  H   UNL     1      -0.496   2.984  -3.397  0.00  0.00    +0.000 HD
ENDBRANCH  19  22
ENDBRANCH   1  20
TORSDOF 7
