REMARK  Name = 
REMARK  5 active torsions:
REMARK  status: ('A' for Active; 'I' for Inactive)
REMARK    1  A    between atoms: C_2  and  C_18
REMARK    2  A    between atoms: N_3  and  C_4
REMARK    3  A    between atoms: C_4  and  C_5
REMARK    4  A    between atoms: C_8  and  C_9
REMARK    5  A    between atoms: C_9  and  C_10
REMARK                            x       y       z     vdW  Elec       q    Type
REMARK                         _______ _______ _______ _____ _____    ______ ____
ROOT
ATOM      1  O   UNL     1       3.510  -0.055  -0.879  0.00  0.00    +0.000 OA
ATOM      2  C   UNL     1       3.348   0.659   0.107  0.00  0.00    +0.000 C 
ATOM      3  N   UNL     1       2.581   1.794   0.054  0.00  0.00    +0.000 N 
ATOM      4  H   UNL     1       2.609   2.461   0.820  0.00  0.00    +0.000 HD
ENDROOT
BRANCH   2   5
ATOM      5  C   UNL     1       3.940   0.312   1.406  0.00  0.00    +0.000 A 
ATOM      6  C   UNL     1       4.315  -1.002   1.659  0.00  0.00    +0.000 A 
ATOM      7  S   UNL     1       4.995  -1.237   3.204  0.00  0.00    +0.000 S 
ATOM      8  C   UNL     1       4.857   0.417   3.575  0.00  0.00    +0.000 A 
ATOM      9  N   UNL     1       5.309   0.907   4.761  0.00  0.00    +0.000 NA
ATOM     10  C   UNL     1       5.182   2.185   4.892  0.00  0.00    +0.000 A 
ATOM     11  N   UNL     1       4.629   3.015   3.952  0.00  0.00    +0.000 N 
ATOM     12  C   UNL     1       4.097   2.555   2.771  0.00  0.00    +0.000 A 
ATOM     13  O   UNL     1       3.505   3.306   2.002  0.00  0.00    +0.000 OA
ATOM     14  C   UNL     1       4.263   1.132   2.550  0.00  0.00    +0.000 A 
ATOM     15  H   UNL     1       4.529   4.003   4.131  0.00  0.00    +0.000 HD
ENDBRANCH   2   5
BRANCH   3  16
ATOM     16  C   UNL     1       1.969   2.255  -1.178  0.00  0.00    +0.000 C 
BRANCH  16  17
ATOM     17  C   UNL     1       2.840   3.214  -1.941  0.00  0.00    +0.000 A 
ATOM     18  C   UNL     1       3.845   2.739  -2.780  0.00  0.00    +0.000 A 
ATOM     19  N   UNL     1       4.693   3.552  -3.456  0.00  0.00    +0.000 NA
ATOM     20  C   UNL     1       4.528   4.886  -3.261  0.00  0.00    +0.000 A 
ATOM     21  C   UNL     1       3.494   5.358  -2.460  0.00  0.00    +0.000 A 
ATOM     22  N   UNL     1       2.650   4.547  -1.775  0.00  0.00    +0.000 NA
BRANCH  20  23
ATOM     23  C   UNL     1       5.487   5.809  -3.958  0.00  0.00    +0.000 C 
BRANCH  23  24
ATOM     24  C   UNL     1       6.850   6.122  -3.295  0.00  0.00    +0.000 C 
ATOM     25  C   UNL     1       7.746   4.953  -2.891  0.00  0.00    +0.000 C 
ATOM     26  C   UNL     1       7.343   4.311  -1.574  0.00  0.00    +0.000 C 
ATOM     27  C   UNL     1       7.045   5.341  -0.495  0.00  0.00    +0.000 C 
ATOM     28  C   UNL     1       6.335   6.597  -0.983  0.00  0.00    +0.000 C 
ATOM     29  O   UNL     1       6.778   7.086  -2.241  0.00  0.00    +0.000 OA
ENDBRANCH  23  24
ENDBRANCH  20  23
ENDBRANCH  16  17
ENDBRANCH   3  16
TORSDOF 5
