REMARK  Name = 
REMARK  9 active torsions:
REMARK  status: ('A' for Active; 'I' for Inactive)
REMARK    1  A    between atoms: C_1  and  O_2
REMARK    2  A    between atoms: O_2  and  C_3
REMARK    3  A    between atoms: C_10  and  C_11
REMARK    4  A    between atoms: N_13  and  C_14
REMARK    5  A    between atoms: C_14  and  C_15
REMARK    6  A    between atoms: C_18  and  N_19
REMARK    7  A    between atoms: N_19  and  C_20
REMARK    8  A    between atoms: C_20  and  C_21
REMARK    9  A    between atoms: C_21  and  N_22
REMARK                            x       y       z     vdW  Elec       q    Type
REMARK                         _______ _______ _______ _____ _____    ______ ____
ROOT
ATOM      1  C   UNL     1       3.059  -0.675   3.275  0.00  0.00    +0.000 C 
ENDROOT
BRANCH   1   2
ATOM      2  C   UNL     1       1.947   0.340   3.367  0.00  0.00    +0.000 A 
ATOM      3  C   UNL     1       0.626  -0.070   3.571  0.00  0.00    +0.000 A 
ATOM      4  C   UNL     1      -0.399   0.876   3.701  0.00  0.00    +0.000 A 
ATOM      5  C   UNL     1      -0.143   2.253   3.632  0.00  0.00    +0.000 A 
ATOM      6  C   UNL     1       1.168   2.650   3.350  0.00  0.00    +0.000 A 
ATOM      7  C   UNL     1       2.202   1.710   3.232  0.00  0.00    +0.000 A 
BRANCH   5   8
ATOM      8  N   UNL     1      -1.120   3.246   3.839  0.00  0.00    +0.000 N 
ATOM      9  H   UNL     1      -1.464   3.678   2.980  0.00  0.00    +0.000 HD
BRANCH   8  10
ATOM     10  C   UNL     1      -2.181   2.906   4.792  0.00  0.00    +0.000 C 
BRANCH  10  11
ATOM     11  C   UNL     1      -3.224   4.034   5.001  0.00  0.00    +0.000 C 
BRANCH  11  12
ATOM     12  N   UNL     1      -3.962   4.406   3.765  0.00  0.00    +0.000 NA
ATOM     13  C   UNL     1      -4.717   3.252   3.243  0.00  0.00    +0.000 C 
ATOM     14  C   UNL     1      -5.433   3.585   1.937  0.00  0.00    +0.000 C 
ATOM     15  C   UNL     1      -6.343   4.795   2.092  0.00  0.00    +0.000 C 
ATOM     16  C   UNL     1      -5.564   5.962   2.680  0.00  0.00    +0.000 C 
ATOM     17  C   UNL     1      -4.858   5.557   3.978  0.00  0.00    +0.000 C 
ENDBRANCH  11  12
ENDBRANCH  10  11
ENDBRANCH   8  10
ENDBRANCH   5   8
ENDBRANCH   1   2
BRANCH   1  20
ATOM     18  C   UNL     1       4.204  -2.035   1.575  0.00  0.00    +0.000 C 
ATOM     19  O   UNL     1       4.948  -2.550   2.421  0.00  0.00    +0.000 OA
ATOM     20  N   UNL     1       3.260  -1.120   1.917  0.00  0.00    +0.000 N 
ATOM     21  H   UNL     1       2.742  -0.634   1.200  0.00  0.00    +0.000 HD
BRANCH  18  29
ATOM     22  C   UNL     1       2.457  -1.058  -1.204  0.00  0.00    +0.000 A 
ATOM     23  N   UNL     1       1.934  -0.857  -2.428  0.00  0.00    +0.000 NA
ATOM     24  C   UNL     1       2.461  -1.526  -3.448  0.00  0.00    +0.000 A 
ATOM     25  N   UNL     1       3.465  -2.402  -3.400  0.00  0.00    +0.000 NA
ATOM     26  C   UNL     1       3.953  -2.576  -2.165  0.00  0.00    +0.000 A 
ATOM     27  S   UNL     1       5.241  -3.654  -1.914  0.00  0.00    +0.000 S 
ATOM     28  C   UNL     1       5.260  -3.325  -0.247  0.00  0.00    +0.000 A 
ATOM     29  C   UNL     1       4.304  -2.396   0.152  0.00  0.00    +0.000 A 
ATOM     30  C   UNL     1       3.523  -1.951  -1.001  0.00  0.00    +0.000 A 
BRANCH  22  32
ATOM     31  C   UNL     1       0.606   0.091  -0.408  0.00  0.00    +0.000 C 
ATOM     32  O   UNL     1       1.958  -0.293  -0.175  0.00  0.00    +0.000 OA
ENDBRANCH  22  32
ENDBRANCH  18  29
ENDBRANCH   1  20
TORSDOF 8
