REMARK  Name = 
REMARK  11 active torsions:
REMARK  status: ('A' for Active; 'I' for Inactive)
REMARK    1  A    between atoms: C_1  and  C_2
REMARK    2  A    between atoms: C_2  and  N_3
REMARK    3  A    between atoms: C_2  and  C_16
REMARK    4  A    between atoms: C_4  and  C_6
REMARK    5  A    between atoms: C_19  and  C_20
REMARK    6  A    between atoms: C_20  and  N_21
REMARK    7  A    between atoms: N_21  and  C_22
REMARK    8  A    between atoms: N_21  and  C_25
REMARK    9  A    between atoms: C_22  and  C_23
REMARK   10  A    between atoms: C_23  and  O_24
REMARK   11  A    between atoms: C_25  and  C_26
REMARK                            x       y       z     vdW  Elec       q    Type
REMARK                         _______ _______ _______ _____ _____    ______ ____
ROOT
ATOM      1  C   UNL     1       2.866   0.521  -1.347  0.00  0.00    +0.000 A 
ATOM      2  C   UNL     1       2.281   1.771  -1.599  0.00  0.00    +0.000 A 
ATOM      3  C   UNL     1       2.655   2.525  -2.710  0.00  0.00    +0.000 A 
ATOM      4  C   UNL     1       3.656   2.069  -3.575  0.00  0.00    +0.000 A 
ATOM      5  C   UNL     1       4.204   0.797  -3.365  0.00  0.00    +0.000 A 
ATOM      6  C   UNL     1       3.802   0.025  -2.269  0.00  0.00    +0.000 A 
ENDROOT
BRANCH   1   8
ATOM      7  C   UNL     1       1.189  -1.108  -0.510  0.00  0.00    +0.000 C 
ATOM      8  C   UNL     1       2.408  -0.266  -0.125  0.00  0.00    +0.000 C 
BRANCH   8   9
ATOM      9  N   UNL     1       3.482  -1.068   0.439  0.00  0.00    +0.000 N 
ATOM     10  C   UNL     1       3.329  -1.784   1.602  0.00  0.00    +0.000 C 
ATOM     11  O   UNL     1       2.272  -1.834   2.223  0.00  0.00    +0.000 OA
ATOM     12  H   UNL     1       4.424  -0.771   0.204  0.00  0.00    +0.000 HD
BRANCH  10  13
ATOM     13  C   UNL     1       4.496  -2.559   2.038  0.00  0.00    +0.000 A 
ATOM     14  C   UNL     1       4.313  -3.726   2.768  0.00  0.00    +0.000 A 
ATOM     15  S   UNL     1       5.772  -4.510   3.172  0.00  0.00    +0.000 S 
ATOM     16  C   UNL     1       6.696  -3.293   2.422  0.00  0.00    +0.000 A 
ATOM     17  N   UNL     1       8.056  -3.338   2.436  0.00  0.00    +0.000 NA
ATOM     18  C   UNL     1       8.627  -2.338   1.851  0.00  0.00    +0.000 A 
ATOM     19  N   UNL     1       7.961  -1.300   1.247  0.00  0.00    +0.000 N 
ATOM     20  C   UNL     1       6.594  -1.233   1.181  0.00  0.00    +0.000 A 
ATOM     21  O   UNL     1       6.024  -0.326   0.581  0.00  0.00    +0.000 OA
ATOM     22  C   UNL     1       5.902  -2.321   1.845  0.00  0.00    +0.000 A 
ATOM     23  H   UNL     1       8.469  -0.557   0.791  0.00  0.00    +0.000 HD
ENDBRANCH  10  13
ENDBRANCH   8   9
ENDBRANCH   1   8
BRANCH   4  24
ATOM     24  C   UNL     1       4.159   2.966  -4.688  0.00  0.00    +0.000 C 
BRANCH  24  25
ATOM     25  N   UNL     1       4.659   4.279  -4.195  0.00  0.00    +0.000 NA
BRANCH  25  26
ATOM     26  C   UNL     1       5.821   4.091  -3.291  0.00  0.00    +0.000 C 
BRANCH  26  27
ATOM     27  C   UNL     1       6.372   5.380  -2.652  0.00  0.00    +0.000 C 
BRANCH  27  28
ATOM     28  O   UNL     1       7.427   5.076  -1.740  0.00  0.00    +0.000 OA
ATOM     29  H   UNL     1       7.012   4.833  -0.895  0.00  0.00    +0.000 HD
ENDBRANCH  27  28
ENDBRANCH  26  27
ENDBRANCH  25  26
BRANCH  25  30
ATOM     30  C   UNL     1       5.041   5.121  -5.355  0.00  0.00    +0.000 C 
BRANCH  30  31
ATOM     31  C   UNL     1       3.903   5.484  -6.293  0.00  0.00    +0.000 A 
ATOM     32  C   UNL     1       2.771   6.141  -5.812  0.00  0.00    +0.000 A 
ATOM     33  C   UNL     1       1.769   6.496  -6.710  0.00  0.00    +0.000 A 
ATOM     34  C   UNL     1       1.924   6.192  -8.057  0.00  0.00    +0.000 A 
ATOM     35  C   UNL     1       3.076   5.532  -8.451  0.00  0.00    +0.000 A 
ATOM     36  N   UNL     1       4.063   5.171  -7.604  0.00  0.00    +0.000 NA
ENDBRANCH  30  31
ENDBRANCH  25  30
ENDBRANCH  24  25
ENDBRANCH   4  24
TORSDOF 10
