REMARK  Name = 
REMARK  5 active torsions:
REMARK  status: ('A' for Active; 'I' for Inactive)
REMARK    1  A    between atoms: N_1  and  C_2
REMARK    2  A    between atoms: C_2  and  C_3
REMARK    3  A    between atoms: C_3  and  C_4
REMARK    4  A    between atoms: N_8  and  C_9
REMARK    5  A    between atoms: C_9  and  C_10
REMARK                            x       y       z     vdW  Elec       q    Type
REMARK                         _______ _______ _______ _____ _____    ______ ____
ROOT
ATOM      1  C   UNL     1       4.528  -1.269   0.658  0.00  0.00    +0.000 A 
ATOM      2  C   UNL     1       5.281  -0.816   1.713  0.00  0.00    +0.000 A 
ATOM      3  N   UNL     1       6.634  -0.763   1.707  0.00  0.00    +0.000 NA
ATOM      4  C   UNL     1       7.241  -1.216   0.607  0.00  0.00    +0.000 A 
ATOM      5  N   UNL     1       8.618  -1.109   0.566  0.00  0.00    +0.000 N 
ATOM      6  N   UNL     1       6.603  -1.689  -0.465  0.00  0.00    +0.000 NA
ATOM      7  C   UNL     1       5.251  -1.693  -0.425  0.00  0.00    +0.000 A 
ATOM      8  H   UNL     1       9.032  -0.549   1.293  0.00  0.00    +0.000 HD
ENDROOT
BRANCH   1   9
ATOM      9  C   UNL     1       3.029  -1.248   0.658  0.00  0.00    +0.000 C 
BRANCH   9  10
ATOM     10  C   UNL     1       2.486   0.068   0.090  0.00  0.00    +0.000 C 
BRANCH  10  11
ATOM     11  N   UNL     1       1.027   0.075   0.096  0.00  0.00    +0.000 NA
ATOM     12  H   UNL     1       0.692   0.968  -0.265  0.00  0.00    +0.000 HD
ATOM     13  H   UNL     1       0.682   0.013   1.055  0.00  0.00    +0.000 HD
ENDBRANCH  10  11
ENDBRANCH   9  10
ENDBRANCH   1   9
BRANCH   5  14
ATOM     14  C   UNL     1       9.381  -2.087  -0.165  0.00  0.00    +0.000 C 
BRANCH  14  15
ATOM     15  C   UNL     1       9.713  -3.297   0.680  0.00  0.00    +0.000 A 
ATOM     16  C   UNL     1      10.891  -3.338   1.445  0.00  0.00    +0.000 A 
ATOM     17  C   UNL     1      11.190  -4.450   2.235  0.00  0.00    +0.000 A 
ATOM     18  C   UNL     1      10.318  -5.538   2.265  0.00  0.00    +0.000 A 
ATOM     19  C   UNL     1       9.150  -5.510   1.507  0.00  0.00    +0.000 A 
ATOM     20 CL   UNL     1       8.079  -6.856   1.540  0.00  0.00    +0.000 Cl
ATOM     21  C   UNL     1       8.844  -4.400   0.719  0.00  0.00    +0.000 A 
ENDBRANCH  14  15
ENDBRANCH   5  14
TORSDOF 5
