REMARK  Name = 
REMARK  6 active torsions:
REMARK  status: ('A' for Active; 'I' for Inactive)
REMARK    1  A    between atoms: C_1  and  C_2
REMARK    2  A    between atoms: C_4  and  C_5
REMARK    3  A    between atoms: C_10  and  N_11
REMARK    4  A    between atoms: N_11  and  C_12
REMARK    5  A    between atoms: C_12  and  C_13
REMARK    6  A    between atoms: C_16  and  O_17
REMARK                            x       y       z     vdW  Elec       q    Type
REMARK                         _______ _______ _______ _____ _____    ______ ____
ROOT
ATOM      1  N   UNL     1       0.909  -2.202  -0.091  0.00  0.00    +0.000 N 
ATOM      2  H   UNL     1       0.333  -2.883   0.391  0.00  0.00    +0.000 HD
ENDROOT
BRANCH   1   9
ATOM      3  C   UNL     1      -1.947  -1.969  -0.497  0.00  0.00    +0.000 C 
ATOM      4  C   UNL     1      -1.050  -0.785  -0.283  0.00  0.00    +0.000 A 
ATOM      5  C   UNL     1      -1.613   0.500  -0.371  0.00  0.00    +0.000 A 
ATOM      6  C   UNL     1      -0.838   1.635  -0.157  0.00  0.00    +0.000 A 
ATOM      7  C   UNL     1       0.492   1.418   0.164  0.00  0.00    +0.000 A 
ATOM      8  N   UNL     1       1.082   0.186   0.232  0.00  0.00    +0.000 NA
ATOM      9  C   UNL     1       0.323  -0.911  -0.001  0.00  0.00    +0.000 A 
BRANCH   6  10
ATOM     10  C   UNL     1      -1.491   2.965  -0.293  0.00  0.00    +0.000 C 
ATOM     11  N   UNL     1      -0.756   4.099  -0.113  0.00  0.00    +0.000 N 
ATOM     12  O   UNL     1      -2.680   3.056  -0.579  0.00  0.00    +0.000 OA
ATOM     13  H   UNL     1       0.234   4.145   0.070  0.00  0.00    +0.000 HD
ATOM     14  H   UNL     1      -1.244   4.977  -0.253  0.00  0.00    +0.000 HD
ENDBRANCH   6  10
ENDBRANCH   1   9
BRANCH   1  15
ATOM     15  C   UNL     1       2.368  -2.440   0.014  0.00  0.00    +0.000 C 
ATOM     16  C   UNL     1       3.343  -1.631  -0.820  0.00  0.00    +0.000 C 
ATOM     17  C   UNL     1       3.060  -3.040  -1.211  0.00  0.00    +0.000 C 
BRANCH  15  18
ATOM     18  C   UNL     1       2.819  -3.037   1.351  0.00  0.00    +0.000 A 
ATOM     19  C   UNL     1       3.496  -2.264   2.311  0.00  0.00    +0.000 A 
ATOM     20  C   UNL     1       3.964  -2.816   3.513  0.00  0.00    +0.000 A 
ATOM     21  C   UNL     1       3.741  -4.161   3.780  0.00  0.00    +0.000 A 
ATOM     22  C   UNL     1       3.067  -4.949   2.854  0.00  0.00    +0.000 A 
ATOM     23  F   UNL     1       2.855  -6.250   3.093  0.00  0.00    +0.000 F 
ATOM     24  C   UNL     1       2.612  -4.397   1.656  0.00  0.00    +0.000 A 
BRANCH  21  25
ATOM     25  O   UNL     1       4.182  -4.726   4.944  0.00  0.00    +0.000 OA
ATOM     26  H   UNL     1       4.605  -4.043   5.489  0.00  0.00    +0.000 HD
ENDBRANCH  21  25
ENDBRANCH  15  18
ENDBRANCH   1  15
TORSDOF 5
