REMARK  Name = 
REMARK  5 active torsions:
REMARK  status: ('A' for Active; 'I' for Inactive)
REMARK    1  A    between atoms: N_1  and  C_2
REMARK    2  A    between atoms: C_2  and  C_3
REMARK    3  A    between atoms: C_7  and  C_8
REMARK    4  A    between atoms: C_9  and  C_10
REMARK    5  A    between atoms: C_14  and  C_15
REMARK                            x       y       z     vdW  Elec       q    Type
REMARK                         _______ _______ _______ _____ _____    ______ ____
ROOT
ATOM      1  C   UNL     1       5.817  -3.135   1.803  0.00  0.00    +0.000 C 
ATOM      2  C   UNL     1       6.670  -2.197   2.250  0.00  0.00    +0.000 C 
ENDROOT
BRANCH   1   7
ATOM      3  C   UNL     1       2.480  -3.502   0.095  0.00  0.00    +0.000 A 
ATOM      4  C   UNL     1       2.157  -2.152  -0.051  0.00  0.00    +0.000 A 
ATOM      5  C   UNL     1       3.050  -1.204   0.417  0.00  0.00    +0.000 A 
ATOM      6  N   UNL     1       4.225  -1.503   1.011  0.00  0.00    +0.000 NA
ATOM      7  C   UNL     1       4.537  -2.813   1.151  0.00  0.00    +0.000 A 
ATOM      8  C   UNL     1       3.699  -3.831   0.706  0.00  0.00    +0.000 A 
BRANCH   3   9
ATOM      9  C   UNL     1       1.557  -4.578  -0.410  0.00  0.00    +0.000 C 
BRANCH   9  10
ATOM     10  N   UNL     1       1.156  -5.483   0.659  0.00  0.00    +0.000 NA
ATOM     11  H   UNL     1       0.481  -6.152   0.295  0.00  0.00    +0.000 HD
ATOM     12  H   UNL     1       0.671  -4.950   1.380  0.00  0.00    +0.000 HD
ENDBRANCH   9  10
ENDBRANCH   3   9
ENDBRANCH   1   7
BRANCH   2  13
ATOM     13  C   UNL     1       7.949  -2.466   2.918  0.00  0.00    +0.000 A 
ATOM     14  C   UNL     1       8.437  -1.560   3.859  0.00  0.00    +0.000 A 
ATOM     15  N   UNL     1       9.621  -1.686   4.506  0.00  0.00    +0.000 NA
ATOM     16  C   UNL     1      10.370  -2.771   4.190  0.00  0.00    +0.000 A 
ATOM     17  C   UNL     1       9.995  -3.731   3.261  0.00  0.00    +0.000 A 
ATOM     18  C   UNL     1       8.761  -3.563   2.617  0.00  0.00    +0.000 A 
BRANCH  17  19
ATOM     19  C   UNL     1      10.830  -4.908   2.916  0.00  0.00    +0.000 C 
ATOM     20  N   UNL     1      12.043  -5.070   3.526  0.00  0.00    +0.000 N 
ATOM     21  O   UNL     1      10.448  -5.735   2.095  0.00  0.00    +0.000 OA
ATOM     22  H   UNL     1      12.455  -4.454   4.209  0.00  0.00    +0.000 HD
ATOM     23  H   UNL     1      12.577  -5.886   3.253  0.00  0.00    +0.000 HD
ENDBRANCH  17  19
ENDBRANCH   2  13
TORSDOF 5
