REMARK  Name = 
REMARK  9 active torsions:
REMARK  status: ('A' for Active; 'I' for Inactive)
REMARK    1  A    between atoms: C_1  and  C_2
REMARK    2  A    between atoms: C_2  and  C_3
REMARK    3  A    between atoms: C_2  and  C_4
REMARK    4  A    between atoms: C_2  and  C_5
REMARK    5  A    between atoms: N_7  and  C_8
REMARK    6  A    between atoms: C_8  and  C_9
REMARK    7  A    between atoms: C_12  and  C_13
REMARK    8  A    between atoms: C_13  and  C_14
REMARK    9  A    between atoms: C_14  and  N_15
REMARK                            x       y       z     vdW  Elec       q    Type
REMARK                         _______ _______ _______ _____ _____    ______ ____
ROOT
ATOM      1  C   UNL     1       3.012   0.486   1.308  0.00  0.00    +0.000 A 
ATOM      2  N   UNL     1       2.940   1.773   1.685  0.00  0.00    +0.000 NA
ATOM      3  N   UNL     1       3.419   1.787   2.946  0.00  0.00    +0.000 N 
ATOM      4  C   UNL     1       3.770   0.546   3.420  0.00  0.00    +0.000 A 
ATOM      5  C   UNL     1       4.267   0.122   4.660  0.00  0.00    +0.000 A 
ATOM      6  C   UNL     1       4.546  -1.239   4.820  0.00  0.00    +0.000 A 
ATOM      7  C   UNL     1       4.335  -2.131   3.775  0.00  0.00    +0.000 A 
ATOM      8  C   UNL     1       3.839  -1.698   2.546  0.00  0.00    +0.000 A 
ATOM      9  C   UNL     1       3.543  -0.330   2.357  0.00  0.00    +0.000 A 
ENDROOT
BRANCH   1  11
ATOM     10  C   UNL     1       1.994   1.299  -0.876  0.00  0.00    +0.000 C 
ATOM     11  C   UNL     1       2.526   0.076  -0.085  0.00  0.00    +0.000 C 
ATOM     12  C   UNL     1       1.373  -0.944   0.004  0.00  0.00    +0.000 C 
ATOM     13  C   UNL     1       3.668  -0.548  -0.916  0.00  0.00    +0.000 C 
ENDBRANCH   1  11
BRANCH   3  14
ATOM     14  C   UNL     1       3.465   3.054   3.677  0.00  0.00    +0.000 C 
BRANCH  14  15
ATOM     15  C   UNL     1       4.772   3.758   3.451  0.00  0.00    +0.000 A 
ATOM     16  C   UNL     1       4.935   4.676   2.413  0.00  0.00    +0.000 A 
ATOM     17  C   UNL     1       6.203   5.175   2.121  0.00  0.00    +0.000 A 
ATOM     18  C   UNL     1       7.286   4.743   2.882  0.00  0.00    +0.000 A 
ATOM     19  N   UNL     1       7.138   3.918   3.945  0.00  0.00    +0.000 NA
ATOM     20  C   UNL     1       5.897   3.451   4.206  0.00  0.00    +0.000 A 
BRANCH  18  21
ATOM     21  C   UNL     1       8.698   5.084   2.476  0.00  0.00    +0.000 C 
BRANCH  21  22
ATOM     22  C   UNL     1       9.270   3.992   1.560  0.00  0.00    +0.000 C 
BRANCH  22  23
ATOM     23  N   UNL     1      10.642   4.294   1.144  0.00  0.00    +0.000 NA
ATOM     24  H   UNL     1      10.656   5.146   0.586  0.00  0.00    +0.000 HD
ATOM     25  H   UNL     1      10.976   3.547   0.537  0.00  0.00    +0.000 HD
ENDBRANCH  22  23
ENDBRANCH  21  22
ENDBRANCH  18  21
ENDBRANCH  14  15
ENDBRANCH   3  14
TORSDOF 6
