REMARK  Name = 
REMARK  6 active torsions:
REMARK  status: ('A' for Active; 'I' for Inactive)
REMARK    1  A    between atoms: C_2  and  C_25
REMARK    2  A    between atoms: N_3  and  C_4
REMARK    3  A    between atoms: C_4  and  C_5
REMARK    4  A    between atoms: C_8  and  C_9
REMARK    5  A    between atoms: C_9  and  N_10
REMARK    6  A    between atoms: C_11  and  C_13
REMARK                            x       y       z     vdW  Elec       q    Type
REMARK                         _______ _______ _______ _____ _____    ______ ____
ROOT
ATOM      1  C   UNL     1       3.392  -0.753   3.473  0.00  0.00    +0.000 C 
ATOM      2  C   UNL     1       3.062  -2.095   4.149  0.00  0.00    +0.000 C 
ATOM      3  C   UNL     1       3.845  -2.312   5.445  0.00  0.00    +0.000 C 
ATOM      4  C   UNL     1       3.689  -1.152   6.444  0.00  0.00    +0.000 C 
ATOM      5  C   UNL     1       4.064   0.168   5.753  0.00  0.00    +0.000 C 
ATOM      6  C   UNL     1       3.252   0.405   4.477  0.00  0.00    +0.000 C 
ENDROOT
BRANCH   1   7
ATOM      7  C   UNL     1       4.798  -0.737   2.843  0.00  0.00    +0.000 C 
BRANCH   7  10
ATOM      8  O   UNL     1       4.222  -0.335   0.135  0.00  0.00    +0.000 OA
ATOM      9  C   UNL     1       4.650  -1.436   0.477  0.00  0.00    +0.000 C 
ATOM     10  N   UNL     1       4.953  -1.717   1.792  0.00  0.00    +0.000 N 
ATOM     11  H   UNL     1       5.275  -2.647   2.029  0.00  0.00    +0.000 HD
BRANCH   9  12
ATOM     12  C   UNL     1       4.878  -2.506  -0.468  0.00  0.00    +0.000 A 
ATOM     13  C   UNL     1       4.730  -2.437  -1.842  0.00  0.00    +0.000 A 
ATOM     14  N   UNL     1       4.996  -3.600  -2.540  0.00  0.00    +0.000 NA
ATOM     15  C   UNL     1       5.349  -4.538  -1.689  0.00  0.00    +0.000 A 
ATOM     16  S   UNL     1       5.382  -4.086  -0.035  0.00  0.00    +0.000 S 
ENDBRANCH   9  12
ENDBRANCH   7  10
ENDBRANCH   1   7
BRANCH   4  17
ATOM     17  C   UNL     1       2.275  -1.073   7.052  0.00  0.00    +0.000 C 
BRANCH  17  18
ATOM     18  N   UNL     1       1.941  -2.254   7.819  0.00  0.00    +0.000 N 
ATOM     19  C   UNL     1       2.109  -2.322   9.179  0.00  0.00    +0.000 C 
ATOM     20  O   UNL     1       2.549  -1.380   9.832  0.00  0.00    +0.000 OA
ATOM     21  H   UNL     1       1.707  -3.097   7.303  0.00  0.00    +0.000 HD
BRANCH  19  22
ATOM     22  C   UNL     1       1.681  -3.565   9.830  0.00  0.00    +0.000 A 
ATOM     23  C   UNL     1       1.322  -3.539  11.171  0.00  0.00    +0.000 A 
ATOM     24  S   UNL     1       0.865  -5.060  11.789  0.00  0.00    +0.000 S 
ATOM     25  C   UNL     1       1.168  -5.817  10.296  0.00  0.00    +0.000 A 
ATOM     26  N   UNL     1       1.015  -7.161  10.152  0.00  0.00    +0.000 NA
ATOM     27  C   UNL     1       1.312  -7.609   8.980  0.00  0.00    +0.000 A 
ATOM     28  N   UNL     1       1.733  -6.833   7.931  0.00  0.00    +0.000 N 
ATOM     29  C   UNL     1       1.821  -5.464   8.009  0.00  0.00    +0.000 A 
ATOM     30  O   UNL     1       2.055  -4.787   7.013  0.00  0.00    +0.000 OA
ATOM     31  C   UNL     1       1.566  -4.914   9.325  0.00  0.00    +0.000 A 
ATOM     32  H   UNL     1       1.909  -7.243   7.026  0.00  0.00    +0.000 HD
ENDBRANCH  19  22
ENDBRANCH  17  18
ENDBRANCH   4  17
TORSDOF 6
