REMARK  Name = 
REMARK  7 active torsions:
REMARK  status: ('A' for Active; 'I' for Inactive)
REMARK    1  A    between atoms: C_1  and  N_2
REMARK    2  A    between atoms: N_2  and  C_3
REMARK    3  A    between atoms: C_3  and  C_4
REMARK    4  A    between atoms: C_7  and  C_8
REMARK    5  A    between atoms: C_8  and  N_9
REMARK    6  A    between atoms: C_10  and  C_12
REMARK    7  A    between atoms: C_19  and  C_21
REMARK                            x       y       z     vdW  Elec       q    Type
REMARK                         _______ _______ _______ _____ _____    ______ ____
ROOT
ATOM      1  C   UNL     1       2.163  -1.908   1.747  0.00  0.00    +0.000 A 
ATOM      2  C   UNL     1       2.435  -3.252   1.522  0.00  0.00    +0.000 A 
ATOM      3  C   UNL     1       1.600  -4.207   2.098  0.00  0.00    +0.000 A 
ATOM      4  C   UNL     1       0.511  -3.802   2.874  0.00  0.00    +0.000 A 
ATOM      5  C   UNL     1       0.337  -2.438   3.068  0.00  0.00    +0.000 A 
ATOM      6  N   UNL     1       1.135  -1.492   2.528  0.00  0.00    +0.000 NA
ENDROOT
BRANCH   1   7
ATOM      7  C   UNL     1       3.015  -0.835   1.112  0.00  0.00    +0.000 C 
BRANCH   7   9
ATOM      8  C   UNL     1       4.488  -0.931   3.161  0.00  0.00    +0.000 C 
ATOM      9  N   UNL     1       4.241  -0.433   1.816  0.00  0.00    +0.000 N 
ATOM     10  C   UNL     1       5.316   0.204   1.176  0.00  0.00    +0.000 C 
ATOM     11  O   UNL     1       6.414   0.299   1.718  0.00  0.00    +0.000 OA
BRANCH  10  12
ATOM     12  C   UNL     1       5.104   0.791  -0.155  0.00  0.00    +0.000 A 
ATOM     13  C   UNL     1       3.991   1.537  -0.509  0.00  0.00    +0.000 A 
ATOM     14  S   UNL     1       4.046   2.133  -2.106  0.00  0.00    +0.000 S 
ATOM     15  C   UNL     1       5.618   1.526  -2.332  0.00  0.00    +0.000 A 
ATOM     16  N   UNL     1       6.301   1.772  -3.482  0.00  0.00    +0.000 NA
ATOM     17  C   UNL     1       7.501   1.296  -3.493  0.00  0.00    +0.000 A 
ATOM     18  N   UNL     1       8.065   0.568  -2.475  0.00  0.00    +0.000 N 
ATOM     19  C   UNL     1       7.370   0.190  -1.348  0.00  0.00    +0.000 A 
ATOM     20  O   UNL     1       7.827  -0.644  -0.575  0.00  0.00    +0.000 OA
ATOM     21  C   UNL     1       6.056   0.801  -1.239  0.00  0.00    +0.000 A 
ATOM     22  H   UNL     1       8.987   0.168  -2.579  0.00  0.00    +0.000 HD
ENDBRANCH  10  12
ENDBRANCH   7   9
ENDBRANCH   1   7
BRANCH   4  23
ATOM     23  C   UNL     1      -0.444  -4.783   3.484  0.00  0.00    +0.000 C 
BRANCH  23  24
ATOM     24  N   UNL     1      -0.011  -5.223   4.786  0.00  0.00    +0.000 N 
ATOM     25  C   UNL     1      -0.794  -6.061   5.544  0.00  0.00    +0.000 C 
ATOM     26  O   UNL     1      -1.889  -6.455   5.165  0.00  0.00    +0.000 OA
ATOM     27  H   UNL     1       0.914  -4.976   5.097  0.00  0.00    +0.000 HD
BRANCH  25  28
ATOM     28  C   UNL     1      -0.232  -6.448   6.807  0.00  0.00    +0.000 A 
ATOM     29  C   UNL     1       0.943  -6.123   7.461  0.00  0.00    +0.000 A 
ATOM     30  C   UNL     1       0.908  -6.849   8.666  0.00  0.00    +0.000 A 
ATOM     31  N   UNL     1      -0.201  -7.578   8.786  0.00  0.00    +0.000 NA
ATOM     32  N   UNL     1      -0.879  -7.312   7.655  0.00  0.00    +0.000 N 
ATOM     33  H   UNL     1      -1.783  -7.750   7.509  0.00  0.00    +0.000 HD
ENDBRANCH  25  28
ENDBRANCH  23  24
ENDBRANCH   4  23
TORSDOF 6
