REMARK  Name = 
REMARK  7 active torsions:
REMARK  status: ('A' for Active; 'I' for Inactive)
REMARK    1  A    between atoms: C_2  and  C_19
REMARK    2  A    between atoms: N_3  and  C_4
REMARK    3  A    between atoms: C_4  and  C_5
REMARK    4  A    between atoms: N_8  and  C_9
REMARK    5  A    between atoms: C_9  and  C_10
REMARK    6  A    between atoms: C_10  and  O_11
REMARK    7  A    between atoms: C_10  and  C_12
REMARK                            x       y       z     vdW  Elec       q    Type
REMARK                         _______ _______ _______ _____ _____    ______ ____
ROOT
ATOM      1  C   UNL     1       2.353   0.045   2.586  0.00  0.00    +0.000 C 
ENDROOT
BRANCH   1   2
ATOM      2  C   UNL     1       3.306   0.105   3.738  0.00  0.00    +0.000 A 
ATOM      3  C   UNL     1       3.797   1.275   4.359  0.00  0.00    +0.000 A 
ATOM      4  C   UNL     1       4.631   0.851   5.357  0.00  0.00    +0.000 A 
ATOM      5  N   UNL     1       4.602  -0.506   5.311  0.00  0.00    +0.000 N 
ATOM      6  N   UNL     1       3.776  -0.966   4.362  0.00  0.00    +0.000 NA
BRANCH   5   7
ATOM      7  C   UNL     1       5.367  -1.389   6.160  0.00  0.00    +0.000 C 
BRANCH   7   8
ATOM      8  C   UNL     1       6.732  -1.735   5.561  0.00  0.00    +0.000 C 
BRANCH   8   9
ATOM      9  C   UNL     1       7.497  -2.691   6.443  0.00  0.00    +0.000 A 
ATOM     10  N   UNL     1       7.867  -3.899   5.957  0.00  0.00    +0.000 NA
ATOM     11  C   UNL     1       8.601  -4.656   6.786  0.00  0.00    +0.000 A 
ATOM     12  C   UNL     1       8.935  -4.283   8.064  0.00  0.00    +0.000 A 
ATOM     13  C   UNL     1       8.460  -3.070   8.478  0.00  0.00    +0.000 A 
ATOM     14  N   UNL     1       7.742  -2.262   7.693  0.00  0.00    +0.000 NA
ENDBRANCH   8   9
BRANCH   8  15
ATOM     15  O   UNL     1       7.523  -0.553   5.359  0.00  0.00    +0.000 OA
ATOM     16  H   UNL     1       7.595  -0.097   6.208  0.00  0.00    +0.000 HD
ENDBRANCH   8  15
ENDBRANCH   7   8
ENDBRANCH   5   7
ENDBRANCH   1   2
BRANCH   1  19
ATOM     17  O   UNL     1       1.402   1.079   0.136  0.00  0.00    +0.000 OA
ATOM     18  C   UNL     1       2.467   0.579   0.171  0.00  0.00    +0.000 C 
ATOM     19  N   UNL     1       3.034   0.042   1.305  0.00  0.00    +0.000 N 
ATOM     20  H   UNL     1       3.892  -0.497   1.231  0.00  0.00    +0.000 HD
BRANCH  18  21
ATOM     21  C   UNL     1       3.314   0.652  -1.076  0.00  0.00    +0.000 A 
ATOM     22  C   UNL     1       2.754   1.314  -2.177  0.00  0.00    +0.000 A 
ATOM     23  S   UNL     1       3.715   1.369  -3.579  0.00  0.00    +0.000 S 
ATOM     24  C   UNL     1       5.051   0.606  -2.899  0.00  0.00    +0.000 A 
ATOM     25  N   UNL     1       6.376   0.238  -3.443  0.00  0.00    +0.000 NA
ATOM     26  C   UNL     1       6.634  -0.556  -2.523  0.00  0.00    +0.000 A 
ATOM     27  N   UNL     1       6.959  -1.397  -1.648  0.00  0.00    +0.000 N 
ATOM     28  C   UNL     1       5.809  -0.896  -0.698  0.00  0.00    +0.000 A 
ATOM     29  O   UNL     1       5.629  -1.111   0.509  0.00  0.00    +0.000 OA
ATOM     30  C   UNL     1       4.620   0.080  -1.531  0.00  0.00    +0.000 A 
ATOM     31  H   UNL     1       7.921  -1.215  -2.074  0.00  0.00    +0.000 HD
ENDBRANCH  18  21
ENDBRANCH   1  19
TORSDOF 7
