REMARK  Name = 
REMARK  9 active torsions:
REMARK  status: ('A' for Active; 'I' for Inactive)
REMARK    1  A    between atoms: C_1  and  O_2
REMARK    2  A    between atoms: O_2  and  C_3
REMARK    3  A    between atoms: C_3  and  C_4
REMARK    4  A    between atoms: C_4  and  N_5
REMARK    5  A    between atoms: C_4  and  C_6
REMARK    6  A    between atoms: C_9  and  C_10
REMARK    7  A    between atoms: C_10  and  O_11
REMARK    8  A    between atoms: O_11  and  C_12
REMARK    9  A    between atoms: C_16  and  C_17
REMARK                            x       y       z     vdW  Elec       q    Type
REMARK                         _______ _______ _______ _____ _____    ______ ____
ROOT
ATOM      1  C   UNL     1       4.781  -2.345  -1.610  0.00  0.00    +0.000 A 
ATOM      2  C   UNL     1       4.478  -3.643  -1.222  0.00  0.00    +0.000 A 
ATOM      3  N   UNL     1       4.762  -4.731  -1.981  0.00  0.00    +0.000 NA
ATOM      4  C   UNL     1       5.352  -4.481  -3.180  0.00  0.00    +0.000 A 
ATOM      5  C   UNL     1       5.674  -3.185  -3.561  0.00  0.00    +0.000 A 
ATOM      6  N   UNL     1       5.404  -2.101  -2.796  0.00  0.00    +0.000 NA
ENDROOT
BRANCH   1   7
ATOM      7  C   UNL     1       4.371  -1.166  -0.744  0.00  0.00    +0.000 C 
BRANCH   7   8
ATOM      8  N   UNL     1       2.992  -0.716  -1.039  0.00  0.00    +0.000 NA
ATOM      9  H   UNL     1       2.970  -0.367  -1.999  0.00  0.00    +0.000 HD
ATOM     10  H   UNL     1       2.822   0.109  -0.460  0.00  0.00    +0.000 HD
ENDBRANCH   7   8
BRANCH   7  11
ATOM     11  C   UNL     1       5.390  -0.015  -0.908  0.00  0.00    +0.000 C 
BRANCH  11  13
ATOM     12  C   UNL     1       6.027   2.121  -0.172  0.00  0.00    +0.000 C 
ATOM     13  O   UNL     1       5.083   1.065  -0.015  0.00  0.00    +0.000 OA
ENDBRANCH  11  13
ENDBRANCH   7  11
ENDBRANCH   1   7
BRANCH   4  14
ATOM     14  C   UNL     1       5.647  -5.643  -4.093  0.00  0.00    +0.000 C 
BRANCH  14  15
ATOM     15  O   UNL     1       4.530  -5.876  -4.956  0.00  0.00    +0.000 OA
BRANCH  15  16
ATOM     16  C   UNL     1       4.623  -6.930  -5.826  0.00  0.00    +0.000 A 
ATOM     17  C   UNL     1       5.723  -7.765  -5.984  0.00  0.00    +0.000 A 
ATOM     18  C   UNL     1       5.645  -8.799  -6.909  0.00  0.00    +0.000 A 
ATOM     19  N   UNL     1       4.566  -9.044  -7.679  0.00  0.00    +0.000 NA
ATOM     20  C   UNL     1       3.501  -8.210  -7.502  0.00  0.00    +0.000 A 
ATOM     21  C   UNL     1       3.487  -7.156  -6.600  0.00  0.00    +0.000 A 
BRANCH  20  22
ATOM     22  C   UNL     1       2.294  -8.481  -8.344  0.00  0.00    +0.000 C 
ATOM     23  N   UNL     1       2.395  -9.538  -9.208  0.00  0.00    +0.000 N 
ATOM     24  O   UNL     1       1.270  -7.806  -8.276  0.00  0.00    +0.000 OA
ATOM     25  H   UNL     1       3.249 -10.082  -9.236  0.00  0.00    +0.000 HD
ATOM     26  H   UNL     1       1.614  -9.773  -9.798  0.00  0.00    +0.000 HD
ENDBRANCH  20  22
ENDBRANCH  15  16
ENDBRANCH  14  15
ENDBRANCH   4  14
TORSDOF 8
