REMARK  Name = 
REMARK  6 active torsions:
REMARK  status: ('A' for Active; 'I' for Inactive)
REMARK    1  A    between atoms: C_2  and  C_4
REMARK    2  A    between atoms: N_8  and  C_9
REMARK    3  A    between atoms: C_9  and  C_10
REMARK    4  A    between atoms: C_10  and  C_13
REMARK    5  A    between atoms: C_18  and  O_19
REMARK    6  A    between atoms: O_19  and  C_20
REMARK                            x       y       z     vdW  Elec       q    Type
REMARK                         _______ _______ _______ _____ _____    ______ ____
ROOT
ATOM      1  C   UNL     1       6.083   0.743  -7.066  0.00  0.00    +0.000 C 
ATOM      2  F   UNL     1       7.332   0.973  -6.561  0.00  0.00    +0.000 F 
ATOM      3  F   UNL     1       6.084  -0.567  -7.451  0.00  0.00    +0.000 F 
ENDROOT
BRANCH   1   4
ATOM      4  C   UNL     1       5.758   1.676  -8.222  0.00  0.00    +0.000 A 
ATOM      5  C   UNL     1       6.290   2.971  -8.264  0.00  0.00    +0.000 A 
ATOM      6  C   UNL     1       5.954   3.833  -9.315  0.00  0.00    +0.000 A 
ATOM      7  C   UNL     1       5.079   3.412 -10.322  0.00  0.00    +0.000 A 
ATOM      8  F   UNL     1       4.790   4.272 -11.309  0.00  0.00    +0.000 F 
ATOM      9  C   UNL     1       4.534   2.131 -10.295  0.00  0.00    +0.000 A 
ATOM     10  C   UNL     1       4.891   1.266  -9.251  0.00  0.00    +0.000 A 
BRANCH   9  11
ATOM     11  O   UNL     1       3.681   1.569 -11.212  0.00  0.00    +0.000 OA
BRANCH  11  12
ATOM     12  C   UNL     1       2.821   2.391 -12.023  0.00  0.00    +0.000 C 
ATOM     13  C   UNL     1       1.670   3.138 -11.330  0.00  0.00    +0.000 C 
ATOM     14  C   UNL     1       0.789   2.497 -12.395  0.00  0.00    +0.000 C 
ATOM     15  O   UNL     1       1.850   1.592 -12.768  0.00  0.00    +0.000 OA
ENDBRANCH  11  12
ENDBRANCH   9  11
ENDBRANCH   1   4
BRANCH   1  16
ATOM     16  C   UNL     1       5.055   0.929  -5.922  0.00  0.00    +0.000 C 
BRANCH  16  21
ATOM     17  C   UNL     1       2.909  -0.247  -1.407  0.00  0.00    +0.000 A 
ATOM     18  C   UNL     1       2.583   0.715  -2.355  0.00  0.00    +0.000 A 
ATOM     19  C   UNL     1       3.366   0.822  -3.503  0.00  0.00    +0.000 A 
ATOM     20  C   UNL     1       4.469  -0.008  -3.676  0.00  0.00    +0.000 A 
ATOM     21  N   UNL     1       5.272   0.044  -4.783  0.00  0.00    +0.000 N 
ATOM     22  N   UNL     1       4.803  -0.925  -2.748  0.00  0.00    +0.000 NA
ATOM     23  C   UNL     1       4.026  -1.031  -1.638  0.00  0.00    +0.000 A 
ATOM     24  H   UNL     1       6.103  -0.537  -4.734  0.00  0.00    +0.000 HD
BRANCH  17  26
ATOM     25  N   UNL     1       0.796  -0.107  -0.228  0.00  0.00    +0.000 N 
ATOM     26  C   UNL     1       2.121  -0.437  -0.175  0.00  0.00    +0.000 C 
ATOM     27  O   UNL     1       2.619  -0.897   0.845  0.00  0.00    +0.000 OA
ATOM     28  H   UNL     1       0.239  -0.338   0.578  0.00  0.00    +0.000 HD
ATOM     29  H   UNL     1       0.301   0.005  -1.117  0.00  0.00    +0.000 HD
ENDBRANCH  17  26
ENDBRANCH  16  21
ENDBRANCH   1  16
TORSDOF 6
