REMARK  Name = 
REMARK  7 active torsions:
REMARK  status: ('A' for Active; 'I' for Inactive)
REMARK    1  A    between atoms: C_2  and  C_3
REMARK    2  A    between atoms: C_3  and  N_4
REMARK    3  A    between atoms: C_3  and  C_18
REMARK    4  A    between atoms: C_5  and  C_7
REMARK    5  A    between atoms: C_21  and  O_22
REMARK    6  A    between atoms: O_22  and  C_23
REMARK    7  A    between atoms: C_23  and  C_24
REMARK                            x       y       z     vdW  Elec       q    Type
REMARK                         _______ _______ _______ _____ _____    ______ ____
ROOT
ATOM      1  N   UNL     1       2.208   0.156   0.141  0.00  0.00    +0.000 N 
ATOM      2  C   UNL     1       1.521  -0.306   1.228  0.00  0.00    +0.000 C 
ATOM      3  O   UNL     1       2.095  -0.696   2.240  0.00  0.00    +0.000 OA
ATOM      4  H   UNL     1       1.719   0.281  -0.740  0.00  0.00    +0.000 HD
ENDROOT
BRANCH   2   5
ATOM      5  C   UNL     1       0.061  -0.256   1.135  0.00  0.00    +0.000 A 
ATOM      6  C   UNL     1      -0.705  -0.147   2.286  0.00  0.00    +0.000 A 
ATOM      7  S   UNL     1      -2.383  -0.112   1.982  0.00  0.00    +0.000 S 
ATOM      8  C   UNL     1      -2.142  -0.308   0.309  0.00  0.00    +0.000 A 
ATOM      9  N   UNL     1      -3.193  -0.441  -0.544  0.00  0.00    +0.000 NA
ATOM     10  C   UNL     1      -2.876  -0.652  -1.785  0.00  0.00    +0.000 A 
ATOM     11  N   UNL     1      -3.840  -0.858  -2.714  0.00  0.00    +0.000 N 
ATOM     12  N   UNL     1      -1.581  -0.681  -2.232  0.00  0.00    +0.000 N 
ATOM     13  C   UNL     1      -0.487  -0.493  -1.425  0.00  0.00    +0.000 A 
ATOM     14  O   UNL     1       0.651  -0.422  -1.881  0.00  0.00    +0.000 OA
ATOM     15  C   UNL     1      -0.801  -0.337  -0.018  0.00  0.00    +0.000 A 
ATOM     16  H   UNL     1      -4.776  -0.621  -2.401  0.00  0.00    +0.000 HD
ATOM     17  H   UNL     1      -3.657  -0.668  -3.688  0.00  0.00    +0.000 HD
ATOM     18  H   UNL     1      -1.390  -0.833  -3.209  0.00  0.00    +0.000 HD
ENDBRANCH   2   5
BRANCH   1  19
ATOM     19  C   UNL     1       3.650   0.050   0.064  0.00  0.00    +0.000 C 
BRANCH  19  20
ATOM     20  C   UNL     1       4.158   1.138  -0.873  0.00  0.00    +0.000 A 
ATOM     21  C   UNL     1       4.509   2.400  -0.365  0.00  0.00    +0.000 A 
ATOM     22  C   UNL     1       5.015   3.391  -1.211  0.00  0.00    +0.000 A 
ATOM     23  C   UNL     1       5.180   3.134  -2.571  0.00  0.00    +0.000 A 
ATOM     24  C   UNL     1       4.736   1.924  -3.101  0.00  0.00    +0.000 A 
ATOM     25  C   UNL     1       4.230   0.934  -2.261  0.00  0.00    +0.000 A 
BRANCH  23  26
ATOM     26  O   UNL     1       5.789   4.119  -3.301  0.00  0.00    +0.000 OA
BRANCH  26  27
ATOM     27  C   UNL     1       6.454   3.651  -4.481  0.00  0.00    +0.000 C 
BRANCH  27  28
ATOM     28  C   UNL     1       7.517   4.627  -4.903  0.00  0.00    +0.000 A 
ATOM     29  C   UNL     1       8.537   4.976  -4.022  0.00  0.00    +0.000 A 
ATOM     30  N   UNL     1       9.553   5.802  -4.365  0.00  0.00    +0.000 NA
ATOM     31  C   UNL     1       9.510   6.270  -5.632  0.00  0.00    +0.000 A 
ATOM     32  C   UNL     1       8.504   5.925  -6.518  0.00  0.00    +0.000 A 
ATOM     33  N   UNL     1       7.493   5.094  -6.179  0.00  0.00    +0.000 NA
ENDBRANCH  27  28
ENDBRANCH  26  27
ENDBRANCH  23  26
ENDBRANCH  19  20
BRANCH  19  35
ATOM     34  N   UNL     1       4.390  -2.369  -0.725  0.00  0.00    +0.000 NA
ATOM     35  C   UNL     1       4.071  -1.314  -0.351  0.00  0.00    +0.000 C 
ENDBRANCH  19  35
ENDBRANCH   1  19
TORSDOF 7
