REMARK  Name = 
REMARK  10 active torsions:
REMARK  status: ('A' for Active; 'I' for Inactive)
REMARK    1  A    between atoms: N_1  and  C_2
REMARK    2  A    between atoms: C_2  and  C_3
REMARK    3  A    between atoms: C_3  and  N_4
REMARK    4  A    between atoms: N_4  and  C_5
REMARK    5  A    between atoms: C_5  and  C_6
REMARK    6  A    between atoms: C_9  and  C_10
REMARK    7  A    between atoms: C_10  and  C_11
REMARK    8  A    between atoms: C_14  and  C_15
REMARK    9  A    between atoms: C_15  and  N_16
REMARK   10  A    between atoms: C_17  and  C_19
REMARK                            x       y       z     vdW  Elec       q    Type
REMARK                         _______ _______ _______ _____ _____    ______ ____
ROOT
ATOM      1  C   UNL     1      11.344  -1.021  -3.039  0.00  0.00    +0.000 A 
ATOM      2  C   UNL     1      11.112  -1.683  -4.237  0.00  0.00    +0.000 A 
ATOM      3  C   UNL     1      11.581  -2.983  -4.386  0.00  0.00    +0.000 A 
ATOM      4  C   UNL     1      12.249  -3.579  -3.326  0.00  0.00    +0.000 A 
ATOM      5  N   UNL     1      12.504  -2.892  -2.190  0.00  0.00    +0.000 NA
ATOM      6  N   UNL     1      12.044  -1.608  -2.043  0.00  0.00    +0.000 NA
ENDROOT
BRANCH   1   7
ATOM      7  C   UNL     1      10.770   0.346  -2.774  0.00  0.00    +0.000 C 
BRANCH   7  11
ATOM      8  C   UNL     1       7.012   0.168  -0.767  0.00  0.00    +0.000 A 
ATOM      9  C   UNL     1       7.020   0.159  -2.158  0.00  0.00    +0.000 A 
ATOM     10  C   UNL     1       8.238   0.225  -2.829  0.00  0.00    +0.000 A 
ATOM     11  C   UNL     1       9.425   0.305  -2.097  0.00  0.00    +0.000 A 
ATOM     12  C   UNL     1       9.323   0.291  -0.710  0.00  0.00    +0.000 A 
ATOM     13  N   UNL     1       8.153   0.231  -0.034  0.00  0.00    +0.000 NA
BRANCH   8  14
ATOM     14  C   UNL     1       5.706  -0.012  -0.018  0.00  0.00    +0.000 C 
BRANCH  14  15
ATOM     15  N   UNL     1       5.057  -1.321  -0.239  0.00  0.00    +0.000 NA
ATOM     16  H   UNL     1       4.264  -1.361   0.408  0.00  0.00    +0.000 HD
BRANCH  15  17
ATOM     17  C   UNL     1       5.936  -2.444   0.144  0.00  0.00    +0.000 C 
BRANCH  17  18
ATOM     18  C   UNL     1       6.246  -2.507   1.651  0.00  0.00    +0.000 C 
BRANCH  18  19
ATOM     19  N   UNL     1       5.010  -2.515   2.445  0.00  0.00    +0.000 NA
ATOM     20  H   UNL     1       5.258  -2.548   3.433  0.00  0.00    +0.000 HD
ATOM     21  H   UNL     1       4.507  -3.381   2.254  0.00  0.00    +0.000 HD
ENDBRANCH  18  19
ENDBRANCH  17  18
ENDBRANCH  15  17
ENDBRANCH  14  15
ENDBRANCH   8  14
ENDBRANCH   7  11
ENDBRANCH   1   7
BRANCH   4  22
ATOM     22  C   UNL     1      12.741  -4.999  -3.415  0.00  0.00    +0.000 C 
BRANCH  22  23
ATOM     23  N   UNL     1      14.082  -5.056  -3.948  0.00  0.00    +0.000 N 
ATOM     24  C   UNL     1      14.534  -6.102  -4.703  0.00  0.00    +0.000 C 
ATOM     25  O   UNL     1      13.803  -7.029  -5.044  0.00  0.00    +0.000 OA
ATOM     26  H   UNL     1      14.756  -4.453  -3.482  0.00  0.00    +0.000 HD
BRANCH  24  27
ATOM     27  C   UNL     1      15.929  -6.017  -5.155  0.00  0.00    +0.000 A 
ATOM     28  C   UNL     1      16.335  -6.709  -6.288  0.00  0.00    +0.000 A 
ATOM     29  S   UNL     1      17.959  -6.418  -6.720  0.00  0.00    +0.000 S 
ATOM     30  C   UNL     1      18.195  -5.405  -5.373  0.00  0.00    +0.000 A 
ATOM     31  N   UNL     1      19.399  -4.818  -5.137  0.00  0.00    +0.000 NA
ATOM     32  C   UNL     1      19.442  -4.105  -4.060  0.00  0.00    +0.000 A 
ATOM     33  N   UNL     1      18.394  -3.923  -3.200  0.00  0.00    +0.000 N 
ATOM     34  C   UNL     1      17.154  -4.475  -3.412  0.00  0.00    +0.000 A 
ATOM     35  O   UNL     1      16.222  -4.267  -2.642  0.00  0.00    +0.000 OA
ATOM     36  C   UNL     1      17.049  -5.286  -4.609  0.00  0.00    +0.000 A 
ATOM     37  H   UNL     1      18.489  -3.353  -2.373  0.00  0.00    +0.000 HD
ENDBRANCH  24  27
ENDBRANCH  22  23
ENDBRANCH   4  22
TORSDOF 10
