REMARK  Name = 
REMARK  11 active torsions:
REMARK  status: ('A' for Active; 'I' for Inactive)
REMARK    1  A    between atoms: C_1  and  O_2
REMARK    2  A    between atoms: O_2  and  C_3
REMARK    3  A    between atoms: C_5  and  C_6
REMARK    4  A    between atoms: C_11  and  C_12
REMARK    5  A    between atoms: N_14  and  C_15
REMARK    6  A    between atoms: C_15  and  C_16
REMARK    7  A    between atoms: C_19  and  C_20
REMARK    8  A    between atoms: C_20  and  N_21
REMARK    9  A    between atoms: N_21  and  C_22
REMARK   10  A    between atoms: C_22  and  C_23
REMARK   11  A    between atoms: C_26  and  C_27
REMARK                            x       y       z     vdW  Elec       q    Type
REMARK                         _______ _______ _______ _____ _____    ______ ____
ROOT
ATOM      1  C   UNL     1       5.934  -4.492   3.214  0.00  0.00    +0.000 A 
ATOM      2  C   UNL     1       5.579  -5.842   3.105  0.00  0.00    +0.000 A 
ATOM      3  C   UNL     1       6.423  -6.841   3.600  0.00  0.00    +0.000 A 
ATOM      4  C   UNL     1       7.640  -6.513   4.211  0.00  0.00    +0.000 A 
ATOM      5  C   UNL     1       7.985  -5.161   4.330  0.00  0.00    +0.000 A 
ATOM      6  C   UNL     1       7.139  -4.161   3.845  0.00  0.00    +0.000 A 
ENDROOT
BRANCH   1   7
ATOM      7  C   UNL     1       5.018  -3.415   2.698  0.00  0.00    +0.000 C 
BRANCH   7  10
ATOM      8  C   UNL     1       3.180  -1.993   3.468  0.00  0.00    +0.000 C 
ATOM      9  O   UNL     1       3.138  -1.394   2.396  0.00  0.00    +0.000 OA
ATOM     10  N   UNL     1       4.121  -2.954   3.728  0.00  0.00    +0.000 N 
ATOM     11  H   UNL     1       4.060  -3.500   4.579  0.00  0.00    +0.000 HD
BRANCH   8  20
ATOM     12  C   UNL     1       1.922  -3.859   6.000  0.00  0.00    +0.000 A 
ATOM     13  N   UNL     1       1.289  -4.372   7.073  0.00  0.00    +0.000 NA
ATOM     14  C   UNL     1       0.468  -3.576   7.777  0.00  0.00    +0.000 A 
ATOM     15  C   UNL     1      -0.205  -4.173   8.974  0.00  0.00    +0.000 C 
ATOM     16  N   UNL     1       0.205  -2.293   7.512  0.00  0.00    +0.000 NA
ATOM     17  C   UNL     1       0.859  -1.822   6.438  0.00  0.00    +0.000 A 
ATOM     18  S   UNL     1       0.632  -0.210   5.945  0.00  0.00    +0.000 S 
ATOM     19  C   UNL     1       1.690  -0.409   4.628  0.00  0.00    +0.000 A 
ATOM     20  C   UNL     1       2.250  -1.677   4.557  0.00  0.00    +0.000 A 
ATOM     21  C   UNL     1       1.745  -2.520   5.629  0.00  0.00    +0.000 A 
BRANCH  12  23
ATOM     22  C   UNL     1       2.559  -6.057   5.502  0.00  0.00    +0.000 C 
ATOM     23  O   UNL     1       2.793  -4.666   5.296  0.00  0.00    +0.000 OA
ENDBRANCH  12  23
ENDBRANCH   8  20
ENDBRANCH   7  10
ENDBRANCH   1   7
BRANCH   4  24
ATOM     24  C   UNL     1       8.552  -7.592   4.747  0.00  0.00    +0.000 C 
BRANCH  24  25
ATOM     25  N   UNL     1       8.939  -8.530   3.698  0.00  0.00    +0.000 NA
ATOM     26  H   UNL     1       9.412  -8.027   2.944  0.00  0.00    +0.000 HD
BRANCH  25  27
ATOM     27  C   UNL     1       9.873  -9.542   4.209  0.00  0.00    +0.000 C 
BRANCH  27  28
ATOM     28  C   UNL     1      10.297 -10.510   3.125  0.00  0.00    +0.000 A 
ATOM     29  N   UNL     1      10.966 -10.002   2.050  0.00  0.00    +0.000 NA
ATOM     30  C   UNL     1      11.327 -10.876   1.079  0.00  0.00    +0.000 A 
ATOM     31  C   UNL     1      11.068 -12.243   1.118  0.00  0.00    +0.000 A 
ATOM     32  C   UNL     1      11.485 -13.158   0.012  0.00  0.00    +0.000 C 
ATOM     33  C   UNL     1      10.398 -12.739   2.237  0.00  0.00    +0.000 A 
ATOM     34  C   UNL     1      10.010 -11.866   3.245  0.00  0.00    +0.000 A 
ATOM     35  F   UNL     1       9.371 -12.349   4.320  0.00  0.00    +0.000 F 
ENDBRANCH  27  28
ENDBRANCH  25  27
ENDBRANCH  24  25
ENDBRANCH   4  24
TORSDOF 8
