REMARK  Name = 
REMARK  9 active torsions:
REMARK  status: ('A' for Active; 'I' for Inactive)
REMARK    1  A    between atoms: C_1  and  C_2
REMARK    2  A    between atoms: C_2  and  C_3
REMARK    3  A    between atoms: C_2  and  N_4
REMARK    4  A    between atoms: N_4  and  C_5
REMARK    5  A    between atoms: C_5  and  C_6
REMARK    6  A    between atoms: C_10  and  C_11
REMARK    7  A    between atoms: C_11  and  O_12
REMARK    8  A    between atoms: O_12  and  C_13
REMARK    9  A    between atoms: C_15  and  C_16
REMARK                            x       y       z     vdW  Elec       q    Type
REMARK                         _______ _______ _______ _____ _____    ______ ____
ROOT
ATOM      1  C   UNL     1       4.481  -5.841  -1.917  0.00  0.00    +0.000 C 
ENDROOT
BRANCH   1   6
ATOM      2  C   UNL     1       4.960  -2.190  -1.736  0.00  0.00    +0.000 A 
ATOM      3  C   UNL     1       5.680  -1.913  -2.882  0.00  0.00    +0.000 A 
ATOM      4  C   UNL     1       6.002  -2.991  -3.670  0.00  0.00    +0.000 A 
ATOM      5  N   UNL     1       5.658  -4.258  -3.378  0.00  0.00    +0.000 NA
ATOM      6  C   UNL     1       4.959  -4.443  -2.239  0.00  0.00    +0.000 A 
ATOM      7  N   UNL     1       4.597  -3.448  -1.399  0.00  0.00    +0.000 NA
BRANCH   2   8
ATOM      8  C   UNL     1       4.482  -1.064  -0.844  0.00  0.00    +0.000 C 
BRANCH   8   9
ATOM      9  N   UNL     1       3.557  -0.121  -1.500  0.00  0.00    +0.000 NA
ATOM     10  H   UNL     1       3.320   0.608  -0.828  0.00  0.00    +0.000 HD
BRANCH   9  12
ATOM     11  C   UNL     1       1.464  -1.346  -0.867  0.00  0.00    +0.000 C 
ATOM     12  C   UNL     1       2.316  -0.747  -1.987  0.00  0.00    +0.000 C 
ATOM     13  C   UNL     1       1.507   0.320  -2.732  0.00  0.00    +0.000 C 
ENDBRANCH   9  12
ENDBRANCH   8   9
ENDBRANCH   2   8
ENDBRANCH   1   6
BRANCH   1  14
ATOM     14  O   UNL     1       5.458  -6.553  -1.147  0.00  0.00    +0.000 OA
BRANCH  14  15
ATOM     15  C   UNL     1       5.001  -7.798  -0.764  0.00  0.00    +0.000 A 
ATOM     16  C   UNL     1       5.860  -8.590  -0.027  0.00  0.00    +0.000 A 
ATOM     17  C   UNL     1       5.410  -9.849   0.387  0.00  0.00    +0.000 A 
ATOM     18  C   UNL     1       4.121 -10.256   0.046  0.00  0.00    +0.000 A 
ATOM     19  C   UNL     1       3.341  -9.391  -0.697  0.00  0.00    +0.000 A 
ATOM     20  N   UNL     1       3.752  -8.178  -1.109  0.00  0.00    +0.000 NA
BRANCH  17  21
ATOM     21  C   UNL     1       6.338 -10.698   1.184  0.00  0.00    +0.000 C 
ATOM     22  N   UNL     1       5.911 -11.929   1.601  0.00  0.00    +0.000 N 
ATOM     23  O   UNL     1       7.467 -10.316   1.469  0.00  0.00    +0.000 OA
ATOM     24  H   UNL     1       5.008 -12.335   1.422  0.00  0.00    +0.000 HD
ATOM     25  H   UNL     1       6.571 -12.475   2.140  0.00  0.00    +0.000 HD
ENDBRANCH  17  21
ENDBRANCH  14  15
ENDBRANCH   1  14
TORSDOF 7
