REMARK  Name = 
REMARK  4 active torsions:
REMARK  status: ('A' for Active; 'I' for Inactive)
REMARK    1  A    between atoms: C_2  and  C_4
REMARK    2  A    between atoms: N_8  and  C_9
REMARK    3  A    between atoms: C_9  and  C_10
REMARK    4  A    between atoms: C_14  and  C_15
REMARK                            x       y       z     vdW  Elec       q    Type
REMARK                         _______ _______ _______ _____ _____    ______ ____
ROOT
ATOM      1  C   UNL     1       5.134  -3.852  -4.482  0.00  0.00    +0.000 C 
ENDROOT
BRANCH   1   6
ATOM      2  C   UNL     1       1.475  -3.260  -8.086  0.00  0.00    +0.000 A 
ATOM      3  C   UNL     1       1.655  -4.268  -7.147  0.00  0.00    +0.000 A 
ATOM      4  C   UNL     1       2.750  -4.205  -6.285  0.00  0.00    +0.000 A 
ATOM      5  C   UNL     1       3.649  -3.149  -6.379  0.00  0.00    +0.000 A 
ATOM      6  N   UNL     1       4.702  -2.966  -5.532  0.00  0.00    +0.000 N 
ATOM      7  N   UNL     1       3.502  -2.188  -7.314  0.00  0.00    +0.000 NA
ATOM      8  C   UNL     1       2.434  -2.261  -8.149  0.00  0.00    +0.000 A 
ATOM      9  H   UNL     1       5.302  -2.199  -5.808  0.00  0.00    +0.000 HD
BRANCH   2  11
ATOM     10  N   UNL     1      -0.830  -3.833  -8.591  0.00  0.00    +0.000 N 
ATOM     11  C   UNL     1       0.317  -3.218  -9.006  0.00  0.00    +0.000 C 
ATOM     12  O   UNL     1       0.373  -2.623 -10.072  0.00  0.00    +0.000 OA
ATOM     13  H   UNL     1      -1.642  -3.702  -9.180  0.00  0.00    +0.000 HD
ATOM     14  H   UNL     1      -0.986  -4.105  -7.631  0.00  0.00    +0.000 HD
ENDBRANCH   2  11
ENDBRANCH   1   6
BRANCH   1  15
ATOM     15  C   UNL     1       6.027  -4.951  -5.001  0.00  0.00    +0.000 A 
ATOM     16  C   UNL     1       7.250  -4.652  -5.611  0.00  0.00    +0.000 A 
ATOM     17  C   UNL     1       8.084  -5.676  -6.050  0.00  0.00    +0.000 A 
ATOM     18  C   UNL     1       7.716  -7.011  -5.862  0.00  0.00    +0.000 A 
ATOM     19  C   UNL     1       6.517  -7.356  -5.214  0.00  0.00    +0.000 A 
ATOM     20  C   UNL     1       5.674  -6.300  -4.816  0.00  0.00    +0.000 A 
BRANCH  19  21
ATOM     21  C   UNL     1       6.193  -8.760  -4.865  0.00  0.00    +0.000 A 
ATOM     22  C   UNL     1       7.208  -9.660  -4.486  0.00  0.00    +0.000 A 
ATOM     23  C   UNL     1       6.902 -10.942  -4.034  0.00  0.00    +0.000 A 
ATOM     24  F   UNL     1       7.896 -11.758  -3.659  0.00  0.00    +0.000 F 
ATOM     25  C   UNL     1       5.591 -11.376  -3.939  0.00  0.00    +0.000 A 
ATOM     26  C   UNL     1       4.583 -10.513  -4.334  0.00  0.00    +0.000 A 
ATOM     27  F   UNL     1       3.307 -10.907  -4.239  0.00  0.00    +0.000 F 
ATOM     28  C   UNL     1       4.869  -9.229  -4.803  0.00  0.00    +0.000 A 
ENDBRANCH  19  21
ENDBRANCH   1  15
TORSDOF 4
