REMARK  Name = 
REMARK  6 active torsions:
REMARK  status: ('A' for Active; 'I' for Inactive)
REMARK    1  A    between atoms: C_2  and  C_3
REMARK    2  A    between atoms: C_6  and  N_7
REMARK    3  A    between atoms: N_7  and  C_8
REMARK    4  A    between atoms: C_8  and  C_9
REMARK    5  A    between atoms: C_9  and  C_10
REMARK    6  A    between atoms: C_18  and  N_19
REMARK                            x       y       z     vdW  Elec       q    Type
REMARK                         _______ _______ _______ _____ _____    ______ ____
ROOT
ATOM      1  C   UNL     1       3.686   0.055   0.423  0.00  0.00    +0.000 A 
ATOM      2  N   UNL     1       4.370  -1.046   0.825  0.00  0.00    +0.000 NA
ATOM      3  C   UNL     1       5.722  -0.984   0.744  0.00  0.00    +0.000 A 
ATOM      4  C   UNL     1       6.450   0.099   0.253  0.00  0.00    +0.000 A 
ATOM      5  C   UNL     1       5.693   1.221  -0.120  0.00  0.00    +0.000 A 
ATOM      6  C   UNL     1       4.292   1.241  -0.015  0.00  0.00    +0.000 A 
ENDROOT
BRANCH   6   7
ATOM      7  N   UNL     1       3.586   2.331  -0.557  0.00  0.00    +0.000 N 
ATOM      8  H   UNL     1       4.094   3.210  -0.556  0.00  0.00    +0.000 HD
ATOM      9  H   UNL     1       2.631   2.446  -0.219  0.00  0.00    +0.000 HD
ENDBRANCH   6   7
BRANCH   1  11
ATOM     10  N   UNL     1       1.097  -0.095   0.624  0.00  0.00    +0.000 NA
ATOM     11  C   UNL     1       2.255  -0.057   0.531  0.00  0.00    +0.000 C 
ENDBRANCH   1  11
BRANCH   4  12
ATOM     12  N   UNL     1       7.852   0.177   0.240  0.00  0.00    +0.000 N 
ATOM     13  H   UNL     1       8.186   0.920  -0.369  0.00  0.00    +0.000 HD
BRANCH  12  14
ATOM     14  C   UNL     1       8.611  -1.071   0.085  0.00  0.00    +0.000 C 
BRANCH  14  15
ATOM     15  C   UNL     1      10.120  -0.786   0.052  0.00  0.00    +0.000 C 
BRANCH  15  16
ATOM     16  C   UNL     1      10.932  -2.057  -0.055  0.00  0.00    +0.000 A 
ATOM     17  C   UNL     1      11.314  -2.753   1.101  0.00  0.00    +0.000 A 
ATOM     18  C   UNL     1      12.036  -3.945   1.008  0.00  0.00    +0.000 A 
ATOM     19  C   UNL     1      12.385  -4.456  -0.241  0.00  0.00    +0.000 A 
ATOM     20  C   UNL     1      12.014  -3.769  -1.395  0.00  0.00    +0.000 A 
ATOM     21 CL   UNL     1      12.448  -4.395  -2.936  0.00  0.00    +0.000 Cl
ATOM     22  C   UNL     1      11.290  -2.579  -1.308  0.00  0.00    +0.000 A 
ENDBRANCH  15  16
ENDBRANCH  14  15
ENDBRANCH  12  14
ENDBRANCH   4  12
TORSDOF 6
