REMARK  Name = 
REMARK  7 active torsions:
REMARK  status: ('A' for Active; 'I' for Inactive)
REMARK    1  A    between atoms: C_2  and  C_4
REMARK    2  A    between atoms: C_7  and  N_8
REMARK    3  A    between atoms: N_8  and  C_9
REMARK    4  A    between atoms: C_9  and  C_10
REMARK    5  A    between atoms: C_10  and  C_13
REMARK    6  A    between atoms: C_17  and  O_18
REMARK    7  A    between atoms: O_18  and  C_19
REMARK                            x       y       z     vdW  Elec       q    Type
REMARK                         _______ _______ _______ _____ _____    ______ ____
ROOT
ATOM      1  C   UNL     1       4.501   4.753  -4.000  0.00  0.00    +0.000 C 
ENDROOT
BRANCH   1   2
ATOM      2  C   UNL     1       5.197   5.481  -5.180  0.00  0.00    +0.000 C 
ATOM      3  F   UNL     1       6.551   5.459  -4.987  0.00  0.00    +0.000 F 
ATOM      4  F   UNL     1       4.997   4.707  -6.298  0.00  0.00    +0.000 F 
BRANCH   2   5
ATOM      5  C   UNL     1       4.652   6.894  -5.352  0.00  0.00    +0.000 A 
ATOM      6  C   UNL     1       4.086   7.270  -6.566  0.00  0.00    +0.000 A 
ATOM      7  C   UNL     1       3.546   8.545  -6.689  0.00  0.00    +0.000 A 
ATOM      8  C   UNL     1       3.599   9.421  -5.611  0.00  0.00    +0.000 A 
ATOM      9  C   UNL     1       4.210   8.997  -4.440  0.00  0.00    +0.000 A 
ATOM     10  N   UNL     1       4.712   7.753  -4.291  0.00  0.00    +0.000 NA
BRANCH   9  11
ATOM     11  O   UNL     1       4.320   9.772  -3.314  0.00  0.00    +0.000 OA
BRANCH  11  12
ATOM     12  C   UNL     1       4.311  11.208  -3.466  0.00  0.00    +0.000 C 
ATOM     13  C   UNL     1       5.524  11.851  -4.191  0.00  0.00    +0.000 C 
ATOM     14  C   UNL     1       5.497  12.971  -3.138  0.00  0.00    +0.000 C 
ATOM     15  C   UNL     1       4.744  12.004  -2.209  0.00  0.00    +0.000 C 
ENDBRANCH  11  12
ENDBRANCH   9  11
ENDBRANCH   2   5
ENDBRANCH   1   2
BRANCH   1  16
ATOM     16  N   UNL     1       4.763   5.363  -2.683  0.00  0.00    +0.000 N 
ATOM     17  H   UNL     1       4.764   6.391  -2.743  0.00  0.00    +0.000 HD
BRANCH  16  21
ATOM     18  C   UNL     1       3.163   3.979   0.887  0.00  0.00    +0.000 A 
ATOM     19  C   UNL     1       3.269   3.077  -0.161  0.00  0.00    +0.000 A 
ATOM     20  C   UNL     1       3.762   3.536  -1.383  0.00  0.00    +0.000 A 
ATOM     21  C   UNL     1       4.131   4.873  -1.543  0.00  0.00    +0.000 A 
ATOM     22  C   UNL     1       3.987   5.688  -0.411  0.00  0.00    +0.000 A 
ATOM     23  N   UNL     1       3.498   5.293   0.791  0.00  0.00    +0.000 NA
BRANCH  18  25
ATOM     24  N   UNL     1       2.565   4.471   3.185  0.00  0.00    +0.000 N 
ATOM     25  C   UNL     1       2.689   3.502   2.226  0.00  0.00    +0.000 C 
ATOM     26  O   UNL     1       2.433   2.328   2.459  0.00  0.00    +0.000 OA
ATOM     27  H   UNL     1       2.277   4.215   4.117  0.00  0.00    +0.000 HD
ATOM     28  H   UNL     1       2.802   5.430   2.957  0.00  0.00    +0.000 HD
ENDBRANCH  18  25
ENDBRANCH  16  21
ENDBRANCH   1  16
TORSDOF 7
