REMARK  Name = 
REMARK  8 active torsions:
REMARK  status: ('A' for Active; 'I' for Inactive)
REMARK    1  A    between atoms: C_1  and  C_2
REMARK    2  A    between atoms: C_2  and  C_3
REMARK    3  A    between atoms: C_2  and  C_21
REMARK    4  A    between atoms: C_3  and  N_4
REMARK    5  A    between atoms: C_9  and  C_10
REMARK    6  A    between atoms: C_14  and  C_15
REMARK    7  A    between atoms: CA_24  and  C_25
REMARK    8  A    between atoms: C_25  and  OXT_27
REMARK                            x       y       z     vdW  Elec       q    Type
REMARK                         _______ _______ _______ _____ _____    ______ ____
ROOT
ATOM      1  N   UNL     1       2.662  -0.304   2.510  0.00  0.00    +0.000 N 
ATOM      2  C   UNL     1       2.988  -1.098   3.604  0.00  0.00    +0.000 A 
ATOM      3  N   UNL     1       2.190  -0.977   4.668  0.00  0.00    +0.000 NA
ATOM      4  C   UNL     1       2.490  -1.733   5.737  0.00  0.00    +0.000 A 
ATOM      5  C   UNL     1       3.539  -2.618   5.774  0.00  0.00    +0.000 A 
ATOM      6  C   UNL     1       4.301  -2.703   4.627  0.00  0.00    +0.000 A 
ATOM      7  N   UNL     1       4.031  -1.934   3.548  0.00  0.00    +0.000 NA
ATOM      8  H   UNL     1       1.684  -0.070   2.644  0.00  0.00    +0.000 HD
ENDROOT
BRANCH   6   9
ATOM      9  C   UNL     1       5.436  -3.638   4.459  0.00  0.00    +0.000 A 
ATOM     10  C   UNL     1       5.516  -4.859   5.152  0.00  0.00    +0.000 A 
ATOM     11  C   UNL     1       6.576  -5.747   4.944  0.00  0.00    +0.000 A 
ATOM     12  C   UNL     1       7.575  -5.444   4.022  0.00  0.00    +0.000 A 
ATOM     13  C   UNL     1       7.525  -4.248   3.298  0.00  0.00    +0.000 A 
ATOM     14  C   UNL     1       6.467  -3.354   3.539  0.00  0.00    +0.000 A 
BRANCH  13  15
ATOM     15  C   UNL     1       8.558  -3.920   2.250  0.00  0.00    +0.000 C 
ATOM     16  F   UNL     1       9.480  -4.907   2.066  0.00  0.00    +0.000 F 
ATOM     17  F   UNL     1       8.003  -3.701   1.024  0.00  0.00    +0.000 F 
ATOM     18  F   UNL     1       9.269  -2.797   2.544  0.00  0.00    +0.000 F 
ENDBRANCH  13  15
ENDBRANCH   6   9
BRANCH   1  19
ATOM     19  C   UNL     1       3.003  -0.896   1.223  0.00  0.00    +0.000 C 
BRANCH  19  21
ATOM     20  C   UNL     1       3.553   1.316   0.094  0.00  0.00    +0.000 C 
ATOM     21  C   UNL     1       2.677   0.055   0.050  0.00  0.00    +0.000 C 
BRANCH  21  22
ATOM     22  C   UNL     1       1.190   0.348  -0.079  0.00  0.00    +0.000 A 
ATOM     23  C   UNL     1       0.348  -0.556  -0.745  0.00  0.00    +0.000 A 
ATOM     24  C   UNL     1      -1.007  -0.269  -0.893  0.00  0.00    +0.000 A 
ATOM     25  CA  UNL     1      -1.478   0.920  -0.361  0.00  0.00    +0.000 A 
ATOM     26  N   UNL     1      -0.708   1.819   0.314  0.00  0.00    +0.000 NA
ATOM     27  C   UNL     1       0.602   1.503   0.439  0.00  0.00    +0.000 A 
BRANCH  25  28
ATOM     28  C   UNL     1      -2.911   1.306  -0.513  0.00  0.00    +0.000 C 
ATOM     29  O   UNL     1      -3.761   0.640  -1.074  0.00  0.00    +0.000 OA
BRANCH  28  30
ATOM     30  OXT UNL     1      -3.132   2.516   0.058  0.00  0.00    +0.000 OA
ATOM     31  HXT UNL     1      -2.279   2.840   0.438  0.00  0.00    +0.000 HD
ENDBRANCH  28  30
ENDBRANCH  25  28
ENDBRANCH  21  22
ENDBRANCH  19  21
ENDBRANCH   1  19
TORSDOF 7
