REMARK  Name = 
REMARK  4 active torsions:
REMARK  status: ('A' for Active; 'I' for Inactive)
REMARK    1  A    between atoms: C_3  and  C_4
REMARK    2  A    between atoms: C_4  and  N_5
REMARK    3  A    between atoms: N_5  and  C_6
REMARK    4  A    between atoms: C_13  and  N_14
REMARK                            x       y       z     vdW  Elec       q    Type
REMARK                         _______ _______ _______ _____ _____    ______ ____
ROOT
ATOM      1  C   UNL     1       1.445  -0.093  -0.144  0.00  0.00    +0.000 A 
ATOM      2  C   UNL     1       0.629  -1.218  -0.190  0.00  0.00    +0.000 A 
ATOM      3  C   UNL     1      -0.757  -1.081  -0.072  0.00  0.00    +0.000 A 
ATOM      4  C   UNL     1      -1.304   0.206   0.081  0.00  0.00    +0.000 A 
ATOM      5  C   UNL     1      -0.506   1.357   0.155  0.00  0.00    +0.000 A 
ATOM      6  C   UNL     1       0.879   1.173   0.031  0.00  0.00    +0.000 A 
ENDROOT
BRANCH   5   7
ATOM      7  N   UNL     1      -1.052   2.601   0.378  0.00  0.00    +0.000 N 
ATOM      8  C   UNL     1      -0.358   3.634   1.156  0.00  0.00    +0.000 C 
ATOM      9  C   UNL     1      -1.315   4.185   2.226  0.00  0.00    +0.000 C 
ATOM     10  O   UNL     1      -2.535   4.678   1.646  0.00  0.00    +0.000 OA
ATOM     11  C   UNL     1      -3.217   3.618   0.951  0.00  0.00    +0.000 C 
ATOM     12  C   UNL     1      -2.349   3.022  -0.169  0.00  0.00    +0.000 C 
ENDBRANCH   5   7
BRANCH   3  13
ATOM     13  C   UNL     1      -1.649  -2.297  -0.040  0.00  0.00    +0.000 C 
BRANCH  13  14
ATOM     14  N   UNL     1      -2.599  -2.305  -1.151  0.00  0.00    +0.000 NA
ATOM     15  H   UNL     1      -2.079  -2.311  -2.028  0.00  0.00    +0.000 HD
BRANCH  14  16
ATOM     16  C   UNL     1      -3.536  -3.435  -1.101  0.00  0.00    +0.000 C 
ATOM     17  C   UNL     1      -2.835  -4.803  -1.176  0.00  0.00    +0.000 C 
ATOM     18  C   UNL     1      -3.835  -5.954  -1.234  0.00  0.00    +0.000 C 
ATOM     19  C   UNL     1      -4.811  -5.789  -2.391  0.00  0.00    +0.000 C 
ATOM     20  C   UNL     1      -5.526  -4.445  -2.323  0.00  0.00    +0.000 C 
ATOM     21  C   UNL     1      -4.537  -3.281  -2.261  0.00  0.00    +0.000 C 
ENDBRANCH  14  16
ENDBRANCH  13  14
ENDBRANCH   3  13
TORSDOF 4
