REMARK  Name = 
REMARK  3 active torsions:
REMARK  status: ('A' for Active; 'I' for Inactive)
REMARK    1  A    between atoms: C_2  and  C_4
REMARK    2  A    between atoms: N_8  and  C_9
REMARK    3  A    between atoms: C_9  and  C_10
REMARK                            x       y       z     vdW  Elec       q    Type
REMARK                         _______ _______ _______ _____ _____    ______ ____
ROOT
ATOM      1  C   UNL     1       3.084   0.009   1.269  0.00  0.00    +0.000 A 
ATOM      2  C   UNL     1       4.464  -0.051   1.103  0.00  0.00    +0.000 A 
ATOM      3  C   UNL     1       5.273  -0.186   2.231  0.00  0.00    +0.000 A 
ATOM      4  C   UNL     1       4.698  -0.286   3.501  0.00  0.00    +0.000 A 
ATOM      5  N   UNL     1       5.585  -0.511   4.573  0.00  0.00    +0.000 N 
ATOM      6  N   UNL     1       3.365  -0.206   3.669  0.00  0.00    +0.000 NA
ATOM      7  C   UNL     1       2.589  -0.045   2.562  0.00  0.00    +0.000 A 
ATOM      8  H   UNL     1       6.217   0.286   4.666  0.00  0.00    +0.000 HD
ENDROOT
BRANCH   1  10
ATOM      9  N   UNL     1       2.550  -0.358  -1.073  0.00  0.00    +0.000 N 
ATOM     10  C   UNL     1       2.145   0.138   0.136  0.00  0.00    +0.000 C 
ATOM     11  O   UNL     1       1.036   0.636   0.276  0.00  0.00    +0.000 OA
ATOM     12  H   UNL     1       1.862  -0.354  -1.815  0.00  0.00    +0.000 HD
ATOM     13  H   UNL     1       3.329  -0.996  -1.166  0.00  0.00    +0.000 HD
ENDBRANCH   1  10
BRANCH   5  14
ATOM     14  C   UNL     1       5.195  -1.061   5.906  0.00  0.00    +0.000 C 
ATOM     15  C   UNL     1       5.079  -2.588   5.928  0.00  0.00    +0.000 C 
ATOM     16  C   UNL     1       3.880  -1.751   6.227  0.00  0.00    +0.000 C 
BRANCH  14  17
ATOM     17  C   UNL     1       5.961  -0.391   7.090  0.00  0.00    +0.000 A 
ATOM     18  N   UNL     1       6.747   0.681   6.811  0.00  0.00    +0.000 NA
ATOM     19  C   UNL     1       7.428   1.229   7.838  0.00  0.00    +0.000 A 
ATOM     20  C   UNL     1       7.375   0.762   9.125  0.00  0.00    +0.000 A 
ATOM     21  C   UNL     1       6.564  -0.327   9.321  0.00  0.00    +0.000 A 
ATOM     22  N   UNL     1       5.860  -0.914   8.336  0.00  0.00    +0.000 NA
ENDBRANCH  14  17
ENDBRANCH   5  14
TORSDOF 3
