REMARK  Name = 
REMARK  6 active torsions:
REMARK  status: ('A' for Active; 'I' for Inactive)
REMARK    1  A    between atoms: C_2  and  C_25
REMARK    2  A    between atoms: N_3  and  C_4
REMARK    3  A    between atoms: C_4  and  C_5
REMARK    4  A    between atoms: C_8  and  C_9
REMARK    5  A    between atoms: C_9  and  N_10
REMARK    6  A    between atoms: C_11  and  C_13
REMARK                            x       y       z     vdW  Elec       q    Type
REMARK                         _______ _______ _______ _____ _____    ______ ____
ROOT
ATOM      1  C   UNL     1       3.262   3.543  -0.052  0.00  0.00    +0.000 C 
ATOM      2  C   UNL     1       4.218   3.339   1.123  0.00  0.00    +0.000 C 
ATOM      3  C   UNL     1       5.247   4.453   1.197  0.00  0.00    +0.000 C 
ATOM      4  C   UNL     1       4.605   5.839   1.332  0.00  0.00    +0.000 C 
ATOM      5  C   UNL     1       3.609   6.063   0.181  0.00  0.00    +0.000 C 
ATOM      6  C   UNL     1       2.587   4.922   0.063  0.00  0.00    +0.000 C 
ENDROOT
BRANCH   1   7
ATOM      7  C   UNL     1       2.226   2.409  -0.102  0.00  0.00    +0.000 C 
BRANCH   7  10
ATOM      8  O   UNL     1       2.798   1.121  -2.585  0.00  0.00    +0.000 OA
ATOM      9  C   UNL     1       3.101   0.574  -1.529  0.00  0.00    +0.000 C 
ATOM     10  N   UNL     1       2.839   1.110  -0.288  0.00  0.00    +0.000 N 
ATOM     11  H   UNL     1       3.217   0.592   0.502  0.00  0.00    +0.000 HD
BRANCH   9  12
ATOM     12  C   UNL     1       3.786  -0.721  -1.467  0.00  0.00    +0.000 A 
ATOM     13  C   UNL     1       4.168  -1.496  -2.545  0.00  0.00    +0.000 A 
ATOM     14  N   UNL     1       4.760  -2.604  -2.012  0.00  0.00    +0.000 N 
ATOM     15  C   UNL     1       4.720  -2.479  -0.651  0.00  0.00    +0.000 A 
ATOM     16  N   UNL     1       4.145  -1.355  -0.284  0.00  0.00    +0.000 NA
ATOM     17  H   UNL     1       5.156  -3.380  -2.526  0.00  0.00    +0.000 HD
ENDBRANCH   9  12
ENDBRANCH   7  10
ENDBRANCH   1   7
BRANCH   4  18
ATOM     18  C   UNL     1       5.678   6.944   1.365  0.00  0.00    +0.000 C 
BRANCH  18  19
ATOM     19  N   UNL     1       6.578   6.812   2.500  0.00  0.00    +0.000 N 
ATOM     20  C   UNL     1       7.589   7.714   2.729  0.00  0.00    +0.000 C 
ATOM     21  O   UNL     1       7.743   8.717   2.037  0.00  0.00    +0.000 OA
ATOM     22  H   UNL     1       6.673   5.897   2.924  0.00  0.00    +0.000 HD
BRANCH  20  23
ATOM     23  C   UNL     1       8.438   7.454   3.902  0.00  0.00    +0.000 A 
ATOM     24  C   UNL     1       9.048   8.517   4.554  0.00  0.00    +0.000 A 
ATOM     25  S   UNL     1       9.951   8.053   5.925  0.00  0.00    +0.000 S 
ATOM     26  C   UNL     1       9.602   6.409   5.667  0.00  0.00    +0.000 A 
ATOM     27  N   UNL     1      10.099   5.447   6.491  0.00  0.00    +0.000 NA
ATOM     28  C   UNL     1       9.779   4.241   6.163  0.00  0.00    +0.000 A 
ATOM     29  N   UNL     1       9.001   3.908   5.086  0.00  0.00    +0.000 N 
ATOM     30  C   UNL     1       8.472   4.846   4.234  0.00  0.00    +0.000 A 
ATOM     31  O   UNL     1       7.772   4.520   3.287  0.00  0.00    +0.000 OA
ATOM     32  C   UNL     1       8.798   6.220   4.559  0.00  0.00    +0.000 A 
ATOM     33  H   UNL     1       8.784   2.945   4.881  0.00  0.00    +0.000 HD
ENDBRANCH  20  23
ENDBRANCH  18  19
ENDBRANCH   4  18
TORSDOF 6
