REMARK  Name = 
REMARK  9 active torsions:
REMARK  status: ('A' for Active; 'I' for Inactive)
REMARK    1  A    between atoms: C_2  and  C_3
REMARK    2  A    between atoms: C_2  and  O_17
REMARK    3  A    between atoms: C_3  and  N_4
REMARK    4  A    between atoms: C_5  and  C_7
REMARK    5  A    between atoms: O_17  and  C_18
REMARK    6  A    between atoms: C_18  and  C_19
REMARK    7  A    between atoms: C_22  and  C_23
REMARK    8  A    between atoms: C_23  and  N_24
REMARK    9  A    between atoms: C_25  and  C_27
REMARK                            x       y       z     vdW  Elec       q    Type
REMARK                         _______ _______ _______ _____ _____    ______ ____
ROOT
ATOM      1  O   UNL     1       5.666  -0.070   0.613  0.00  0.00    +0.000 OA
ENDROOT
BRANCH   1   3
ATOM      2  O   UNL     1       4.606  -2.036   1.154  0.00  0.00    +0.000 OA
ATOM      3  C   UNL     1       5.606  -1.410   0.823  0.00  0.00    +0.000 C 
BRANCH   3   4
ATOM      4  C   UNL     1       6.944  -2.060   0.513  0.00  0.00    +0.000 C 
BRANCH   4   5
ATOM      5  N   UNL     1       6.972  -2.582  -0.837  0.00  0.00    +0.000 N 
ATOM      6  C   UNL     1       7.497  -1.847  -1.871  0.00  0.00    +0.000 C 
ATOM      7  O   UNL     1       8.032  -0.757  -1.692  0.00  0.00    +0.000 OA
ATOM      8  H   UNL     1       6.335  -3.347  -1.045  0.00  0.00    +0.000 HD
BRANCH   6   9
ATOM      9  C   UNL     1       7.453  -2.465  -3.200  0.00  0.00    +0.000 A 
ATOM     10  C   UNL     1       8.394  -2.109  -4.157  0.00  0.00    +0.000 A 
ATOM     11  S   UNL     1       8.228  -2.959  -5.626  0.00  0.00    +0.000 S 
ATOM     12  C   UNL     1       6.861  -3.794  -5.051  0.00  0.00    +0.000 A 
ATOM     13  N   UNL     1       6.202  -4.686  -5.838  0.00  0.00    +0.000 NA
ATOM     14  C   UNL     1       5.160  -5.215  -5.286  0.00  0.00    +0.000 A 
ATOM     15  N   UNL     1       4.720  -4.936  -4.018  0.00  0.00    +0.000 N 
ATOM     16  C   UNL     1       5.380  -4.077  -3.172  0.00  0.00    +0.000 A 
ATOM     17  O   UNL     1       5.010  -3.903  -2.017  0.00  0.00    +0.000 OA
ATOM     18  C   UNL     1       6.546  -3.440  -3.752  0.00  0.00    +0.000 A 
ATOM     19  H   UNL     1       3.904  -5.395  -3.641  0.00  0.00    +0.000 HD
ENDBRANCH   6   9
ENDBRANCH   4   5
ENDBRANCH   3   4
ENDBRANCH   1   3
BRANCH   1  20
ATOM     20  C   UNL     1       4.460   0.668   0.835  0.00  0.00    +0.000 C 
BRANCH  20  21
ATOM     21  C   UNL     1       4.740   1.744   1.854  0.00  0.00    +0.000 A 
ATOM     22  C   UNL     1       4.639   3.100   1.521  0.00  0.00    +0.000 A 
ATOM     23  C   UNL     1       4.894   4.087   2.478  0.00  0.00    +0.000 A 
ATOM     24  C   UNL     1       5.268   3.737   3.783  0.00  0.00    +0.000 A 
ATOM     25  C   UNL     1       5.359   2.380   4.118  0.00  0.00    +0.000 A 
ATOM     26  C   UNL     1       5.100   1.394   3.163  0.00  0.00    +0.000 A 
BRANCH  24  27
ATOM     27  C   UNL     1       5.549   4.798   4.815  0.00  0.00    +0.000 C 
BRANCH  27  28
ATOM     28  N   UNL     1       4.361   5.138   5.566  0.00  0.00    +0.000 N 
ATOM     29  C   UNL     1       4.427   6.062   6.583  0.00  0.00    +0.000 C 
ATOM     30  O   UNL     1       5.463   6.624   6.924  0.00  0.00    +0.000 OA
ATOM     31  H   UNL     1       3.467   4.882   5.171  0.00  0.00    +0.000 HD
BRANCH  29  32
ATOM     32  C   UNL     1       3.146   6.393   7.265  0.00  0.00    +0.000 A 
ATOM     33  C   UNL     1       2.114   5.462   7.373  0.00  0.00    +0.000 A 
ATOM     34  C   UNL     1       0.960   5.850   8.033  0.00  0.00    +0.000 A 
ATOM     35  N   UNL     1       0.781   7.072   8.574  0.00  0.00    +0.000 NA
ATOM     36  C   UNL     1       1.804   7.948   8.472  0.00  0.00    +0.000 A 
ATOM     37  C   UNL     1       2.999   7.657   7.837  0.00  0.00    +0.000 A 
ENDBRANCH  29  32
ENDBRANCH  27  28
ENDBRANCH  24  27
ENDBRANCH  20  21
ENDBRANCH   1  20
TORSDOF 9
