REMARK  Name = 
REMARK  7 active torsions:
REMARK  status: ('A' for Active; 'I' for Inactive)
REMARK    1  A    between atoms: C_1  and  C_2
REMARK    2  A    between atoms: C_6  and  S_7
REMARK    3  A    between atoms: S_7  and  C_8
REMARK    4  A    between atoms: C_8  and  C_9
REMARK    5  A    between atoms: C_12  and  C_13
REMARK    6  A    between atoms: C_13  and  N_14
REMARK    7  A    between atoms: C_15  and  C_17
REMARK                            x       y       z     vdW  Elec       q    Type
REMARK                         _______ _______ _______ _____ _____    ______ ____
ROOT
ATOM      1  C   UNL     1       6.504  -7.457   0.088  0.00  0.00    +0.000 C 
ENDROOT
BRANCH   1   5
ATOM      2  C   UNL     1       4.309  -3.830   0.112  0.00  0.00    +0.000 A 
ATOM      3  C   UNL     1       3.730  -5.067  -0.080  0.00  0.00    +0.000 A 
ATOM      4  N   UNL     1       4.415  -6.226  -0.095  0.00  0.00    +0.000 NA
ATOM      5  C   UNL     1       5.746  -6.150   0.074  0.00  0.00    +0.000 A 
ATOM      6  N   UNL     1       6.424  -4.992   0.204  0.00  0.00    +0.000 NA
ATOM      7  C   UNL     1       5.684  -3.862   0.225  0.00  0.00    +0.000 A 
BRANCH   2   8
ATOM      8  C   UNL     1       3.548  -2.535   0.111  0.00  0.00    +0.000 C 
BRANCH   8   9
ATOM      9  S   UNL     1       1.895  -2.647   0.887  0.00  0.00    +0.000 S 
BRANCH   9  15
ATOM     10  C   UNL     1       2.600   2.149  -0.714  0.00  0.00    +0.000 C 
ATOM     11  C   UNL     1       1.673   1.153  -0.093  0.00  0.00    +0.000 A 
ATOM     12  N   UNL     1       0.442   1.559   0.257  0.00  0.00    +0.000 NA
ATOM     13  C   UNL     1      -0.361   0.634   0.813  0.00  0.00    +0.000 A 
ATOM     14  C   UNL     1       0.021  -0.667   1.029  0.00  0.00    +0.000 A 
ATOM     15  C   UNL     1       1.301  -0.986   0.633  0.00  0.00    +0.000 A 
ATOM     16  N   UNL     1       2.139  -0.097   0.070  0.00  0.00    +0.000 NA
ENDBRANCH   9  15
ENDBRANCH   8   9
ENDBRANCH   2   8
ENDBRANCH   1   5
BRANCH   1  17
ATOM     17  N   UNL     1       6.773  -7.974  -1.239  0.00  0.00    +0.000 N 
ATOM     18  C   UNL     1       7.420  -9.170  -1.401  0.00  0.00    +0.000 C 
ATOM     19  O   UNL     1       7.755  -9.855  -0.437  0.00  0.00    +0.000 OA
ATOM     20  H   UNL     1       6.251  -7.566  -2.010  0.00  0.00    +0.000 HD
BRANCH  18  21
ATOM     21  C   UNL     1       7.790  -9.547  -2.770  0.00  0.00    +0.000 A 
ATOM     22  C   UNL     1       8.555 -10.684  -2.995  0.00  0.00    +0.000 A 
ATOM     23  S   UNL     1       9.164 -10.786  -4.587  0.00  0.00    +0.000 S 
ATOM     24  C   UNL     1       8.367  -9.352  -5.036  0.00  0.00    +0.000 A 
ATOM     25  N   UNL     1       8.550  -8.793  -6.263  0.00  0.00    +0.000 NA
ATOM     26  C   UNL     1       7.835  -7.739  -6.478  0.00  0.00    +0.000 A 
ATOM     27  N   UNL     1       6.920  -7.220  -5.597  0.00  0.00    +0.000 N 
ATOM     28  C   UNL     1       6.688  -7.766  -4.358  0.00  0.00    +0.000 A 
ATOM     29  O   UNL     1       5.797  -7.346  -3.627  0.00  0.00    +0.000 OA
ATOM     30  C   UNL     1       7.553  -8.879  -4.024  0.00  0.00    +0.000 A 
ATOM     31  H   UNL     1       6.331  -6.444  -5.859  0.00  0.00    +0.000 HD
ENDBRANCH  18  21
ENDBRANCH   1  17
TORSDOF 6
