REMARK  Name = 
REMARK  11 active torsions:
REMARK  status: ('A' for Active; 'I' for Inactive)
REMARK    1  A    between atoms: C_1  and  C_2
REMARK    2  A    between atoms: C_2  and  C_3
REMARK    3  A    between atoms: C_3  and  C_4
REMARK    4  A    between atoms: C_4  and  N_5
REMARK    5  A    between atoms: C_4  and  C_19
REMARK    6  A    between atoms: C_6  and  C_8
REMARK    7  A    between atoms: N_14  and  C_15
REMARK    8  A    between atoms: C_22  and  C_23
REMARK    9  A    between atoms: C_23  and  N_24
REMARK   10  A    between atoms: C_23  and  C_25
REMARK   11  A    between atoms: C_25  and  C_26
REMARK                            x       y       z     vdW  Elec       q    Type
REMARK                         _______ _______ _______ _____ _____    ______ ____
ROOT
ATOM      1  C   UNL     1       4.518   1.021  -1.011  0.00  0.00    +0.000 C 
ENDROOT
BRANCH   1   2
ATOM      2  C   UNL     1       4.952   1.988  -2.088  0.00  0.00    +0.000 A 
ATOM      3  C   UNL     1       5.119   1.633  -3.427  0.00  0.00    +0.000 A 
ATOM      4  C   UNL     1       5.507   2.584  -4.363  0.00  0.00    +0.000 A 
ATOM      5  C   UNL     1       5.710   3.894  -3.945  0.00  0.00    +0.000 A 
ATOM      6  N   UNL     1       5.538   4.275  -2.654  0.00  0.00    +0.000 NA
ATOM      7  C   UNL     1       5.178   3.323  -1.764  0.00  0.00    +0.000 A 
BRANCH   5   8
ATOM      8  C   UNL     1       6.107   4.980  -4.934  0.00  0.00    +0.000 C 
BRANCH   8   9
ATOM      9  N   UNL     1       5.071   6.042  -4.956  0.00  0.00    +0.000 NA
ATOM     10  H   UNL     1       4.930   6.370  -3.998  0.00  0.00    +0.000 HD
ATOM     11  H   UNL     1       4.189   5.582  -5.195  0.00  0.00    +0.000 HD
ENDBRANCH   8   9
BRANCH   8  12
ATOM     12  C   UNL     1       7.509   5.564  -4.656  0.00  0.00    +0.000 C 
BRANCH  12  13
ATOM     13  C   UNL     1       8.667   4.560  -4.741  0.00  0.00    +0.000 C 
ATOM     14  C   UNL     1      10.023   5.210  -4.475  0.00  0.00    +0.000 C 
ATOM     15  C   UNL     1      10.994   4.233  -5.105  0.00  0.00    +0.000 C 
ATOM     16  C   UNL     1      10.226   3.633  -6.273  0.00  0.00    +0.000 C 
ATOM     17  N   UNL     1       8.810   3.948  -6.065  0.00  0.00    +0.000 NA
ATOM     18  H   UNL     1       8.218   3.129  -6.180  0.00  0.00    +0.000 HD
ENDBRANCH  12  13
ENDBRANCH   8  12
ENDBRANCH   5   8
ENDBRANCH   1   2
BRANCH   1  19
ATOM     19  N   UNL     1       3.072   1.066  -0.908  0.00  0.00    +0.000 N 
ATOM     20  C   UNL     1       2.401   0.760   0.243  0.00  0.00    +0.000 C 
ATOM     21  O   UNL     1       2.981   0.531   1.315  0.00  0.00    +0.000 OA
ATOM     22  H   UNL     1       2.548   1.246  -1.755  0.00  0.00    +0.000 HD
BRANCH  20  23
ATOM     23  C   UNL     1       0.949   0.797   0.141  0.00  0.00    +0.000 A 
ATOM     24  C   UNL     1       0.125   1.154   1.198  0.00  0.00    +0.000 A 
ATOM     25  S   UNL     1      -1.532   1.185   0.771  0.00  0.00    +0.000 S 
ATOM     26  C   UNL     1      -1.188   0.700  -0.823  0.00  0.00    +0.000 A 
ATOM     27  N   UNL     1      -2.175   0.545  -1.737  0.00  0.00    +0.000 NA
ATOM     28  C   UNL     1      -1.767   0.175  -2.908  0.00  0.00    +0.000 A 
ATOM     29  N   UNL     1      -0.458  -0.075  -3.263  0.00  0.00    +0.000 N 
ATOM     30  C   UNL     1      -0.138  -0.534  -4.598  0.00  0.00    +0.000 C 
ATOM     31  C   UNL     1       0.570   0.002  -2.332  0.00  0.00    +0.000 A 
ATOM     32  O   UNL     1       1.729  -0.317  -2.597  0.00  0.00    +0.000 OA
ATOM     33  C   UNL     1       0.159   0.493  -1.027  0.00  0.00    +0.000 A 
ENDBRANCH  20  23
ENDBRANCH   1  19
BRANCH   1  34
ATOM     34  C   UNL     1       5.018  -0.428  -1.203  0.00  0.00    +0.000 C 
BRANCH  34  36
ATOM     35  C   UNL     1       7.007  -1.962  -1.421  0.00  0.00    +0.000 C 
ATOM     36  C   UNL     1       6.549  -0.526  -1.227  0.00  0.00    +0.000 C 
ENDBRANCH  34  36
ENDBRANCH   1  34
TORSDOF 9
