REMARK  Name = 
REMARK  6 active torsions:
REMARK  status: ('A' for Active; 'I' for Inactive)
REMARK    1  A    between atoms: C_1  and  N_2
REMARK    2  A    between atoms: N_2  and  C_3
REMARK    3  A    between atoms: N_2  and  C_10
REMARK    4  A    between atoms: C_3  and  C_4
REMARK    5  A    between atoms: C_10  and  C_11
REMARK    6  A    between atoms: C_15  and  C_17
REMARK                            x       y       z     vdW  Elec       q    Type
REMARK                         _______ _______ _______ _____ _____    ______ ____
ROOT
ATOM      1  C   UNL     1       4.371   0.142  -1.373  0.00  0.00    +0.000 C 
ATOM      2  C   UNL     1       5.085  -1.211  -1.447  0.00  0.00    +0.000 C 
ATOM      3  C   UNL     1       5.223  -1.919  -0.107  0.00  0.00    +0.000 C 
ATOM      4  N   UNL     1       5.699  -1.092   0.996  0.00  0.00    +0.000 N 
ATOM      5  C   UNL     1       6.280  -1.619   2.183  0.00  0.00    +0.000 C 
ATOM      6  O   UNL     1       6.548  -0.885   3.132  0.00  0.00    +0.000 OA
ATOM      7  C   UNL     1       5.127   0.254   1.087  0.00  0.00    +0.000 C 
ATOM      8  C   UNL     1       5.016   0.976  -0.257  0.00  0.00    +0.000 C 
ENDROOT
BRANCH   5   9
ATOM      9  C   UNL     1       6.529  -3.074   2.290  0.00  0.00    +0.000 A 
ATOM     10  C   UNL     1       5.604  -4.040   1.913  0.00  0.00    +0.000 A 
ATOM     11  S   UNL     1       6.179  -5.638   2.028  0.00  0.00    +0.000 S 
ATOM     12  C   UNL     1       7.605  -5.118   2.790  0.00  0.00    +0.000 A 
ATOM     13  N   UNL     1       8.521  -6.028   3.213  0.00  0.00    +0.000 NA
ATOM     14  C   UNL     1       9.533  -5.512   3.826  0.00  0.00    +0.000 A 
ATOM     15  N   UNL     1       9.708  -4.174   4.048  0.00  0.00    +0.000 N 
ATOM     16  C   UNL     1       8.812  -3.207   3.628  0.00  0.00    +0.000 A 
ATOM     17  O   UNL     1       9.024  -2.024   3.868  0.00  0.00    +0.000 OA
ATOM     18  C   UNL     1       7.658  -3.739   2.918  0.00  0.00    +0.000 A 
ATOM     19  H   UNL     1      10.508  -3.831   4.558  0.00  0.00    +0.000 HD
ENDBRANCH   5   9
BRANCH   1  20
ATOM     20  C   UNL     1       2.824   0.002  -1.288  0.00  0.00    +0.000 C 
BRANCH  20  22
ATOM     21  C   UNL     1       2.346   2.086  -2.475  0.00  0.00    +0.000 C 
ATOM     22  N   UNL     1       2.071   1.278  -1.275  0.00  0.00    +0.000 NA
BRANCH  22  23
ATOM     23  C   UNL     1       0.607   1.007  -1.198  0.00  0.00    +0.000 C 
BRANCH  23  24
ATOM     24  C   UNL     1      -0.261   2.263  -1.134  0.00  0.00    +0.000 A 
ATOM     25  C   UNL     1      -0.183   3.110  -0.033  0.00  0.00    +0.000 A 
ATOM     26  C   UNL     1      -0.898   4.303  -0.040  0.00  0.00    +0.000 A 
ATOM     27  C   UNL     1      -1.680   4.619  -1.141  0.00  0.00    +0.000 A 
ATOM     28  C   UNL     1      -1.720   3.720  -2.194  0.00  0.00    +0.000 A 
ATOM     29  N   UNL     1      -1.036   2.556  -2.216  0.00  0.00    +0.000 NA
ENDBRANCH  23  24
ENDBRANCH  22  23
ENDBRANCH  20  22
ENDBRANCH   1  20
TORSDOF 5
