REMARK  Name = 
REMARK  5 active torsions:
REMARK  status: ('A' for Active; 'I' for Inactive)
REMARK    1  A    between atoms: N_1  and  C_2
REMARK    2  A    between atoms: C_2  and  C_3
REMARK    3  A    between atoms: C_6  and  O_7
REMARK    4  A    between atoms: O_7  and  C_8
REMARK    5  A    between atoms: C_8  and  C_9
REMARK                            x       y       z     vdW  Elec       q    Type
REMARK                         _______ _______ _______ _____ _____    ______ ____
ROOT
ATOM      1  C   UNL     1       2.900  -1.308  -0.713  0.00  0.00    +0.000 A 
ATOM      2  C   UNL     1       2.474  -2.553  -0.257  0.00  0.00    +0.000 A 
ATOM      3  N   UNL     1       2.829  -3.720  -0.851  0.00  0.00    +0.000 NA
ATOM      4  C   UNL     1       3.642  -3.611  -1.922  0.00  0.00    +0.000 A 
ATOM      5  C   UNL     1       4.112  -2.371  -2.344  0.00  0.00    +0.000 A 
ATOM      6  N   UNL     1       3.747  -1.201  -1.766  0.00  0.00    +0.000 NA
ENDROOT
BRANCH   1   7
ATOM      7  C   UNL     1       2.414  -0.037  -0.067  0.00  0.00    +0.000 C 
BRANCH   7   8
ATOM      8  N   UNL     1       2.854   0.106   1.322  0.00  0.00    +0.000 NA
ATOM      9  H   UNL     1       2.555   1.018   1.665  0.00  0.00    +0.000 HD
ATOM     10  H   UNL     1       3.875   0.132   1.329  0.00  0.00    +0.000 HD
ENDBRANCH   7   8
ENDBRANCH   1   7
BRANCH   4  11
ATOM     11  O   UNL     1       3.935  -4.803  -2.523  0.00  0.00    +0.000 OA
BRANCH  11  12
ATOM     12  C   UNL     1       4.144  -4.711  -3.931  0.00  0.00    +0.000 C 
BRANCH  12  13
ATOM     13  C   UNL     1       3.845  -6.021  -4.609  0.00  0.00    +0.000 A 
ATOM     14  C   UNL     1       2.885  -6.917  -4.127  0.00  0.00    +0.000 A 
ATOM     15  C   UNL     1       2.597  -8.073  -4.848  0.00  0.00    +0.000 A 
ATOM     16  C   UNL     1       3.276  -8.282  -6.035  0.00  0.00    +0.000 A 
ATOM     17 CL   UNL     1       2.966  -9.669  -6.994  0.00  0.00    +0.000 Cl
ATOM     18  N   UNL     1       4.199  -7.442  -6.544  0.00  0.00    +0.000 NA
ATOM     19  C   UNL     1       4.458  -6.332  -5.821  0.00  0.00    +0.000 A 
ENDBRANCH  12  13
ENDBRANCH  11  12
ENDBRANCH   4  11
TORSDOF 5
