REMARK  Name = 
REMARK  8 active torsions:
REMARK  status: ('A' for Active; 'I' for Inactive)
REMARK    1  A    between atoms: C_1  and  O_2
REMARK    2  A    between atoms: O_2  and  C_3
REMARK    3  A    between atoms: C_5  and  N_6
REMARK    4  A    between atoms: N_6  and  C_7
REMARK    5  A    between atoms: C_7  and  C_8
REMARK    6  A    between atoms: C_8  and  C_9
REMARK    7  A    between atoms: C_8  and  C_10
REMARK    8  A    between atoms: C_13  and  C_14
REMARK                            x       y       z     vdW  Elec       q    Type
REMARK                         _______ _______ _______ _____ _____    ______ ____
ROOT
ATOM      1  C   UNL     1       3.707   2.936  -5.126  0.00  0.00    +0.000 C 
ENDROOT
BRANCH   1   2
ATOM      2  N   UNL     1       2.829   2.542  -4.011  0.00  0.00    +0.000 N 
ATOM      3  H   UNL     1       2.763   3.268  -3.304  0.00  0.00    +0.000 HD
BRANCH   2   6
ATOM      4  C   UNL     1       2.820  -0.224  -1.667  0.00  0.00    +0.000 A 
ATOM      5  C   UNL     1       2.464   0.965  -2.255  0.00  0.00    +0.000 A 
ATOM      6  C   UNL     1       3.191   1.339  -3.365  0.00  0.00    +0.000 A 
ATOM      7  N   UNL     1       4.177   0.566  -3.847  0.00  0.00    +0.000 NA
ATOM      8  C   UNL     1       4.431  -0.583  -3.211  0.00  0.00    +0.000 A 
ATOM      9  N   UNL     1       5.462  -1.370  -3.686  0.00  0.00    +0.000 N 
ATOM     10  N   UNL     1       3.807  -1.009  -2.120  0.00  0.00    +0.000 NA
ATOM     11  H   UNL     1       6.126  -0.795  -4.184  0.00  0.00    +0.000 HD
ATOM     12  H   UNL     1       5.815  -1.947  -2.935  0.00  0.00    +0.000 HD
BRANCH   4  14
ATOM     13  C   UNL     1       2.490  -1.873  -0.044  0.00  0.00    +0.000 C 
ATOM     14  O   UNL     1       2.115  -0.589  -0.538  0.00  0.00    +0.000 OA
ENDBRANCH   4  14
ENDBRANCH   2   6
ENDBRANCH   1   2
BRANCH   1  15
ATOM     15  C   UNL     1       3.184   4.224  -5.808  0.00  0.00    +0.000 C 
ATOM     16  C   UNL     1       3.233   5.435  -4.868  0.00  0.00    +0.000 C 
BRANCH  15  17
ATOM     17  C   UNL     1       3.963   4.539  -7.078  0.00  0.00    +0.000 A 
ATOM     18  C   UNL     1       3.356   5.244  -8.116  0.00  0.00    +0.000 A 
ATOM     19  C   UNL     1       4.093   5.530  -9.267  0.00  0.00    +0.000 A 
ATOM     20  C   UNL     1       5.421   5.112  -9.368  0.00  0.00    +0.000 A 
ATOM     21  C   UNL     1       5.950   4.434  -8.281  0.00  0.00    +0.000 A 
ATOM     22  N   UNL     1       5.260   4.152  -7.144  0.00  0.00    +0.000 NA
BRANCH  20  23
ATOM     23  C   UNL     1       6.182   5.411 -10.607  0.00  0.00    +0.000 C 
ATOM     24  N   UNL     1       7.474   4.979 -10.719  0.00  0.00    +0.000 N 
ATOM     25  O   UNL     1       5.667   6.034 -11.529  0.00  0.00    +0.000 OA
ATOM     26  H   UNL     1       7.984   4.436 -10.040  0.00  0.00    +0.000 HD
ATOM     27  H   UNL     1       7.945   5.194 -11.590  0.00  0.00    +0.000 HD
ENDBRANCH  20  23
ENDBRANCH  15  17
ENDBRANCH   1  15
TORSDOF 6
