REMARK  Name = 
REMARK  7 active torsions:
REMARK  status: ('A' for Active; 'I' for Inactive)
REMARK    1  A    between atoms: C_1  and  C_2
REMARK    2  A    between atoms: C_5  and  O_6
REMARK    3  A    between atoms: O_6  and  C_7
REMARK    4  A    between atoms: C_11  and  C_12
REMARK    5  A    between atoms: C_12  and  C_13
REMARK    6  A    between atoms: C_13  and  N_14
REMARK    7  A    between atoms: C_18  and  C_19
REMARK                            x       y       z     vdW  Elec       q    Type
REMARK                         _______ _______ _______ _____ _____    ______ ____
ROOT
ATOM      1  C   UNL     1      -0.627   5.175   4.805  0.00  0.00    +0.000 C 
ENDROOT
BRANCH   1   2
ATOM      2  N   UNL     1      -0.790   6.222   5.818  0.00  0.00    +0.000 N 
ATOM      3  C   UNL     1      -1.512   5.750   6.940  0.00  0.00    +0.000 A 
ATOM      4  C   UNL     1      -1.772   6.626   7.987  0.00  0.00    +0.000 A 
ATOM      5  C   UNL     1      -2.476   6.175   9.102  0.00  0.00    +0.000 A 
ATOM      6  C   UNL     1      -2.892   4.856   9.120  0.00  0.00    +0.000 A 
ATOM      7  N   UNL     1      -2.627   4.006   8.105  0.00  0.00    +0.000 NA
ATOM      8  N   UNL     1      -1.923   4.462   7.022  0.00  0.00    +0.000 NA
ATOM      9  H   UNL     1      -1.266   7.043   5.451  0.00  0.00    +0.000 HD
BRANCH   6  10
ATOM     10  C   UNL     1      -3.671   4.297  10.262  0.00  0.00    +0.000 C 
ATOM     11  N   UNL     1      -4.047   2.990  10.151  0.00  0.00    +0.000 N 
ATOM     12  O   UNL     1      -3.966   4.974  11.240  0.00  0.00    +0.000 OA
ATOM     13  H   UNL     1      -3.806   2.444   9.330  0.00  0.00    +0.000 HD
ATOM     14  H   UNL     1      -4.589   2.563  10.890  0.00  0.00    +0.000 HD
ENDBRANCH   6  10
ENDBRANCH   1   2
BRANCH   1  15
ATOM     15  C   UNL     1       0.145   5.677   3.580  0.00  0.00    +0.000 C 
BRANCH  15  20
ATOM     16  C   UNL     1       1.348   2.470   1.930  0.00  0.00    +0.000 A 
ATOM     17  C   UNL     1       0.315   2.224   1.027  0.00  0.00    +0.000 A 
ATOM     18  C   UNL     1      -0.705   3.157   0.860  0.00  0.00    +0.000 A 
ATOM     19  C   UNL     1      -0.718   4.318   1.631  0.00  0.00    +0.000 A 
ATOM     20  C   UNL     1       0.276   4.537   2.595  0.00  0.00    +0.000 A 
ATOM     21  C   UNL     1       1.321   3.609   2.731  0.00  0.00    +0.000 A 
BRANCH  16  22
ATOM     22  O   UNL     1       2.339   1.526   1.961  0.00  0.00    +0.000 OA
BRANCH  22  27
ATOM     23  C   UNL     1       3.838   3.814   0.395  0.00  0.00    +0.000 C 
ATOM     24  C   UNL     1       4.489   2.897   1.409  0.00  0.00    +0.000 C 
ATOM     25  O   UNL     1       5.139   1.765   0.761  0.00  0.00    +0.000 OA
ATOM     26  C   UNL     1       4.766   0.926   1.887  0.00  0.00    +0.000 C 
ATOM     27  C   UNL     1       3.681   1.933   2.321  0.00  0.00    +0.000 C 
ENDBRANCH  22  27
ENDBRANCH  16  22
ENDBRANCH  15  20
ENDBRANCH   1  15
TORSDOF 6
