REMARK  Name = 
REMARK  7 active torsions:
REMARK  status: ('A' for Active; 'I' for Inactive)
REMARK    1  A    between atoms: C_1  and  C_2
REMARK    2  A    between atoms: C_2  and  C_3
REMARK    3  A    between atoms: C_2  and  C_4
REMARK    4  A    between atoms: C_2  and  C_5
REMARK    5  A    between atoms: N_7  and  C_8
REMARK    6  A    between atoms: C_8  and  C_9
REMARK    7  A    between atoms: C_18  and  C_19
REMARK                            x       y       z     vdW  Elec       q    Type
REMARK                         _______ _______ _______ _____ _____    ______ ____
ROOT
ATOM      1  C   UNL     1       2.952   1.074   0.924  0.00  0.00    +0.000 A 
ATOM      2  C   UNL     1       3.671   1.032   2.109  0.00  0.00    +0.000 A 
ATOM      3  N   UNL     1       3.823   2.310   2.591  0.00  0.00    +0.000 N 
ATOM      4  C   UNL     1       3.250   3.210   1.719  0.00  0.00    +0.000 A 
ATOM      5  C   UNL     1       3.154   4.606   1.717  0.00  0.00    +0.000 A 
ATOM      6  C   UNL     1       2.435   5.176   0.667  0.00  0.00    +0.000 A 
ATOM      7  C   UNL     1       1.875   4.350  -0.306  0.00  0.00    +0.000 A 
ATOM      8  N   UNL     1       1.981   3.010  -0.332  0.00  0.00    +0.000 NA
ATOM      9  C   UNL     1       2.680   2.459   0.689  0.00  0.00    +0.000 A 
ENDROOT
BRANCH   1  11
ATOM     10  C   UNL     1       2.987  -1.449   0.649  0.00  0.00    +0.000 C 
ATOM     11  C   UNL     1       2.516  -0.102   0.057  0.00  0.00    +0.000 C 
ATOM     12  C   UNL     1       3.112   0.017  -1.360  0.00  0.00    +0.000 C 
ATOM     13  C   UNL     1       0.978  -0.148  -0.047  0.00  0.00    +0.000 C 
ENDBRANCH   1  11
BRANCH   7  14
ATOM     14  C   UNL     1       1.095   4.922  -1.372  0.00  0.00    +0.000 C 
ATOM     15  N   UNL     1       0.468   5.420  -2.213  0.00  0.00    +0.000 NA
ENDBRANCH   7  14
BRANCH   3  16
ATOM     16  C   UNL     1       4.410   2.610   3.896  0.00  0.00    +0.000 C 
BRANCH  16  17
ATOM     17  C   UNL     1       5.893   2.753   3.814  0.00  0.00    +0.000 A 
ATOM     18  C   UNL     1       6.512   3.979   3.679  0.00  0.00    +0.000 A 
ATOM     19  N   UNL     1       7.842   4.139   3.543  0.00  0.00    +0.000 NA
ATOM     20  C   UNL     1       8.567   3.011   3.544  0.00  0.00    +0.000 A 
ATOM     21  N   UNL     1       8.087   1.769   3.700  0.00  0.00    +0.000 NA
ATOM     22  C   UNL     1       6.751   1.670   3.831  0.00  0.00    +0.000 A 
ENDBRANCH  16  17
ENDBRANCH   3  16
TORSDOF 4
