REMARK  Name = 
REMARK  6 active torsions:
REMARK  status: ('A' for Active; 'I' for Inactive)
REMARK    1  A    between atoms: C_1  and  C_2
REMARK    2  A    between atoms: C_2  and  C_3
REMARK    3  A    between atoms: C_2  and  C_4
REMARK    4  A    between atoms: C_2  and  C_19
REMARK    5  A    between atoms: C_4  and  N_5
REMARK    6  A    between atoms: C_10  and  C_11
REMARK                            x       y       z     vdW  Elec       q    Type
REMARK                         _______ _______ _______ _____ _____    ______ ____
ROOT
ATOM      1  N   UNL     1       2.847   0.901   2.376  0.00  0.00    +0.000 N 
ATOM      2  C   UNL     1       3.231   0.621   3.683  0.00  0.00    +0.000 A 
ATOM      3  N   UNL     1       3.434  -0.646   4.065  0.00  0.00    +0.000 NA
ATOM      4  C   UNL     1       3.733  -0.854   5.355  0.00  0.00    +0.000 A 
ATOM      5  C   UNL     1       3.882   0.160   6.266  0.00  0.00    +0.000 A 
ATOM      6  C   UNL     1       3.683   1.441   5.797  0.00  0.00    +0.000 A 
ATOM      7  N   UNL     1       3.310   1.668   4.517  0.00  0.00    +0.000 NA
ATOM      8  H   UNL     1       1.868   1.158   2.446  0.00  0.00    +0.000 HD
ENDROOT
BRANCH   6   9
ATOM      9  C   UNL     1       3.849   2.641   6.650  0.00  0.00    +0.000 A 
ATOM     10  C   UNL     1       4.718   2.656   7.762  0.00  0.00    +0.000 A 
ATOM     11  C   UNL     1       4.837   3.783   8.581  0.00  0.00    +0.000 A 
ATOM     12  C   UNL     1       4.098   4.920   8.293  0.00  0.00    +0.000 A 
ATOM     13  F   UNL     1       4.203   5.995   9.085  0.00  0.00    +0.000 F 
ATOM     14  C   UNL     1       3.253   4.956   7.194  0.00  0.00    +0.000 A 
ATOM     15  C   UNL     1       3.135   3.826   6.377  0.00  0.00    +0.000 A 
ENDBRANCH   6   9
BRANCH   1  16
ATOM     16  C   UNL     1       3.087  -0.185   1.428  0.00  0.00    +0.000 C 
BRANCH  16  18
ATOM     17  C   UNL     1       3.254   1.443  -0.536  0.00  0.00    +0.000 C 
ATOM     18  C   UNL     1       2.579   0.152  -0.009  0.00  0.00    +0.000 C 
ATOM     19  C   UNL     1       3.074  -0.985  -0.943  0.00  0.00    +0.000 C 
BRANCH  18  20
ATOM     20  C   UNL     1       1.037   0.257   0.004  0.00  0.00    +0.000 A 
ATOM     21  C   UNL     1       0.220  -0.878  -0.160  0.00  0.00    +0.000 A 
ATOM     22  C   UNL     1      -1.175  -0.789  -0.091  0.00  0.00    +0.000 A 
ATOM     23  C   UNL     1      -1.781   0.436   0.159  0.00  0.00    +0.000 A 
ATOM     24 CL   UNL     1      -3.494   0.541   0.267  0.00  0.00    +0.000 Cl
ATOM     25  C   UNL     1      -1.004   1.573   0.334  0.00  0.00    +0.000 A 
ATOM     26  C   UNL     1       0.390   1.483   0.255  0.00  0.00    +0.000 A 
ENDBRANCH  18  20
ENDBRANCH  16  18
ENDBRANCH   1  16
TORSDOF 4
