REMARK  Name = 
REMARK  6 active torsions:
REMARK  status: ('A' for Active; 'I' for Inactive)
REMARK    1  A    between atoms: C_2  and  C_5
REMARK    2  A    between atoms: C_9  and  N_10
REMARK    3  A    between atoms: N_10  and  C_11
REMARK    4  A    between atoms: C_11  and  C_12
REMARK    5  A    between atoms: C_17  and  C_18
REMARK    6  A    between atoms: C_22  and  C_23
REMARK                            x       y       z     vdW  Elec       q    Type
REMARK                         _______ _______ _______ _____ _____    ______ ____
ROOT
ATOM      1  C   UNL     1       4.537   3.773   5.198  0.00  0.00    +0.000 A 
ATOM      2  C   UNL     1       5.061   3.251   6.380  0.00  0.00    +0.000 A 
ATOM      3  C   UNL     1       5.330   4.097   7.455  0.00  0.00    +0.000 A 
ATOM      4  C   UNL     1       5.070   5.473   7.368  0.00  0.00    +0.000 A 
ATOM      5 CL   UNL     1       5.294   6.354   8.848  0.00  0.00    +0.000 Cl
ATOM      6  C   UNL     1       4.599   6.058   6.171  0.00  0.00    +0.000 A 
ATOM      7  C   UNL     1       4.327   5.160   5.105  0.00  0.00    +0.000 A 
ENDROOT
BRANCH   6   8
ATOM      8  C   UNL     1       4.387   7.522   5.952  0.00  0.00    +0.000 A 
ATOM      9  C   UNL     1       3.362   7.997   5.119  0.00  0.00    +0.000 A 
ATOM     10  C   UNL     1       3.216   9.359   4.904  0.00  0.00    +0.000 A 
ATOM     11  N   UNL     1       3.992  10.296   5.481  0.00  0.00    +0.000 NA
ATOM     12  C   UNL     1       4.987   9.863   6.299  0.00  0.00    +0.000 A 
ATOM     13  C   UNL     1       5.221   8.500   6.518  0.00  0.00    +0.000 A 
BRANCH  12  14
ATOM     14  C   UNL     1       5.875  10.875   7.014  0.00  0.00    +0.000 C 
ATOM     15  F   UNL     1       5.598  12.177   6.719  0.00  0.00    +0.000 F 
ATOM     16  F   UNL     1       5.789  10.776   8.373  0.00  0.00    +0.000 F 
ATOM     17  F   UNL     1       7.198  10.702   6.720  0.00  0.00    +0.000 F 
ENDBRANCH  12  14
ENDBRANCH   6   8
BRANCH   1  18
ATOM     18  C   UNL     1       4.190   2.862   4.032  0.00  0.00    +0.000 C 
BRANCH  18  19
ATOM     19  N   UNL     1       2.828   2.362   4.168  0.00  0.00    +0.000 N 
ATOM     20  H   UNL     1       2.170   3.035   4.549  0.00  0.00    +0.000 HD
BRANCH  19  25
ATOM     21  C   UNL     1       2.365   0.090   1.227  0.00  0.00    +0.000 A 
ATOM     22  C   UNL     1       1.047  -0.263   1.461  0.00  0.00    +0.000 A 
ATOM     23  N   UNL     1       0.325   0.209   2.499  0.00  0.00    +0.000 NA
ATOM     24  C   UNL     1       0.955   1.074   3.335  0.00  0.00    +0.000 A 
ATOM     25  C   UNL     1       2.269   1.528   3.198  0.00  0.00    +0.000 A 
ATOM     26  C   UNL     1       2.979   0.982   2.123  0.00  0.00    +0.000 A 
BRANCH  21  28
ATOM     27  F   UNL     1       2.360  -1.307  -0.719  0.00  0.00    +0.000 F 
ATOM     28  C   UNL     1       3.104  -0.466   0.049  0.00  0.00    +0.000 C 
ATOM     29  F   UNL     1       4.210  -1.171   0.414  0.00  0.00    +0.000 F 
ATOM     30  F   UNL     1       3.546   0.511  -0.791  0.00  0.00    +0.000 F 
ENDBRANCH  21  28
ENDBRANCH  19  25
ENDBRANCH  18  19
ENDBRANCH   1  18
TORSDOF 6
