REMARK  Name = 
REMARK  4 active torsions:
REMARK  status: ('A' for Active; 'I' for Inactive)
REMARK    1  A    between atoms: C_2  and  C_4
REMARK    2  A    between atoms: C_7  and  O_8
REMARK    3  A    between atoms: O_8  and  C_9
REMARK    4  A    between atoms: C_9  and  C_10
REMARK                            x       y       z     vdW  Elec       q    Type
REMARK                         _______ _______ _______ _____ _____    ______ ____
ROOT
ATOM      1  C   UNL     1       2.958   2.000   1.150  0.00  0.00    +0.000 A 
ATOM      2  C   UNL     1       3.909   0.986   1.054  0.00  0.00    +0.000 A 
ATOM      3  C   UNL     1       4.737   0.734   2.143  0.00  0.00    +0.000 A 
ATOM      4  C   UNL     1       4.581   1.493   3.297  0.00  0.00    +0.000 A 
ATOM      5  N   UNL     1       3.675   2.484   3.431  0.00  0.00    +0.000 NA
ATOM      6  C   UNL     1       2.893   2.721   2.343  0.00  0.00    +0.000 A 
ENDROOT
BRANCH   1   8
ATOM      7  N   UNL     1       1.796   1.395  -0.904  0.00  0.00    +0.000 N 
ATOM      8  C   UNL     1       2.069   2.362   0.024  0.00  0.00    +0.000 C 
ATOM      9  O   UNL     1       1.584   3.480  -0.067  0.00  0.00    +0.000 OA
ATOM     10  H   UNL     1       1.139   1.638  -1.637  0.00  0.00    +0.000 HD
ATOM     11  H   UNL     1       1.990   0.413  -0.763  0.00  0.00    +0.000 HD
ENDBRANCH   1   8
BRANCH   4  12
ATOM     12  O   UNL     1       5.478   1.202   4.308  0.00  0.00    +0.000 OA
BRANCH  12  13
ATOM     13  C   UNL     1       5.113   1.501   5.673  0.00  0.00    +0.000 C 
ATOM     14  C   UNL     1       4.978   0.194   6.457  0.00  0.00    +0.000 C 
ATOM     15  C   UNL     1       3.782   1.058   6.250  0.00  0.00    +0.000 C 
BRANCH  13  16
ATOM     16  C   UNL     1       5.833   2.659   6.319  0.00  0.00    +0.000 A 
ATOM     17  C   UNL     1       5.341   3.954   6.327  0.00  0.00    +0.000 A 
ATOM     18  N   UNL     1       5.937   5.007   6.934  0.00  0.00    +0.000 NA
ATOM     19  C   UNL     1       7.096   4.740   7.552  0.00  0.00    +0.000 A 
ATOM     20  N   UNL     1       7.699   3.545   7.605  0.00  0.00    +0.000 NA
ATOM     21  C   UNL     1       7.048   2.540   6.977  0.00  0.00    +0.000 A 
ENDBRANCH  13  16
ENDBRANCH  12  13
ENDBRANCH   4  12
TORSDOF 4
