REMARK  Name = 
REMARK  8 active torsions:
REMARK  status: ('A' for Active; 'I' for Inactive)
REMARK    1  A    between atoms: N_1  and  C_2
REMARK    2  A    between atoms: C_2  and  C_3
REMARK    3  A    between atoms: C_2  and  C_24
REMARK    4  A    between atoms: C_3  and  C_4
REMARK    5  A    between atoms: C_7  and  C_8
REMARK    6  A    between atoms: C_8  and  N_9
REMARK    7  A    between atoms: C_10  and  C_12
REMARK    8  A    between atoms: N_26  and  C_27
REMARK                            x       y       z     vdW  Elec       q    Type
REMARK                         _______ _______ _______ _____ _____    ______ ____
ROOT
ATOM      1  C   UNL     1       2.538   2.514  -0.369  0.00  0.00    +0.000 A 
ATOM      2  C   UNL     1       1.661   2.299  -1.440  0.00  0.00    +0.000 A 
ATOM      3  C   UNL     1       1.269   3.356  -2.267  0.00  0.00    +0.000 A 
ATOM      4  C   UNL     1       1.748   4.653  -2.047  0.00  0.00    +0.000 A 
ATOM      5  C   UNL     1       2.606   4.874  -0.961  0.00  0.00    +0.000 A 
ATOM      6  C   UNL     1       3.001   3.815  -0.134  0.00  0.00    +0.000 A 
ENDROOT
BRANCH   1   7
ATOM      7  C   UNL     1       2.935   1.375   0.543  0.00  0.00    +0.000 C 
BRANCH   7   8
ATOM      8  C   UNL     1       4.191   0.582   0.133  0.00  0.00    +0.000 C 
BRANCH   8   9
ATOM      9  C   UNL     1       3.953  -0.222  -1.154  0.00  0.00    +0.000 C 
ATOM     10  O   UNL     1       2.878  -0.687  -1.500  0.00  0.00    +0.000 OA
ATOM     11  N   UNL     1       5.157  -0.525  -1.889  0.00  0.00    +0.000 N 
ATOM     12  H   UNL     1       6.030  -0.243  -1.447  0.00  0.00    +0.000 HD
BRANCH  11  13
ATOM     13  C   UNL     1       5.134  -1.171  -3.109  0.00  0.00    +0.000 A 
ATOM     14  C   UNL     1       4.091  -1.303  -4.003  0.00  0.00    +0.000 A 
ATOM     15  N   UNL     1       4.472  -2.030  -5.101  0.00  0.00    +0.000 NA
ATOM     16  C   UNL     1       5.725  -2.350  -4.886  0.00  0.00    +0.000 A 
ATOM     17  N   UNL     1       6.186  -1.815  -3.713  0.00  0.00    +0.000 N 
ATOM     18  H   UNL     1       7.112  -1.950  -3.338  0.00  0.00    +0.000 HD
ENDBRANCH  11  13
ENDBRANCH   8   9
BRANCH   8  19
ATOM     19  N   UNL     1       5.442   1.390   0.027  0.00  0.00    +0.000 NA
ATOM     20  H   UNL     1       5.575   1.874   0.922  0.00  0.00    +0.000 HD
ATOM     21  H   UNL     1       5.276   2.157  -0.635  0.00  0.00    +0.000 HD
ENDBRANCH   8  19
ENDBRANCH   7   8
ENDBRANCH   1   7
BRANCH   4  22
ATOM     22  C   UNL     1       1.324   5.785  -2.952  0.00  0.00    +0.000 C 
BRANCH  22  23
ATOM     23  N   UNL     1       0.154   6.474  -2.466  0.00  0.00    +0.000 N 
ATOM     24  C   UNL     1      -1.121   6.089  -2.795  0.00  0.00    +0.000 C 
ATOM     25  O   UNL     1      -1.349   5.106  -3.494  0.00  0.00    +0.000 OA
ATOM     26  H   UNL     1       0.301   7.373  -2.021  0.00  0.00    +0.000 HD
BRANCH  24  27
ATOM     27  C   UNL     1      -2.214   6.890  -2.224  0.00  0.00    +0.000 A 
ATOM     28  C   UNL     1      -3.475   6.326  -2.080  0.00  0.00    +0.000 A 
ATOM     29  S   UNL     1      -4.617   7.373  -1.369  0.00  0.00    +0.000 S 
ATOM     30  C   UNL     1      -3.482   8.637  -1.276  0.00  0.00    +0.000 A 
ATOM     31  N   UNL     1      -3.831   9.853  -0.778  0.00  0.00    +0.000 NA
ATOM     32  C   UNL     1      -2.888  10.735  -0.812  0.00  0.00    +0.000 A 
ATOM     33  N   UNL     1      -1.623  10.506  -1.288  0.00  0.00    +0.000 N 
ATOM     34  C   UNL     1      -1.207   9.276  -1.742  0.00  0.00    +0.000 A 
ATOM     35  O   UNL     1      -0.040   9.075  -2.065  0.00  0.00    +0.000 OA
ATOM     36  C   UNL     1      -2.242   8.259  -1.761  0.00  0.00    +0.000 A 
ATOM     37  H   UNL     1      -0.927  11.236  -1.267  0.00  0.00    +0.000 HD
ENDBRANCH  24  27
ENDBRANCH  22  23
ENDBRANCH   4  22
TORSDOF 8
