REMARK  Name = 
REMARK  7 active torsions:
REMARK  status: ('A' for Active; 'I' for Inactive)
REMARK    1  A    between atoms: C_2  and  C_19
REMARK    2  A    between atoms: N_3  and  C_4
REMARK    3  A    between atoms: C_4  and  C_5
REMARK    4  A    between atoms: C_8  and  C_9
REMARK    5  A    between atoms: C_9  and  O_10
REMARK    6  A    between atoms: C_9  and  C_11
REMARK    7  A    between atoms: C_11  and  C_12
REMARK                            x       y       z     vdW  Elec       q    Type
REMARK                         _______ _______ _______ _____ _____    ______ ____
ROOT
ATOM      1  C   UNL     1       2.205   0.187  -2.395  0.00  0.00    +0.000 C 
ENDROOT
BRANCH   1   2
ATOM      2  C   UNL     1       3.204   0.282  -3.517  0.00  0.00    +0.000 A 
ATOM      3  C   UNL     1       3.576   1.530  -4.031  0.00  0.00    +0.000 A 
ATOM      4  C   UNL     1       4.506   1.624  -5.069  0.00  0.00    +0.000 A 
ATOM      5  C   UNL     1       5.073   0.471  -5.628  0.00  0.00    +0.000 A 
ATOM      6  C   UNL     1       4.675  -0.780  -5.126  0.00  0.00    +0.000 A 
ATOM      7  C   UNL     1       3.747  -0.874  -4.088  0.00  0.00    +0.000 A 
BRANCH   5   8
ATOM      8  C   UNL     1       6.101   0.591  -6.737  0.00  0.00    +0.000 C 
BRANCH   8   9
ATOM      9  O   UNL     1       7.351   0.126  -6.243  0.00  0.00    +0.000 OA
ATOM     10  H   UNL     1       7.202  -0.735  -5.818  0.00  0.00    +0.000 HD
ENDBRANCH   8   9
BRANCH   8  11
ATOM     11  C   UNL     1       5.670  -0.173  -8.001  0.00  0.00    +0.000 C 
BRANCH  11  12
ATOM     12  C   UNL     1       6.649  -0.098  -9.192  0.00  0.00    +0.000 C 
ATOM     13  C   UNL     1       6.048  -0.809 -10.407  0.00  0.00    +0.000 C 
ATOM     14  C   UNL     1       6.538  -2.233 -10.249  0.00  0.00    +0.000 C 
ATOM     15  N   UNL     1       7.925  -2.075  -9.813  0.00  0.00    +0.000 NA
ATOM     16  C   UNL     1       7.968  -0.856  -8.985  0.00  0.00    +0.000 C 
ATOM     17  H   UNL     1       8.512  -1.921 -10.634  0.00  0.00    +0.000 HD
ENDBRANCH  11  12
ENDBRANCH   8  11
ENDBRANCH   5   8
ENDBRANCH   1   2
BRANCH   1  20
ATOM     18  O   UNL     1       0.414   2.334  -2.699  0.00  0.00    +0.000 OA
ATOM     19  C   UNL     1       0.078   1.218  -3.086  0.00  0.00    +0.000 C 
ATOM     20  N   UNL     1       0.862   0.108  -2.909  0.00  0.00    +0.000 N 
ATOM     21  H   UNL     1       0.630  -0.743  -3.407  0.00  0.00    +0.000 HD
BRANCH  19  22
ATOM     22  C   UNL     1      -1.224   0.992  -3.724  0.00  0.00    +0.000 A 
ATOM     23  C   UNL     1      -2.265   1.884  -3.501  0.00  0.00    +0.000 A 
ATOM     24  S   UNL     1      -3.705   1.469  -4.315  0.00  0.00    +0.000 S 
ATOM     25  C   UNL     1      -2.975   0.108  -5.029  0.00  0.00    +0.000 A 
ATOM     26  N   UNL     1      -3.667  -0.684  -5.891  0.00  0.00    +0.000 NA
ATOM     27  C   UNL     1      -2.977  -1.653  -6.394  0.00  0.00    +0.000 A 
ATOM     28  N   UNL     1      -1.663  -1.912  -6.101  0.00  0.00    +0.000 N 
ATOM     29  C   UNL     1      -0.950  -1.192  -5.171  0.00  0.00    +0.000 A 
ATOM     30  O   UNL     1       0.173  -1.543  -4.826  0.00  0.00    +0.000 OA
ATOM     31  C   UNL     1      -1.661  -0.050  -4.623  0.00  0.00    +0.000 A 
ATOM     32  H   UNL     1      -1.193  -2.709  -6.501  0.00  0.00    +0.000 HD
ENDBRANCH  19  22
ENDBRANCH   1  20
TORSDOF 7
