REMARK  Name = 
REMARK  8 active torsions:
REMARK  status: ('A' for Active; 'I' for Inactive)
REMARK    1  A    between atoms: N_1  and  C_2
REMARK    2  A    between atoms: C_2  and  C_3
REMARK    3  A    between atoms: C_2  and  C_19
REMARK    4  A    between atoms: C_3  and  C_4
REMARK    5  A    between atoms: C_7  and  C_8
REMARK    6  A    between atoms: C_8  and  O_9
REMARK    7  A    between atoms: O_9  and  C_10
REMARK    8  A    between atoms: C_10  and  C_11
REMARK                            x       y       z     vdW  Elec       q    Type
REMARK                         _______ _______ _______ _____ _____    ______ ____
ROOT
ATOM      1  C   UNL     1       0.922  -0.008   0.064  0.00  0.00    +0.000 C 
ENDROOT
BRANCH   1   2
ATOM      2  C   UNL     1       0.361  -0.431   1.403  0.00  0.00    +0.000 A 
ATOM      3  C   UNL     1       1.189  -0.627   2.514  0.00  0.00    +0.000 A 
ATOM      4  C   UNL     1       0.639  -0.960   3.757  0.00  0.00    +0.000 A 
ATOM      5  C   UNL     1      -0.748  -1.091   3.920  0.00  0.00    +0.000 A 
ATOM      6  C   UNL     1      -1.576  -0.884   2.812  0.00  0.00    +0.000 A 
ATOM      7  C   UNL     1      -1.026  -0.557   1.569  0.00  0.00    +0.000 A 
BRANCH   5   8
ATOM      8  C   UNL     1      -1.324  -1.438   5.268  0.00  0.00    +0.000 C 
BRANCH   8   9
ATOM      9  O   UNL     1      -0.943  -0.417   6.182  0.00  0.00    +0.000 OA
BRANCH   9  10
ATOM     10  C   UNL     1      -1.408  -0.675   7.507  0.00  0.00    +0.000 C 
BRANCH  10  11
ATOM     11  C   UNL     1      -0.971   0.426   8.449  0.00  0.00    +0.000 A 
ATOM     12  C   UNL     1      -0.789   1.731   7.989  0.00  0.00    +0.000 A 
ATOM     13  C   UNL     1      -0.408   2.722   8.889  0.00  0.00    +0.000 A 
ATOM     14  C   UNL     1      -0.230   2.392  10.226  0.00  0.00    +0.000 A 
ATOM     15  C   UNL     1      -0.443   1.078  10.608  0.00  0.00    +0.000 A 
ATOM     16  N   UNL     1      -0.815   0.095   9.757  0.00  0.00    +0.000 NA
ENDBRANCH  10  11
ENDBRANCH   9  10
ENDBRANCH   8   9
ENDBRANCH   5   8
ENDBRANCH   1   2
BRANCH   1  17
ATOM     17  C   UNL     1       1.985  -0.931  -0.583  0.00  0.00    +0.000 C 
BRANCH  17  18
ATOM     18  C   UNL     1       2.421  -0.346  -1.921  0.00  0.00    +0.000 A 
ATOM     19  N   UNL     1       1.736  -0.669  -3.029  0.00  0.00    +0.000 NA
ATOM     20  S   UNL     1       2.395   0.123  -4.331  0.00  0.00    +0.000 S 
ATOM     21  C   UNL     1       3.613   0.928  -3.455  0.00  0.00    +0.000 A 
ATOM     22  N   UNL     1       4.523   1.778  -4.003  0.00  0.00    +0.000 NA
ATOM     23  C   UNL     1       5.350   2.277  -3.142  0.00  0.00    +0.000 A 
ATOM     24  N   UNL     1       5.344   2.004  -1.793  0.00  0.00    +0.000 N 
ATOM     25  C   UNL     1       4.429   1.164  -1.198  0.00  0.00    +0.000 A 
ATOM     26  O   UNL     1       4.419   0.960   0.010  0.00  0.00    +0.000 OA
ATOM     27  C   UNL     1       3.499   0.573  -2.127  0.00  0.00    +0.000 A 
ATOM     28  H   UNL     1       6.014   2.437  -1.175  0.00  0.00    +0.000 HD
ENDBRANCH  17  18
BRANCH  17  29
ATOM     29  N   UNL     1       1.488  -2.304  -0.807  0.00  0.00    +0.000 NA
ATOM     30  H   UNL     1       2.211  -2.822  -1.308  0.00  0.00    +0.000 HD
ATOM     31  H   UNL     1       0.721  -2.237  -1.480  0.00  0.00    +0.000 HD
ENDBRANCH  17  29
ENDBRANCH   1  17
TORSDOF 8
