REMARK  Name = 
REMARK  7 active torsions:
REMARK  status: ('A' for Active; 'I' for Inactive)
REMARK    1  A    between atoms: C_1  and  C_2
REMARK    2  A    between atoms: C_2  and  C_3
REMARK    3  A    between atoms: C_2  and  C_24
REMARK    4  A    between atoms: C_3  and  C_4
REMARK    5  A    between atoms: C_7  and  C_8
REMARK    6  A    between atoms: C_8  and  N_9
REMARK    7  A    between atoms: C_10  and  C_12
REMARK                            x       y       z     vdW  Elec       q    Type
REMARK                         _______ _______ _______ _____ _____    ______ ____
ROOT
ATOM      1  C   UNL     1       1.514  -3.116  -5.609  0.00  0.00    +0.000 C 
ENDROOT
BRANCH   1   5
ATOM      2  C   UNL     1       2.658  -0.494  -2.450  0.00  0.00    +0.000 A 
ATOM      3  C   UNL     1       3.009  -1.842  -2.376  0.00  0.00    +0.000 A 
ATOM      4  C   UNL     1       2.648  -2.708  -3.403  0.00  0.00    +0.000 A 
ATOM      5  C   UNL     1       1.947  -2.201  -4.492  0.00  0.00    +0.000 A 
ATOM      6  N   UNL     1       1.635  -0.886  -4.613  0.00  0.00    +0.000 NA
ATOM      7  C   UNL     1       1.986  -0.072  -3.593  0.00  0.00    +0.000 A 
BRANCH   2   8
ATOM      8  C   UNL     1       2.932   0.448  -1.308  0.00  0.00    +0.000 C 
BRANCH   8  10
ATOM      9  C   UNL     1       1.560  -0.804   0.460  0.00  0.00    +0.000 C 
ATOM     10  C   UNL     1       1.812   0.537  -0.245  0.00  0.00    +0.000 C 
BRANCH  10  11
ATOM     11  C   UNL     1       0.526   1.112  -0.800  0.00  0.00    +0.000 A 
ATOM     12  C   UNL     1       0.341   2.487  -0.911  0.00  0.00    +0.000 A 
ATOM     13  N   UNL     1      -0.789   3.041  -1.412  0.00  0.00    +0.000 NA
ATOM     14  C   UNL     1      -1.736   2.162  -1.809  0.00  0.00    +0.000 A 
ATOM     15  C   UNL     1      -1.561   0.796  -1.721  0.00  0.00    +0.000 A 
ATOM     16  N   UNL     1      -0.433   0.247  -1.217  0.00  0.00    +0.000 NA
ENDBRANCH  10  11
ENDBRANCH   8  10
ENDBRANCH   2   8
ENDBRANCH   1   5
BRANCH   1  17
ATOM     17  N   UNL     1       2.504  -3.197  -6.658  0.00  0.00    +0.000 N 
ATOM     18  C   UNL     1       3.436  -4.198  -6.707  0.00  0.00    +0.000 C 
ATOM     19  O   UNL     1       3.473  -5.100  -5.875  0.00  0.00    +0.000 OA
ATOM     20  H   UNL     1       2.651  -2.342  -7.186  0.00  0.00    +0.000 HD
BRANCH  18  21
ATOM     21  C   UNL     1       4.346  -4.182  -7.859  0.00  0.00    +0.000 A 
ATOM     22  C   UNL     1       4.931  -5.368  -8.284  0.00  0.00    +0.000 A 
ATOM     23  S   UNL     1       5.933  -5.184  -9.651  0.00  0.00    +0.000 S 
ATOM     24  C   UNL     1       5.659  -3.505  -9.694  0.00  0.00    +0.000 A 
ATOM     25  N   UNL     1       6.268  -2.720 -10.624  0.00  0.00    +0.000 NA
ATOM     26  C   UNL     1       5.999  -1.463 -10.519  0.00  0.00    +0.000 A 
ATOM     27  N   UNL     1       5.163  -0.918  -9.577  0.00  0.00    +0.000 N 
ATOM     28  C   UNL     1       4.478  -1.679  -8.660  0.00  0.00    +0.000 A 
ATOM     29  O   UNL     1       3.657  -1.175  -7.904  0.00  0.00    +0.000 OA
ATOM     30  C   UNL     1       4.785  -3.095  -8.705  0.00  0.00    +0.000 A 
ATOM     31  H   UNL     1       4.972   0.073  -9.564  0.00  0.00    +0.000 HD
ENDBRANCH  18  21
ENDBRANCH   1  17
TORSDOF 6
