REMARK  Name = 
REMARK  8 active torsions:
REMARK  status: ('A' for Active; 'I' for Inactive)
REMARK    1  A    between atoms: C_1  and  C_2
REMARK    2  A    between atoms: C_2  and  O_3
REMARK    3  A    between atoms: C_5  and  O_6
REMARK    4  A    between atoms: O_6  and  C_7
REMARK    5  A    between atoms: C_9  and  C_10
REMARK    6  A    between atoms: C_10  and  C_13
REMARK    7  A    between atoms: C_13  and  N_14
REMARK    8  A    between atoms: C_18  and  C_19
REMARK                            x       y       z     vdW  Elec       q    Type
REMARK                         _______ _______ _______ _____ _____    ______ ____
ROOT
ATOM      1  C   UNL     1      10.176  -0.933   1.608  0.00  0.00    +0.000 C 
ATOM      2  F   UNL     1      10.627  -0.193   0.549  0.00  0.00    +0.000 F 
ATOM      3  F   UNL     1      10.124  -0.052   2.657  0.00  0.00    +0.000 F 
ENDROOT
BRANCH   1   6
ATOM      4  C   UNL     1       6.485  -1.078   0.621  0.00  0.00    +0.000 A 
ATOM      5  C   UNL     1       7.758  -0.617   0.982  0.00  0.00    +0.000 A 
ATOM      6  C   UNL     1       8.795  -1.512   1.305  0.00  0.00    +0.000 A 
ATOM      7  C   UNL     1       8.512  -2.888   1.289  0.00  0.00    +0.000 A 
ATOM      8  C   UNL     1       7.255  -3.355   0.899  0.00  0.00    +0.000 A 
ATOM      9  C   UNL     1       6.249  -2.456   0.546  0.00  0.00    +0.000 A 
ATOM     10 CL   UNL     1       4.735  -3.095   0.022  0.00  0.00    +0.000 Cl
BRANCH   4  11
ATOM     11  O   UNL     1       5.449  -0.221   0.312  0.00  0.00    +0.000 OA
BRANCH  11  15
ATOM     12  C   UNL     1       3.204   2.211   3.378  0.00  0.00    +0.000 C 
ATOM     13  C   UNL     1       3.804   1.261   2.355  0.00  0.00    +0.000 C 
ATOM     14  C   UNL     1       5.338   1.106   2.495  0.00  0.00    +0.000 C 
ATOM     15  C   UNL     1       5.431   1.082   0.949  0.00  0.00    +0.000 C 
ATOM     16  C   UNL     1       4.072   1.829   0.935  0.00  0.00    +0.000 C 
BRANCH  13  17
ATOM     17  O   UNL     1       3.040   0.036   2.357  0.00  0.00    +0.000 OA
ATOM     18  H   UNL     1       3.272  -0.423   3.180  0.00  0.00    +0.000 HD
ENDBRANCH  13  17
ENDBRANCH  11  15
ENDBRANCH   4  11
ENDBRANCH   1   6
BRANCH   1  19
ATOM     19  C   UNL     1      11.240  -2.001   1.947  0.00  0.00    +0.000 C 
BRANCH  19  20
ATOM     20  N   UNL     1      12.610  -1.487   2.182  0.00  0.00    +0.000 N 
ATOM     21  C   UNL     1      13.494  -2.522   2.542  0.00  0.00    +0.000 A 
ATOM     22  C   UNL     1      14.844  -2.251   2.801  0.00  0.00    +0.000 A 
ATOM     23  N   UNL     1      15.761  -3.197   3.147  0.00  0.00    +0.000 NA
ATOM     24  C   UNL     1      15.265  -4.464   3.205  0.00  0.00    +0.000 A 
ATOM     25  C   UNL     1      13.943  -4.756   2.931  0.00  0.00    +0.000 A 
ATOM     26  N   UNL     1      13.044  -3.797   2.595  0.00  0.00    +0.000 NA
ATOM     27  H   UNL     1      12.629  -0.739   2.879  0.00  0.00    +0.000 HD
BRANCH  24  28
ATOM     28  C   UNL     1      16.187  -5.567   3.590  0.00  0.00    +0.000 C 
ATOM     29  N   UNL     1      17.479  -5.203   3.842  0.00  0.00    +0.000 N 
ATOM     30  O   UNL     1      15.812  -6.729   3.683  0.00  0.00    +0.000 OA
ATOM     31  H   UNL     1      17.764  -4.234   3.757  0.00  0.00    +0.000 HD
ATOM     32  H   UNL     1      18.152  -5.911   4.111  0.00  0.00    +0.000 HD
ENDBRANCH  24  28
ENDBRANCH  19  20
ENDBRANCH   1  19
TORSDOF 7
