REMARK  Name = 
REMARK  5 active torsions:
REMARK  status: ('A' for Active; 'I' for Inactive)
REMARK    1  A    between atoms: N_1  and  C_2
REMARK    2  A    between atoms: C_2  and  C_3
REMARK    3  A    between atoms: C_3  and  C_4
REMARK    4  A    between atoms: C_8  and  C_9
REMARK    5  A    between atoms: C_9  and  N_10
REMARK                            x       y       z     vdW  Elec       q    Type
REMARK                         _______ _______ _______ _____ _____    ______ ____
ROOT
ATOM      1  C   UNL     1       4.474   1.097  -0.694  0.00  0.00    +0.000 A 
ATOM      2  C   UNL     1       5.222   2.164  -0.211  0.00  0.00    +0.000 A 
ATOM      3  N   UNL     1       6.570   2.221  -0.255  0.00  0.00    +0.000 NA
ATOM      4  C   UNL     1       7.209   1.170  -0.817  0.00  0.00    +0.000 A 
ATOM      5  C   UNL     1       6.566   0.059  -1.355  0.00  0.00    +0.000 A 
ATOM      6  C   UNL     1       5.171   0.029  -1.271  0.00  0.00    +0.000 A 
ENDROOT
BRANCH   1   7
ATOM      7  C   UNL     1       2.969   1.118  -0.652  0.00  0.00    +0.000 C 
BRANCH   7   8
ATOM      8  C   UNL     1       2.382   1.686  -1.951  0.00  0.00    +0.000 C 
BRANCH   8   9
ATOM      9  N   UNL     1       0.921   1.680  -1.921  0.00  0.00    +0.000 NA
ATOM     10  H   UNL     1       0.566   2.077  -2.790  0.00  0.00    +0.000 HD
ATOM     11  H   UNL     1       0.588   2.289  -1.176  0.00  0.00    +0.000 HD
ENDBRANCH   8   9
ENDBRANCH   7   8
ENDBRANCH   1   7
BRANCH   5  12
ATOM     12  C   UNL     1       7.348  -1.036  -2.024  0.00  0.00    +0.000 C 
BRANCH  12  13
ATOM     13  N   UNL     1       7.805  -2.053  -1.084  0.00  0.00    +0.000 N 
ATOM     14  C   UNL     1       9.031  -2.031  -0.462  0.00  0.00    +0.000 A 
ATOM     15  C   UNL     1       9.125  -3.148   0.334  0.00  0.00    +0.000 A 
ATOM     16  C   UNL     1       7.924  -3.891   0.183  0.00  0.00    +0.000 A 
ATOM     17  C   UNL     1       7.450  -5.093   0.745  0.00  0.00    +0.000 A 
ATOM     18  C   UNL     1       6.187  -5.575   0.382  0.00  0.00    +0.000 A 
ATOM     19  C   UNL     1       5.416  -4.884  -0.546  0.00  0.00    +0.000 A 
ATOM     20 BR   UNL     1       3.707  -5.549  -1.016  0.00  0.00    +0.000 Br
ATOM     21  C   UNL     1       5.867  -3.698  -1.133  0.00  0.00    +0.000 A 
ATOM     22  C   UNL     1       7.121  -3.204  -0.735  0.00  0.00    +0.000 A 
ENDBRANCH  12  13
ENDBRANCH   5  12
TORSDOF 5
