REMARK  Name = 
REMARK  4 active torsions:
REMARK  status: ('A' for Active; 'I' for Inactive)
REMARK    1  A    between atoms: C_2  and  C_4
REMARK    2  A    between atoms: N_8  and  C_9
REMARK    3  A    between atoms: C_9  and  C_10
REMARK    4  A    between atoms: C_14  and  C_15
REMARK                            x       y       z     vdW  Elec       q    Type
REMARK                         _______ _______ _______ _____ _____    ______ ____
ROOT
ATOM      1  C   UNL     1       5.135  -5.473  -2.328  0.00  0.00    +0.000 C 
ATOM      2  C   UNL     1       5.543  -5.024  -3.724  0.00  0.00    +0.000 C 
ATOM      3  C   UNL     1       4.224  -5.691  -3.520  0.00  0.00    +0.000 C 
ENDROOT
BRANCH   1   8
ATOM      4  C   UNL     1       1.998  -3.745   1.453  0.00  0.00    +0.000 A 
ATOM      5  C   UNL     1       1.653  -4.329   0.237  0.00  0.00    +0.000 A 
ATOM      6  C   UNL     1       2.643  -4.586  -0.708  0.00  0.00    +0.000 A 
ATOM      7  C   UNL     1       3.962  -4.245  -0.431  0.00  0.00    +0.000 A 
ATOM      8  N   UNL     1       4.994  -4.360  -1.366  0.00  0.00    +0.000 N 
ATOM      9  N   UNL     1       4.312  -3.682   0.747  0.00  0.00    +0.000 NA
ATOM     10  C   UNL     1       3.333  -3.436   1.656  0.00  0.00    +0.000 A 
ATOM     11  H   UNL     1       5.842  -4.129  -0.851  0.00  0.00    +0.000 HD
BRANCH   4  13
ATOM     12  N   UNL     1      -0.150  -4.127   2.520  0.00  0.00    +0.000 N 
ATOM     13  C   UNL     1       1.007  -3.399   2.489  0.00  0.00    +0.000 C 
ATOM     14  O   UNL     1       1.218  -2.514   3.307  0.00  0.00    +0.000 OA
ATOM     15  H   UNL     1      -0.787  -3.933   3.282  0.00  0.00    +0.000 HD
ATOM     16  H   UNL     1      -0.260  -5.004   2.029  0.00  0.00    +0.000 HD
ENDBRANCH   4  13
ENDBRANCH   1   8
BRANCH   1  17
ATOM     17  C   UNL     1       5.797  -6.695  -1.704  0.00  0.00    +0.000 A 
ATOM     18  C   UNL     1       7.189  -6.884  -1.743  0.00  0.00    +0.000 A 
ATOM     19  C   UNL     1       7.803  -7.904  -1.017  0.00  0.00    +0.000 A 
ATOM     20  C   UNL     1       7.035  -8.746  -0.217  0.00  0.00    +0.000 A 
ATOM     21  C   UNL     1       5.644  -8.596  -0.154  0.00  0.00    +0.000 A 
ATOM     22  C   UNL     1       5.040  -7.598  -0.934  0.00  0.00    +0.000 A 
BRANCH  21  23
ATOM     23  C   UNL     1       4.806  -9.378   0.840  0.00  0.00    +0.000 C 
ATOM     24  C   UNL     1       5.188  -8.968   2.276  0.00  0.00    +0.000 C 
ATOM     25  C   UNL     1       4.519  -9.859   3.314  0.00  0.00    +0.000 C 
ATOM     26  C   UNL     1       4.724 -11.324   2.965  0.00  0.00    +0.000 C 
ATOM     27  O   UNL     1       4.188 -11.599   1.671  0.00  0.00    +0.000 OA
ATOM     28  C   UNL     1       4.893 -10.897   0.642  0.00  0.00    +0.000 C 
ENDBRANCH  21  23
ENDBRANCH   1  17
TORSDOF 4
