REMARK  Name = 
REMARK  8 active torsions:
REMARK  status: ('A' for Active; 'I' for Inactive)
REMARK    1  A    between atoms: C_2  and  C_3
REMARK    2  A    between atoms: C_2  and  C_22
REMARK    3  A    between atoms: C_3  and  O_4
REMARK    4  A    between atoms: O_4  and  C_5
REMARK    5  A    between atoms: C_8  and  C_9
REMARK    6  A    between atoms: C_9  and  N_10
REMARK    7  A    between atoms: C_11  and  C_13
REMARK    8  A    between atoms: C_16  and  O_17
REMARK                            x       y       z     vdW  Elec       q    Type
REMARK                         _______ _______ _______ _____ _____    ______ ____
ROOT
ATOM      1  C   UNL     1       8.877   5.157 -11.926  0.00  0.00    +0.000 A 
ATOM      2  C   UNL     1       9.088   4.951 -10.562  0.00  0.00    +0.000 A 
ATOM      3  C   UNL     1       8.610   5.881  -9.626  0.00  0.00    +0.000 A 
ATOM      4  C   UNL     1       7.921   7.025 -10.050  0.00  0.00    +0.000 A 
ATOM      5  C   UNL     1       7.778   7.252 -11.424  0.00  0.00    +0.000 A 
ATOM      6  C   UNL     1       8.261   6.327 -12.351  0.00  0.00    +0.000 A 
ENDROOT
BRANCH   1   7
ATOM      7  O   UNL     1       9.301   4.164 -12.772  0.00  0.00    +0.000 OA
BRANCH   7   8
ATOM      8  C   UNL     1       8.597   4.104 -14.015  0.00  0.00    +0.000 C 
BRANCH   8  10
ATOM      9  O   UNL     1       9.436   1.855 -14.266  0.00  0.00    +0.000 OA
ATOM     10  C   UNL     1       8.707   2.745 -14.702  0.00  0.00    +0.000 C 
BRANCH  10  11
ATOM     11  C   UNL     1       7.928   2.543 -15.935  0.00  0.00    +0.000 A 
ATOM     12  C   UNL     1       7.652   3.558 -16.838  0.00  0.00    +0.000 A 
ATOM     13  S   UNL     1       6.790   3.019 -18.212  0.00  0.00    +0.000 S 
ATOM     14  C   UNL     1       6.748   1.421 -17.630  0.00  0.00    +0.000 A 
ATOM     15  N   UNL     1       6.140   0.432 -18.343  0.00  0.00    +0.000 NA
ATOM     16  C   UNL     1       6.192  -0.730 -17.782  0.00  0.00    +0.000 A 
ATOM     17  N   UNL     1       6.787  -0.991 -16.575  0.00  0.00    +0.000 N 
ATOM     18  C   UNL     1       7.334  -0.011 -15.777  0.00  0.00    +0.000 A 
ATOM     19  O   UNL     1       7.668  -0.259 -14.623  0.00  0.00    +0.000 OA
ATOM     20  C   UNL     1       7.366   1.300 -16.400  0.00  0.00    +0.000 A 
ATOM     21  H   UNL     1       6.739  -1.912 -16.162  0.00  0.00    +0.000 HD
ENDBRANCH  10  11
ENDBRANCH   8  10
ENDBRANCH   7   8
ENDBRANCH   1   7
BRANCH   4  22
ATOM     22  C   UNL     1       7.342   8.020  -9.076  0.00  0.00    +0.000 C 
BRANCH  22  23
ATOM     23  N   UNL     1       8.275   9.084  -8.776  0.00  0.00    +0.000 N 
ATOM     24  C   UNL     1       7.903  10.152  -7.989  0.00  0.00    +0.000 C 
ATOM     25  O   UNL     1       6.778  10.260  -7.512  0.00  0.00    +0.000 OA
ATOM     26  H   UNL     1       9.256   8.921  -8.960  0.00  0.00    +0.000 HD
BRANCH  24  27
ATOM     27  C   UNL     1       9.009  11.197  -7.779  0.00  0.00    +0.000 C 
ATOM     28  C   UNL     1       9.370  11.878  -9.111  0.00  0.00    +0.000 C 
ATOM     29  C   UNL     1      10.366  13.027  -8.935  0.00  0.00    +0.000 C 
ATOM     30  C   UNL     1       9.894  14.053  -7.908  0.00  0.00    +0.000 C 
ATOM     31  C   UNL     1       9.577  13.383  -6.574  0.00  0.00    +0.000 C 
ATOM     32  C   UNL     1       8.584  12.229  -6.718  0.00  0.00    +0.000 C 
BRANCH  30  33
ATOM     33  O   UNL     1       8.756  14.754  -8.404  0.00  0.00    +0.000 OA
ATOM     34  H   UNL     1       7.999  14.147  -8.445  0.00  0.00    +0.000 HD
ENDBRANCH  30  33
ENDBRANCH  24  27
ENDBRANCH  22  23
ENDBRANCH   4  22
TORSDOF 8
