REMARK  Name = 
REMARK  5 active torsions:
REMARK  status: ('A' for Active; 'I' for Inactive)
REMARK    1  A    between atoms: N_1  and  C_2
REMARK    2  A    between atoms: C_5  and  O_6
REMARK    3  A    between atoms: O_6  and  C_7
REMARK    4  A    between atoms: C_7  and  C_8
REMARK    5  A    between atoms: C_11  and  C_12
REMARK                            x       y       z     vdW  Elec       q    Type
REMARK                         _______ _______ _______ _____ _____    ______ ____
ROOT
ATOM      1  C   UNL     1       2.464   1.281   2.252  0.00  0.00    +0.000 C 
ENDROOT
BRANCH   1   2
ATOM      2  C   UNL     1       2.397   1.226   3.753  0.00  0.00    +0.000 A 
ATOM      3  C   UNL     1       2.417   0.037   4.476  0.00  0.00    +0.000 A 
ATOM      4  C   UNL     1       2.389   0.069   5.867  0.00  0.00    +0.000 A 
ATOM      5  C   UNL     1       2.350   1.303   6.523  0.00  0.00    +0.000 A 
ATOM      6  N   UNL     1       2.337   2.477   5.830  0.00  0.00    +0.000 NA
ATOM      7  C   UNL     1       2.361   2.413   4.481  0.00  0.00    +0.000 A 
BRANCH   5   8
ATOM      8  C   UNL     1       2.330   1.354   8.044  0.00  0.00    +0.000 C 
ATOM      9  F   UNL     1       2.364   0.119   8.629  0.00  0.00    +0.000 F 
ATOM     10  F   UNL     1       3.393   2.029   8.568  0.00  0.00    +0.000 F 
ATOM     11  F   UNL     1       1.215   1.960   8.545  0.00  0.00    +0.000 F 
ENDBRANCH   5   8
ENDBRANCH   1   2
BRANCH   1  12
ATOM     12  O   UNL     1       1.837   0.135   1.677  0.00  0.00    +0.000 OA
BRANCH  12  16
ATOM     13  C   UNL     1      -1.024  -0.039  -0.370  0.00  0.00    +0.000 C 
ATOM     14  C   UNL     1      -0.347   1.271   0.047  0.00  0.00    +0.000 C 
ATOM     15  C   UNL     1       1.118   1.274  -0.389  0.00  0.00    +0.000 C 
ATOM     16  C   UNL     1       1.878   0.100   0.244  0.00  0.00    +0.000 C 
ATOM     17  C   UNL     1       1.223  -1.217  -0.199  0.00  0.00    +0.000 C 
ATOM     18  C   UNL     1      -0.268  -1.263   0.162  0.00  0.00    +0.000 C 
BRANCH  13  19
ATOM     19  N   UNL     1      -2.410  -0.066   0.094  0.00  0.00    +0.000 NA
ATOM     20  H   UNL     1      -2.889   0.783  -0.204  0.00  0.00    +0.000 HD
ATOM     21  H   UNL     1      -2.430  -0.054   1.114  0.00  0.00    +0.000 HD
ENDBRANCH  13  19
ENDBRANCH  12  16
ENDBRANCH   1  12
TORSDOF 5
