REMARK  Name = 
REMARK  5 active torsions:
REMARK  status: ('A' for Active; 'I' for Inactive)
REMARK    1  A    between atoms: C_1  and  C_2
REMARK    2  A    between atoms: C_2  and  C_3
REMARK    3  A    between atoms: C_2  and  C_14
REMARK    4  A    between atoms: C_3  and  N_4
REMARK    5  A    between atoms: C_8  and  C_9
REMARK                            x       y       z     vdW  Elec       q    Type
REMARK                         _______ _______ _______ _____ _____    ______ ____
ROOT
ATOM      1  N   UNL     1       2.719   2.562   0.288  0.00  0.00    +0.000 N 
ATOM      2  C   UNL     1       3.312   3.671   0.911  0.00  0.00    +0.000 A 
ATOM      3  C   UNL     1       3.076   4.938   0.382  0.00  0.00    +0.000 A 
ATOM      4  C   UNL     1       3.651   6.056   0.990  0.00  0.00    +0.000 A 
ATOM      5  C   UNL     1       4.457   5.892   2.116  0.00  0.00    +0.000 A 
ATOM      6  C   UNL     1       4.660   4.596   2.558  0.00  0.00    +0.000 A 
ATOM      7  N   UNL     1       4.114   3.497   1.981  0.00  0.00    +0.000 NA
ATOM      8  H   UNL     1       1.718   2.722   0.220  0.00  0.00    +0.000 HD
ENDROOT
BRANCH   5   9
ATOM      9  C   UNL     1       5.045   7.082   2.774  0.00  0.00    +0.000 C 
ATOM     10  N   UNL     1       5.810   6.913   3.897  0.00  0.00    +0.000 N 
ATOM     11  O   UNL     1       4.850   8.210   2.334  0.00  0.00    +0.000 OA
ATOM     12  H   UNL     1       6.022   6.038   4.350  0.00  0.00    +0.000 HD
ATOM     13  H   UNL     1       6.176   7.756   4.323  0.00  0.00    +0.000 HD
ENDBRANCH   5   9
BRANCH   1  14
ATOM     14  C   UNL     1       3.016   1.295   0.944  0.00  0.00    +0.000 C 
BRANCH  14  16
ATOM     15  C   UNL     1       2.691  -0.126  -1.173  0.00  0.00    +0.000 C 
ATOM     16  C   UNL     1       2.254   0.230   0.215  0.00  0.00    +0.000 C 
BRANCH  16  17
ATOM     17  C   UNL     1       1.004  -0.325   0.756  0.00  0.00    +0.000 A 
ATOM     18  C   UNL     1       0.882  -0.677   2.110  0.00  0.00    +0.000 A 
ATOM     19  C   UNL     1      -0.308  -1.227   2.602  0.00  0.00    +0.000 A 
ATOM     20  C   UNL     1      -1.383  -1.418   1.742  0.00  0.00    +0.000 A 
ATOM     21  F   UNL     1      -2.519  -1.950   2.214  0.00  0.00    +0.000 F 
ATOM     22  C   UNL     1      -1.278  -1.064   0.405  0.00  0.00    +0.000 A 
ATOM     23  F   UNL     1      -2.317  -1.235  -0.424  0.00  0.00    +0.000 F 
ATOM     24  C   UNL     1      -0.095  -0.526  -0.092  0.00  0.00    +0.000 A 
ENDBRANCH  16  17
ENDBRANCH  14  16
ENDBRANCH   1  14
TORSDOF 4
