REMARK  Name = 
REMARK  5 active torsions:
REMARK  status: ('A' for Active; 'I' for Inactive)
REMARK    1  A    between atoms: N_1  and  C_2
REMARK    2  A    between atoms: C_2  and  C_3
REMARK    3  A    between atoms: C_3  and  C_4
REMARK    4  A    between atoms: C_7  and  C_8
REMARK    5  A    between atoms: C_8  and  N_9
REMARK                            x       y       z     vdW  Elec       q    Type
REMARK                         _______ _______ _______ _____ _____    ______ ____
ROOT
ATOM      1  C   UNL     1       4.526  -0.412  -1.343  0.00  0.00    +0.000 A 
ATOM      2  C   UNL     1       5.327   0.728  -1.304  0.00  0.00    +0.000 A 
ATOM      3  C   UNL     1       6.709   0.600  -1.171  0.00  0.00    +0.000 A 
ATOM      4  C   UNL     1       7.276  -0.674  -1.097  0.00  0.00    +0.000 A 
ATOM      5  N   UNL     1       6.515  -1.797  -1.165  0.00  0.00    +0.000 NA
ATOM      6  C   UNL     1       5.175  -1.642  -1.285  0.00  0.00    +0.000 A 
ENDROOT
BRANCH   1   7
ATOM      7  C   UNL     1       3.025  -0.326  -1.406  0.00  0.00    +0.000 C 
BRANCH   7   8
ATOM      8  C   UNL     1       2.487  -0.328  -2.840  0.00  0.00    +0.000 C 
BRANCH   8   9
ATOM      9  N   UNL     1       1.025  -0.290  -2.844  0.00  0.00    +0.000 NA
ATOM     10  H   UNL     1       0.689  -0.293  -3.806  0.00  0.00    +0.000 HD
ATOM     11  H   UNL     1       0.700   0.586  -2.434  0.00  0.00    +0.000 HD
ENDBRANCH   8   9
ENDBRANCH   7   8
ENDBRANCH   1   7
BRANCH   4  12
ATOM     12  C   UNL     1       8.754  -0.869  -0.852  0.00  0.00    +0.000 C 
BRANCH  12  13
ATOM     13  N   UNL     1       9.563  -0.166  -1.836  0.00  0.00    +0.000 N 
ATOM     14  N   UNL     1      10.028   1.075  -1.548  0.00  0.00    +0.000 NA
ATOM     15  C   UNL     1      10.483   1.515  -2.724  0.00  0.00    +0.000 A 
ATOM     16  C   UNL     1      10.356   0.557  -3.752  0.00  0.00    +0.000 A 
ATOM     17  C   UNL     1      10.610   0.510  -5.125  0.00  0.00    +0.000 A 
ATOM     18  C   UNL     1      10.364  -0.705  -5.746  0.00  0.00    +0.000 A 
ATOM     19  N   UNL     1       9.931  -1.821  -5.117  0.00  0.00    +0.000 NA
ATOM     20  C   UNL     1       9.658  -1.771  -3.791  0.00  0.00    +0.000 A 
ATOM     21  C   UNL     1       9.844  -0.571  -3.118  0.00  0.00    +0.000 A 
ENDBRANCH  12  13
ENDBRANCH   4  12
TORSDOF 5
