REMARK  Name = 
REMARK  9 active torsions:
REMARK  status: ('A' for Active; 'I' for Inactive)
REMARK    1  A    between atoms: C_1  and  C_2
REMARK    2  A    between atoms: C_2  and  C_3
REMARK    3  A    between atoms: C_2  and  C_20
REMARK    4  A    between atoms: C_3  and  N_4
REMARK    5  A    between atoms: N_4  and  C_5
REMARK    6  A    between atoms: C_9  and  C_10
REMARK    7  A    between atoms: C_13  and  C_14
REMARK    8  A    between atoms: C_14  and  C_15
REMARK    9  A    between atoms: C_15  and  O_16
REMARK                            x       y       z     vdW  Elec       q    Type
REMARK                         _______ _______ _______ _____ _____    ______ ____
ROOT
ATOM      1  C   UNL     1       2.886  -3.735  -0.498  0.00  0.00    +0.000 A 
ATOM      2  C   UNL     1       1.858  -4.620  -0.827  0.00  0.00    +0.000 A 
ATOM      3  N   UNL     1       2.017  -5.794  -1.476  0.00  0.00    +0.000 NA
ATOM      4  C   UNL     1       3.279  -6.099  -1.853  0.00  0.00    +0.000 A 
ATOM      5  C   UNL     1       4.405  -5.306  -1.619  0.00  0.00    +0.000 A 
ATOM      6  C   UNL     1       4.169  -4.096  -0.937  0.00  0.00    +0.000 A 
ENDROOT
BRANCH   5   7
ATOM      7  C   UNL     1       5.751  -5.732  -2.055  0.00  0.00    +0.000 A 
ATOM      8  C   UNL     1       6.708  -4.819  -2.532  0.00  0.00    +0.000 A 
ATOM      9  C   UNL     1       7.981  -5.239  -2.944  0.00  0.00    +0.000 A 
ATOM     10  C   UNL     1       8.328  -6.593  -2.906  0.00  0.00    +0.000 A 
ATOM     11  C   UNL     1       7.387  -7.513  -2.436  0.00  0.00    +0.000 A 
ATOM     12  C   UNL     1       6.127  -7.087  -2.012  0.00  0.00    +0.000 A 
BRANCH  10  13
ATOM     13  C   UNL     1       9.692  -7.069  -3.346  0.00  0.00    +0.000 C 
BRANCH  13  14
ATOM     14  C   UNL     1      10.721  -7.070  -2.216  0.00  0.00    +0.000 C 
BRANCH  14  15
ATOM     15  O   UNL     1      10.364  -7.973  -1.176  0.00  0.00    +0.000 OA
ATOM     16  H   UNL     1       9.576  -7.603  -0.741  0.00  0.00    +0.000 HD
ENDBRANCH  14  15
ENDBRANCH  13  14
ENDBRANCH  10  13
ENDBRANCH   5   7
BRANCH   1  17
ATOM     17  N   UNL     1       2.703  -2.489   0.129  0.00  0.00    +0.000 N 
ATOM     18  H   UNL     1       3.455  -2.306   0.791  0.00  0.00    +0.000 HD
BRANCH  17  19
ATOM     19  C   UNL     1       1.373  -2.177   0.657  0.00  0.00    +0.000 C 
BRANCH  19  21
ATOM     20  C   UNL     1       1.623   0.340   0.350  0.00  0.00    +0.000 C 
ATOM     21  C   UNL     1       1.292  -0.792   1.330  0.00  0.00    +0.000 C 
BRANCH  21  22
ATOM     22  C   UNL     1       2.060  -0.743   2.645  0.00  0.00    +0.000 A 
ATOM     23  C   UNL     1       1.444  -1.214   3.817  0.00  0.00    +0.000 A 
ATOM     24  C   UNL     1       2.110  -1.185   5.044  0.00  0.00    +0.000 A 
ATOM     25  C   UNL     1       3.412  -0.689   5.116  0.00  0.00    +0.000 A 
ATOM     26  C   UNL     1       4.037  -0.232   3.962  0.00  0.00    +0.000 A 
ATOM     27 CL   UNL     1       5.648   0.371   4.045  0.00  0.00    +0.000 Cl
ATOM     28  C   UNL     1       3.375  -0.259   2.733  0.00  0.00    +0.000 A 
ENDBRANCH  21  22
ENDBRANCH  19  21
ENDBRANCH  17  19
ENDBRANCH   1  17
TORSDOF 8
