REMARK  Name = 
REMARK  5 active torsions:
REMARK  status: ('A' for Active; 'I' for Inactive)
REMARK    1  A    between atoms: C_1  and  N_2
REMARK    2  A    between atoms: C_3  and  C_5
REMARK    3  A    between atoms: N_9  and  C_10
REMARK    4  A    between atoms: C_10  and  C_11
REMARK    5  A    between atoms: C_10  and  C_12
REMARK                            x       y       z     vdW  Elec       q    Type
REMARK                         _______ _______ _______ _____ _____    ______ ____
ROOT
ATOM      1  C   UNL     1       4.608   0.422  -0.794  0.00  0.00    +0.000 A 
ATOM      2  C   UNL     1       5.214   1.506  -0.168  0.00  0.00    +0.000 A 
ATOM      3  C   UNL     1       6.604   1.633  -0.225  0.00  0.00    +0.000 A 
ATOM      4  C   UNL     1       7.371   0.652  -0.854  0.00  0.00    +0.000 A 
ATOM      5  N   UNL     1       8.755   0.794  -0.815  0.00  0.00    +0.000 N 
ATOM      6  N   UNL     1       6.796  -0.411  -1.448  0.00  0.00    +0.000 NA
ATOM      7  C   UNL     1       5.437  -0.501  -1.416  0.00  0.00    +0.000 A 
ATOM      8  H   UNL     1       9.062   1.621  -1.310  0.00  0.00    +0.000 HD
ENDROOT
BRANCH   1  11
ATOM      9  C   UNL     1       0.909   1.201  -0.621  0.00  0.00    +0.000 C 
ATOM     10  N   UNL     1       2.346   1.310  -0.649  0.00  0.00    +0.000 N 
ATOM     11  C   UNL     1       3.143   0.191  -0.781  0.00  0.00    +0.000 C 
ATOM     12  O   UNL     1       2.698  -0.945  -0.900  0.00  0.00    +0.000 OA
ATOM     13  H   UNL     1       2.752   2.233  -0.716  0.00  0.00    +0.000 HD
ENDBRANCH   1  11
BRANCH   5  14
ATOM     14  C   UNL     1       9.600  -0.382  -1.010  0.00  0.00    +0.000 C 
ATOM     15  C   UNL     1       9.838  -0.711  -2.484  0.00  0.00    +0.000 C 
BRANCH  14  16
ATOM     16  C   UNL     1      10.931  -0.117  -0.308  0.00  0.00    +0.000 A 
ATOM     17  C   UNL     1      11.359  -0.946   0.742  0.00  0.00    +0.000 A 
ATOM     18  C   UNL     1      12.574  -0.715   1.389  0.00  0.00    +0.000 A 
ATOM     19  C   UNL     1      13.382   0.351   1.003  0.00  0.00    +0.000 A 
ATOM     20  C   UNL     1      12.977   1.188  -0.036  0.00  0.00    +0.000 A 
ATOM     21  C   UNL     1      11.763   0.955  -0.686  0.00  0.00    +0.000 A 
ENDBRANCH  14  16
ENDBRANCH   5  14
TORSDOF 3
