REMARK  Name = 
REMARK  6 active torsions:
REMARK  status: ('A' for Active; 'I' for Inactive)
REMARK    1  A    between atoms: C_1  and  O_2
REMARK    2  A    between atoms: O_2  and  C_3
REMARK    3  A    between atoms: C_5  and  C_6
REMARK    4  A    between atoms: C_6  and  N_7
REMARK    5  A    between atoms: N_7  and  C_8
REMARK    6  A    between atoms: C_11  and  C_12
REMARK                            x       y       z     vdW  Elec       q    Type
REMARK                         _______ _______ _______ _____ _____    ______ ____
ROOT
ATOM      1  N   UNL     1       3.541  -4.107   3.907  0.00  0.00    +0.000 N 
ATOM      2  H   UNL     1       2.819  -3.801   4.551  0.00  0.00    +0.000 HD
ENDROOT
BRANCH   1   3
ATOM      3  C   UNL     1       4.710  -4.587   4.502  0.00  0.00    +0.000 A 
ATOM      4  C   UNL     1       5.826  -5.075   3.846  0.00  0.00    +0.000 A 
ATOM      5  N   UNL     1       6.921  -5.592   4.462  0.00  0.00    +0.000 NA
ATOM      6  C   UNL     1       6.883  -5.587   5.818  0.00  0.00    +0.000 A 
ATOM      7  N   UNL     1       5.878  -5.108   6.570  0.00  0.00    +0.000 NA
ATOM      8  C   UNL     1       4.825  -4.623   5.885  0.00  0.00    +0.000 A 
BRANCH   6   9
ATOM      9  C   UNL     1       8.037  -6.239   6.550  0.00  0.00    +0.000 C 
ATOM     10  N   UNL     1       9.009  -6.805   5.758  0.00  0.00    +0.000 N 
ATOM     11  O   UNL     1       8.127  -6.301   7.773  0.00  0.00    +0.000 OA
ATOM     12  H   UNL     1       8.917  -6.795   4.751  0.00  0.00    +0.000 HD
ATOM     13  H   UNL     1       9.761  -7.309   6.206  0.00  0.00    +0.000 HD
ENDBRANCH   6   9
ENDBRANCH   1   3
BRANCH   1  14
ATOM     14  C   UNL     1       3.236  -4.050   2.471  0.00  0.00    +0.000 C 
ATOM     15  C   UNL     1       3.119  -5.313   1.643  0.00  0.00    +0.000 C 
ATOM     16  C   UNL     1       1.871  -4.627   2.086  0.00  0.00    +0.000 C 
BRANCH  14  19
ATOM     17  C   UNL     1       4.628  -1.277   0.214  0.00  0.00    +0.000 A 
ATOM     18  C   UNL     1       4.469  -2.533   0.787  0.00  0.00    +0.000 A 
ATOM     19  C   UNL     1       3.544  -2.702   1.825  0.00  0.00    +0.000 A 
ATOM     20  C   UNL     1       2.853  -1.554   2.246  0.00  0.00    +0.000 A 
ATOM     21  C   UNL     1       3.083  -0.341   1.622  0.00  0.00    +0.000 A 
ATOM     22  N   UNL     1       3.950  -0.180   0.608  0.00  0.00    +0.000 NA
BRANCH  17  24
ATOM     23  C   UNL     1       5.564   0.130  -1.400  0.00  0.00    +0.000 C 
ATOM     24  O   UNL     1       5.533  -1.175  -0.825  0.00  0.00    +0.000 OA
ENDBRANCH  17  24
ENDBRANCH  14  19
ENDBRANCH   1  14
TORSDOF 5
