REMARK  Name = 
REMARK  14 active torsions:
REMARK  status: ('A' for Active; 'I' for Inactive)
REMARK    1  A    between atoms: C_1  and  C_2
REMARK    2  A    between atoms: C_2  and  N_3
REMARK    3  A    between atoms: N_3  and  C_4
REMARK    4  A    between atoms: C_5  and  C_7
REMARK    5  A    between atoms: C_7  and  N_8
REMARK    6  A    between atoms: N_8  and  C_9
REMARK    7  A    between atoms: N_8  and  C_10
REMARK    8  A    between atoms: C_10  and  C_11
REMARK    9  A    between atoms: C_15  and  C_16
REMARK   10  A    between atoms: C_16  and  O_17
REMARK   11  A    between atoms: C_16  and  C_18
REMARK   12  A    between atoms: C_18  and  O_19
REMARK   13  A    between atoms: O_19  and  C_20
REMARK   14  A    between atoms: C_24  and  C_25
REMARK                            x       y       z     vdW  Elec       q    Type
REMARK                         _______ _______ _______ _____ _____    ______ ____
ROOT
ATOM      1  C   UNL     1       8.414   3.685   2.557  0.00  0.00    +0.000 A 
ATOM      2  C   UNL     1       9.082   3.539   3.776  0.00  0.00    +0.000 A 
ATOM      3  C   UNL     1      10.454   3.640   3.842  0.00  0.00    +0.000 A 
ATOM      4  C   UNL     1      11.172   3.758   2.667  0.00  0.00    +0.000 A 
ATOM      5  C   UNL     1      10.472   3.827   1.454  0.00  0.00    +0.000 A 
ATOM      6  N   UNL     1       9.116   3.838   1.409  0.00  0.00    +0.000 NA
ENDROOT
BRANCH   1   7
ATOM      7  C   UNL     1       6.890   3.655   2.456  0.00  0.00    +0.000 C 
BRANCH   7   8
ATOM      8  N   UNL     1       6.140   3.481   3.726  0.00  0.00    +0.000 NA
ATOM      9  C   UNL     1       4.703   3.323   3.441  0.00  0.00    +0.000 C 
BRANCH   8  10
ATOM     10  C   UNL     1       6.339   4.642   4.617  0.00  0.00    +0.000 C 
BRANCH  10  13
ATOM     11  N   UNL     1       5.372   5.627   6.675  0.00  0.00    +0.000 N 
ATOM     12  C   UNL     1       5.657   6.948   6.126  0.00  0.00    +0.000 C 
ATOM     13  C   UNL     1       5.697   4.447   6.009  0.00  0.00    +0.000 C 
ATOM     14  O   UNL     1       5.511   3.347   6.507  0.00  0.00    +0.000 OA
BRANCH  11  16
ATOM     15  C   UNL     1       5.573   5.417   9.163  0.00  0.00    +0.000 C 
ATOM     16  C   UNL     1       4.664   5.513   7.945  0.00  0.00    +0.000 C 
ENDBRANCH  11  16
ENDBRANCH  10  13
ENDBRANCH   8  10
ENDBRANCH   7   8
ENDBRANCH   1   7
BRANCH   5  17
ATOM     17  C   UNL     1      11.240   3.782   0.135  0.00  0.00    +0.000 C 
BRANCH  17  18
ATOM     18  O   UNL     1      11.950   2.539   0.008  0.00  0.00    +0.000 OA
ATOM     19  H   UNL     1      11.498   1.877   0.560  0.00  0.00    +0.000 HD
ENDBRANCH  17  18
BRANCH  17  20
ATOM     20  C   UNL     1      10.297   3.953  -1.063  0.00  0.00    +0.000 C 
BRANCH  20  21
ATOM     21  O   UNL     1      10.996   3.928  -2.321  0.00  0.00    +0.000 OA
BRANCH  21  22
ATOM     22  C   UNL     1      10.184   4.095  -3.419  0.00  0.00    +0.000 A 
ATOM     23  C   UNL     1       8.799   4.274  -3.362  0.00  0.00    +0.000 A 
ATOM     24  C   UNL     1       8.098   4.453  -4.529  0.00  0.00    +0.000 A 
ATOM     25  N   UNL     1       8.661   4.467  -5.748  0.00  0.00    +0.000 NA
ATOM     26  C   UNL     1      10.015   4.289  -5.788  0.00  0.00    +0.000 A 
ATOM     27  C   UNL     1      10.808   4.097  -4.661  0.00  0.00    +0.000 A 
BRANCH  26  28
ATOM     28  C   UNL     1      10.636   4.319  -7.146  0.00  0.00    +0.000 C 
ATOM     29  N   UNL     1       9.762   4.516  -8.181  0.00  0.00    +0.000 N 
ATOM     30  O   UNL     1      11.840   4.183  -7.336  0.00  0.00    +0.000 OA
ATOM     31  H   UNL     1       8.776   4.624  -7.995  0.00  0.00    +0.000 HD
ATOM     32  H   UNL     1      10.114   4.537  -9.134  0.00  0.00    +0.000 HD
ENDBRANCH  26  28
ENDBRANCH  21  22
ENDBRANCH  20  21
ENDBRANCH  17  20
ENDBRANCH   5  17
TORSDOF 11
