REMARK  Name = 
REMARK  8 active torsions:
REMARK  status: ('A' for Active; 'I' for Inactive)
REMARK    1  A    between atoms: N_1  and  C_2
REMARK    2  A    between atoms: C_2  and  C_3
REMARK    3  A    between atoms: C_3  and  N_4
REMARK    4  A    between atoms: C_3  and  C_12
REMARK    5  A    between atoms: C_5  and  C_7
REMARK    6  A    between atoms: C_15  and  C_16
REMARK    7  A    between atoms: C_16  and  N_17
REMARK    8  A    between atoms: C_18  and  C_20
REMARK                            x       y       z     vdW  Elec       q    Type
REMARK                         _______ _______ _______ _____ _____    ______ ____
ROOT
ATOM      1  C   UNL     1       4.335   1.267  -0.678  0.00  0.00    +0.000 A 
ATOM      2  C   UNL     1       4.996   1.464  -1.900  0.00  0.00    +0.000 A 
ATOM      3  C   UNL     1       6.395   1.498  -1.961  0.00  0.00    +0.000 A 
ATOM      4  C   UNL     1       7.164   1.329  -0.802  0.00  0.00    +0.000 A 
ATOM      5  C   UNL     1       6.506   1.174   0.424  0.00  0.00    +0.000 A 
ATOM      6  C   UNL     1       5.110   1.143   0.486  0.00  0.00    +0.000 A 
ENDROOT
BRANCH   1   7
ATOM      7  C   UNL     1       2.813   1.159  -0.630  0.00  0.00    +0.000 C 
BRANCH   7   8
ATOM      8  N   UNL     1       2.275   2.267   0.147  0.00  0.00    +0.000 N 
ATOM      9  C   UNL     1       0.924   2.556   0.220  0.00  0.00    +0.000 C 
ATOM     10  O   UNL     1       0.076   1.832  -0.297  0.00  0.00    +0.000 OA
ATOM     11  H   UNL     1       2.904   2.983   0.499  0.00  0.00    +0.000 HD
BRANCH   9  12
ATOM     12  C   UNL     1       0.629   3.785   0.955  0.00  0.00    +0.000 A 
ATOM     13  N   UNL     1       1.569   4.590   1.425  0.00  0.00    +0.000 NA
ATOM     14  C   UNL     1       0.969   5.669   2.048  0.00  0.00    +0.000 A 
ATOM     15  C   UNL     1      -0.410   5.664   2.059  0.00  0.00    +0.000 A 
ATOM     16  S   UNL     1      -0.990   4.266   1.257  0.00  0.00    +0.000 S 
ENDBRANCH   9  12
ENDBRANCH   7   8
BRANCH   7  17
ATOM     17  C   UNL     1       2.357  -0.232  -0.079  0.00  0.00    +0.000 C 
BRANCH  17  18
ATOM     18  N   UNL     1       2.863  -1.386  -0.837  0.00  0.00    +0.000 NA
ATOM     19  H   UNL     1       2.697  -2.234  -0.297  0.00  0.00    +0.000 HD
ATOM     20  H   UNL     1       3.875  -1.308  -0.942  0.00  0.00    +0.000 HD
ENDBRANCH  17  18
ENDBRANCH   7  17
ENDBRANCH   1   7
BRANCH   4  21
ATOM     21  C   UNL     1       8.670   1.347  -0.857  0.00  0.00    +0.000 C 
BRANCH  21  22
ATOM     22  N   UNL     1       9.183   2.679  -0.661  0.00  0.00    +0.000 N 
ATOM     23  C   UNL     1      10.529   2.943  -0.730  0.00  0.00    +0.000 C 
ATOM     24  O   UNL     1      11.348   2.073  -1.005  0.00  0.00    +0.000 OA
ATOM     25  H   UNL     1       8.565   3.348  -0.215  0.00  0.00    +0.000 HD
BRANCH  23  26
ATOM     26  C   UNL     1      10.931   4.338  -0.520  0.00  0.00    +0.000 A 
ATOM     27  C   UNL     1      12.141   4.793  -1.035  0.00  0.00    +0.000 A 
ATOM     28  S   UNL     1      12.423   6.449  -0.755  0.00  0.00    +0.000 S 
ATOM     29  C   UNL     1      10.967   6.610   0.111  0.00  0.00    +0.000 A 
ATOM     30  N   UNL     1      10.605   7.802   0.657  0.00  0.00    +0.000 NA
ATOM     31  C   UNL     1       9.495   7.771   1.317  0.00  0.00    +0.000 A 
ATOM     32  N   UNL     1       8.713   6.658   1.477  0.00  0.00    +0.000 N 
ATOM     33  C   UNL     1       9.023   5.441   0.919  0.00  0.00    +0.000 A 
ATOM     34  O   UNL     1       8.279   4.473   1.047  0.00  0.00    +0.000 OA
ATOM     35  C   UNL     1      10.267   5.418   0.172  0.00  0.00    +0.000 A 
ATOM     36  H   UNL     1       7.852   6.700   2.001  0.00  0.00    +0.000 HD
ENDBRANCH  23  26
ENDBRANCH  21  22
ENDBRANCH   4  21
TORSDOF 8
