REMARK  Name = 
REMARK  8 active torsions:
REMARK  status: ('A' for Active; 'I' for Inactive)
REMARK    1  A    between atoms: N_1  and  C_2
REMARK    2  A    between atoms: C_2  and  C_3
REMARK    3  A    between atoms: C_2  and  C_27
REMARK    4  A    between atoms: C_3  and  N_4
REMARK    5  A    between atoms: C_5  and  C_7
REMARK    6  A    between atoms: C_10  and  C_11
REMARK    7  A    between atoms: C_11  and  N_12
REMARK    8  A    between atoms: C_13  and  C_15
REMARK                            x       y       z     vdW  Elec       q    Type
REMARK                         _______ _______ _______ _____ _____    ______ ____
ROOT
ATOM      1  C   UNL     1      -0.921   5.671   5.529  0.00  0.00    +0.000 C 
ATOM      2  C   UNL     1      -0.542   4.690   6.634  0.00  0.00    +0.000 C 
ATOM      3  C   UNL     1       0.881   4.166   6.488  0.00  0.00    +0.000 C 
ATOM      4  C   UNL     1       1.903   5.310   6.365  0.00  0.00    +0.000 C 
ATOM      5  C   UNL     1       1.516   6.309   5.262  0.00  0.00    +0.000 C 
ATOM      6  C   UNL     1       0.085   6.807   5.403  0.00  0.00    +0.000 C 
ENDROOT
BRANCH   1   8
ATOM      7  N   UNL     1      -2.390   5.082   3.621  0.00  0.00    +0.000 N 
ATOM      8  C   UNL     1      -1.156   4.955   4.191  0.00  0.00    +0.000 C 
ATOM      9  O   UNL     1      -0.293   4.289   3.612  0.00  0.00    +0.000 OA
ATOM     10  H   UNL     1      -2.570   4.467   2.831  0.00  0.00    +0.000 HD
BRANCH   7  11
ATOM     11  C   UNL     1      -3.521   5.760   4.225  0.00  0.00    +0.000 C 
BRANCH  11  12
ATOM     12  C   UNL     1      -4.782   5.720   3.365  0.00  0.00    +0.000 C 
BRANCH  12  13
ATOM     13  C   UNL     1      -5.897   6.430   4.172  0.00  0.00    +0.000 C 
ATOM     14  O   UNL     1      -6.648   5.771   4.899  0.00  0.00    +0.000 OA
ATOM     15  N   UNL     1      -5.968   7.817   4.116  0.00  0.00    +0.000 N 
ATOM     16  C   UNL     1      -5.155   8.714   3.285  0.00  0.00    +0.000 C 
ATOM     17  C   UNL     1      -4.471   9.765   4.165  0.00  0.00    +0.000 C 
ATOM     18  O   UNL     1      -5.446  10.509   4.911  0.00  0.00    +0.000 OA
ATOM     19  C   UNL     1      -6.226   9.645   5.756  0.00  0.00    +0.000 C 
ATOM     20  C   UNL     1      -6.937   8.550   4.943  0.00  0.00    +0.000 C 
ENDBRANCH  12  13
BRANCH  12  21
ATOM     21  N   UNL     1      -5.120   4.309   3.051  0.00  0.00    +0.000 NA
ATOM     22  H   UNL     1      -5.896   4.293   2.390  0.00  0.00    +0.000 HD
ATOM     23  H   UNL     1      -5.487   3.872   3.903  0.00  0.00    +0.000 HD
ENDBRANCH  12  21
ENDBRANCH  11  12
ENDBRANCH   7  11
ENDBRANCH   1   8
BRANCH   4  24
ATOM     24  C   UNL     1       3.313   4.775   6.077  0.00  0.00    +0.000 C 
BRANCH  24  25
ATOM     25  N   UNL     1       3.793   3.891   7.111  0.00  0.00    +0.000 N 
ATOM     26  C   UNL     1       4.430   4.334   8.240  0.00  0.00    +0.000 C 
ATOM     27  O   UNL     1       4.627   5.525   8.467  0.00  0.00    +0.000 OA
ATOM     28  H   UNL     1       3.802   2.902   6.887  0.00  0.00    +0.000 HD
BRANCH  26  29
ATOM     29  C   UNL     1       4.801   3.295   9.206  0.00  0.00    +0.000 A 
ATOM     30  C   UNL     1       4.924   3.609  10.553  0.00  0.00    +0.000 A 
ATOM     31  S   UNL     1       5.296   2.261  11.531  0.00  0.00    +0.000 S 
ATOM     32  C   UNL     1       5.358   1.229  10.179  0.00  0.00    +0.000 A 
ATOM     33  N   UNL     1       5.638  -0.099  10.321  0.00  0.00    +0.000 NA
ATOM     34  C   UNL     1       5.668  -0.756   9.212  0.00  0.00    +0.000 A 
ATOM     35  N   UNL     1       5.440  -0.217   7.977  0.00  0.00    +0.000 N 
ATOM     36  C   UNL     1       5.130   1.108   7.786  0.00  0.00    +0.000 A 
ATOM     37  O   UNL     1       4.887   1.549   6.666  0.00  0.00    +0.000 OA
ATOM     38  C   UNL     1       5.085   1.895   9.003  0.00  0.00    +0.000 A 
ATOM     39  H   UNL     1       5.464  -0.789   7.143  0.00  0.00    +0.000 HD
ENDBRANCH  26  29
ENDBRANCH  24  25
ENDBRANCH   4  24
TORSDOF 8
