REMARK  Name = 
REMARK  9 active torsions:
REMARK  status: ('A' for Active; 'I' for Inactive)
REMARK    1  A    between atoms: N_1  and  C_2
REMARK    2  A    between atoms: C_2  and  C_3
REMARK    3  A    between atoms: C_3  and  N_4
REMARK    4  A    between atoms: N_4  and  C_5
REMARK    5  A    between atoms: C_5  and  C_6
REMARK    6  A    between atoms: C_9  and  C_10
REMARK    7  A    between atoms: C_10  and  N_11
REMARK    8  A    between atoms: N_11  and  C_12
REMARK    9  A    between atoms: C_20  and  C_22
REMARK                            x       y       z     vdW  Elec       q    Type
REMARK                         _______ _______ _______ _____ _____    ______ ____
ROOT
ATOM      1  N   UNL     1       6.521  -0.095   0.743  0.00  0.00    +0.000 N 
ATOM      2  C   UNL     1       6.879  -0.498   2.064  0.00  0.00    +0.000 C 
ATOM      3  O   UNL     1       8.030  -0.325   2.467  0.00  0.00    +0.000 OA
ENDROOT
BRANCH   2   4
ATOM      4  C   UNL     1       5.903  -1.155   2.946  0.00  0.00    +0.000 A 
ATOM      5  C   UNL     1       5.044  -2.153   2.540  0.00  0.00    +0.000 A 
ATOM      6  S   UNL     1       4.038  -2.784   3.757  0.00  0.00    +0.000 S 
ATOM      7  C   UNL     1       4.872  -1.896   4.936  0.00  0.00    +0.000 A 
ATOM      8  N   UNL     1       4.595  -2.095   6.256  0.00  0.00    +0.000 NA
ATOM      9  C   UNL     1       5.362  -1.419   7.052  0.00  0.00    +0.000 A 
ATOM     10  N   UNL     1       6.324  -0.534   6.647  0.00  0.00    +0.000 N 
ATOM     11  C   UNL     1       6.543  -0.203   5.324  0.00  0.00    +0.000 A 
ATOM     12  O   UNL     1       7.242   0.751   5.018  0.00  0.00    +0.000 OA
ATOM     13  C   UNL     1       5.804  -1.035   4.385  0.00  0.00    +0.000 A 
ATOM     14  H   UNL     1       6.831   0.012   7.324  0.00  0.00    +0.000 HD
ENDBRANCH   2   4
BRANCH   1  15
ATOM     15  C   UNL     1       7.583   0.637   0.026  0.00  0.00    +0.000 C 
BRANCH  15  16
ATOM     16  C   UNL     1       7.429   0.954  -1.477  0.00  0.00    +0.000 C 
BRANCH  16  17
ATOM     17  N   UNL     1       6.334   1.868  -1.823  0.00  0.00    +0.000 NA
ATOM     18  H   UNL     1       6.329   2.007  -2.836  0.00  0.00    +0.000 HD
ATOM     19  H   UNL     1       6.514   2.787  -1.417  0.00  0.00    +0.000 HD
ENDBRANCH  16  17
ENDBRANCH  15  16
ENDBRANCH   1  15
BRANCH   1  20
ATOM     20  C   UNL     1       5.124   0.095   0.313  0.00  0.00    +0.000 C 
BRANCH  20  21
ATOM     21  C   UNL     1       4.595  -0.858  -0.753  0.00  0.00    +0.000 A 
ATOM     22  C   UNL     1       3.865  -0.379  -1.833  0.00  0.00    +0.000 A 
ATOM     23  N   UNL     1       3.042  -1.158  -2.586  0.00  0.00    +0.000 NA
ATOM     24  C   UNL     1       2.937  -2.462  -2.218  0.00  0.00    +0.000 A 
ATOM     25  C   UNL     1       3.728  -2.958  -1.195  0.00  0.00    +0.000 A 
ATOM     26  N   UNL     1       4.582  -2.189  -0.483  0.00  0.00    +0.000 NA
BRANCH  24  27
ATOM     27  C   UNL     1       1.824  -3.338  -2.775  0.00  0.00    +0.000 C 
BRANCH  27  28
ATOM     28  N   UNL     1       1.488  -3.065  -4.169  0.00  0.00    +0.000 NA
ATOM     29  H   UNL     1       2.341  -3.054  -4.725  0.00  0.00    +0.000 HD
BRANCH  28  30
ATOM     30  C   UNL     1       0.494  -3.985  -4.745  0.00  0.00    +0.000 C 
ATOM     31  C   UNL     1       0.268  -3.570  -6.208  0.00  0.00    +0.000 C 
ATOM     32  C   UNL     1      -0.491  -2.243  -6.289  0.00  0.00    +0.000 C 
ATOM     33  C   UNL     1      -1.800  -2.299  -5.502  0.00  0.00    +0.000 C 
ATOM     34  N   UNL     1      -1.617  -2.735  -4.118  0.00  0.00    +0.000 NA
ATOM     35  C   UNL     1      -0.893  -4.009  -4.041  0.00  0.00    +0.000 C 
ATOM     36  H   UNL     1      -2.525  -2.826  -3.667  0.00  0.00    +0.000 HD
ENDBRANCH  28  30
ENDBRANCH  27  28
ENDBRANCH  24  27
ENDBRANCH  20  21
ENDBRANCH   1  20
TORSDOF 9
