REMARK  Name = 
REMARK  5 active torsions:
REMARK  status: ('A' for Active; 'I' for Inactive)
REMARK    1  A    between atoms: C_2  and  C_17
REMARK    2  A    between atoms: N_3  and  C_4
REMARK    3  A    between atoms: C_4  and  C_5
REMARK    4  A    between atoms: C_8  and  C_9
REMARK    5  A    between atoms: C_9  and  C_10
REMARK                            x       y       z     vdW  Elec       q    Type
REMARK                         _______ _______ _______ _____ _____    ______ ____
ROOT
ATOM      1  O   UNL     1       3.369  -1.558  -1.088  0.00  0.00    +0.000 OA
ATOM      2  C   UNL     1       3.383  -0.451  -0.557  0.00  0.00    +0.000 C 
ATOM      3  N   UNL     1       2.747   0.632  -1.102  0.00  0.00    +0.000 N 
ATOM      4  H   UNL     1       2.938   1.555  -0.731  0.00  0.00    +0.000 HD
ENDROOT
BRANCH   2   5
ATOM      5  C   UNL     1       4.047  -0.230   0.734  0.00  0.00    +0.000 A 
ATOM      6  C   UNL     1       4.278  -1.303   1.582  0.00  0.00    +0.000 A 
ATOM      7  S   UNL     1       5.038  -0.866   3.045  0.00  0.00    +0.000 S 
ATOM      8  C   UNL     1       5.131   0.766   2.574  0.00  0.00    +0.000 A 
ATOM      9  N   UNL     1       5.712   1.695   3.380  0.00  0.00    +0.000 NA
ATOM     10  C   UNL     1       5.758   2.884   2.879  0.00  0.00    +0.000 A 
ATOM     11  N   UNL     1       5.264   3.230   1.647  0.00  0.00    +0.000 N 
ATOM     12  C   UNL     1       4.597   2.345   0.836  0.00  0.00    +0.000 A 
ATOM     13  O   UNL     1       4.034   2.724  -0.187  0.00  0.00    +0.000 OA
ATOM     14  C   UNL     1       4.563   0.980   1.330  0.00  0.00    +0.000 A 
ATOM     15  H   UNL     1       5.301   4.187   1.327  0.00  0.00    +0.000 HD
ENDBRANCH   2   5
BRANCH   3  16
ATOM     16  C   UNL     1       2.136   0.590  -2.406  0.00  0.00    +0.000 C 
BRANCH  16  17
ATOM     17  C   UNL     1       3.074   1.097  -3.458  0.00  0.00    +0.000 A 
ATOM     18  C   UNL     1       3.128   2.449  -3.793  0.00  0.00    +0.000 A 
ATOM     19  C   UNL     1       4.008   2.878  -4.782  0.00  0.00    +0.000 A 
ATOM     20  C   UNL     1       4.851   1.955  -5.395  0.00  0.00    +0.000 A 
ATOM     21  N   UNL     1       4.829   0.639  -5.070  0.00  0.00    +0.000 NA
ATOM     22  C   UNL     1       3.953   0.246  -4.113  0.00  0.00    +0.000 A 
BRANCH  20  23
ATOM     23  C   UNL     1       5.817   2.376  -6.480  0.00  0.00    +0.000 C 
BRANCH  23  24
ATOM     24  C   UNL     1       6.912   3.383  -6.077  0.00  0.00    +0.000 C 
ATOM     25  C   UNL     1       7.806   2.908  -4.939  0.00  0.00    +0.000 C 
ATOM     26  C   UNL     1       8.339   4.192  -4.335  0.00  0.00    +0.000 C 
ATOM     27  C   UNL     1       7.286   5.241  -4.637  0.00  0.00    +0.000 C 
ATOM     28  N   UNL     1       6.388   4.688  -5.646  0.00  0.00    +0.000 NA
ATOM     29  H   UNL     1       6.296   5.318  -6.441  0.00  0.00    +0.000 HD
ENDBRANCH  23  24
ENDBRANCH  20  23
ENDBRANCH  16  17
ENDBRANCH   3  16
TORSDOF 5
