REMARK  Name = 
REMARK  8 active torsions:
REMARK  status: ('A' for Active; 'I' for Inactive)
REMARK    1  A    between atoms: C_1  and  C_2
REMARK    2  A    between atoms: C_2  and  N_3
REMARK    3  A    between atoms: C_2  and  C_25
REMARK    4  A    between atoms: N_3  and  C_4
REMARK    5  A    between atoms: C_4  and  C_5
REMARK    6  A    between atoms: C_9  and  C_10
REMARK    7  A    between atoms: N_12  and  C_13
REMARK    8  A    between atoms: C_13  and  C_14
REMARK                            x       y       z     vdW  Elec       q    Type
REMARK                         _______ _______ _______ _____ _____    ______ ____
ROOT
ATOM      1  C   UNL     1      -0.982   0.173   1.543  0.00  0.00    +0.000 A 
ATOM      2  N   UNL     1      -1.648  -0.684   2.346  0.00  0.00    +0.000 NA
ATOM      3  C   UNL     1      -2.987  -0.588   2.370  0.00  0.00    +0.000 A 
ATOM      4  C   UNL     1      -3.683   0.333   1.641  0.00  0.00    +0.000 A 
ATOM      5  C   UNL     1      -2.915   1.179   0.868  0.00  0.00    +0.000 A 
ATOM      6  N   UNL     1      -1.563   1.117   0.781  0.00  0.00    +0.000 NA
ENDROOT
BRANCH   5   7
ATOM      7  C   UNL     1      -3.597   2.253   0.091  0.00  0.00    +0.000 C 
ATOM      8  O   UNL     1      -4.823   2.336   0.108  0.00  0.00    +0.000 OA
ATOM      9  N   UNL     1      -2.788   3.118  -0.630  0.00  0.00    +0.000 N 
ATOM     10  H   UNL     1      -1.834   2.808  -0.805  0.00  0.00    +0.000 HD
BRANCH   9  11
ATOM     11  C   UNL     1      -3.424   4.002  -1.564  0.00  0.00    +0.000 C 
BRANCH  11  12
ATOM     12  C   UNL     1      -2.597   5.194  -1.922  0.00  0.00    +0.000 A 
ATOM     13  C   UNL     1      -2.938   6.492  -1.577  0.00  0.00    +0.000 A 
ATOM     14  S   UNL     1      -2.076   7.666  -2.474  0.00  0.00    +0.000 S 
ATOM     15  C   UNL     1      -1.178   6.466  -3.283  0.00  0.00    +0.000 A 
ATOM     16  N   UNL     1      -0.323   6.771  -4.296  0.00  0.00    +0.000 NA
ATOM     17  C   UNL     1       0.313   5.753  -4.774  0.00  0.00    +0.000 A 
ATOM     18  N   UNL     1       0.208   4.467  -4.302  0.00  0.00    +0.000 N 
ATOM     19  C   UNL     1      -0.628   4.116  -3.265  0.00  0.00    +0.000 A 
ATOM     20  O   UNL     1      -0.629   2.990  -2.776  0.00  0.00    +0.000 OA
ATOM     21  C   UNL     1      -1.446   5.207  -2.781  0.00  0.00    +0.000 A 
ATOM     22  H   UNL     1       0.802   3.737  -4.666  0.00  0.00    +0.000 HD
ENDBRANCH  11  12
ENDBRANCH   9  11
ENDBRANCH   5   7
BRANCH   1  23
ATOM     23  C   UNL     1       0.543   0.098   1.535  0.00  0.00    +0.000 C 
BRANCH  23  24
ATOM     24  N   UNL     1       1.064  -1.228   1.165  0.00  0.00    +0.000 NA
ATOM     25  H   UNL     1       0.660  -1.493   0.266  0.00  0.00    +0.000 HD
BRANCH  24  27
ATOM     26  C   UNL     1       3.230  -0.925   2.387  0.00  0.00    +0.000 C 
ATOM     27  C   UNL     1       2.525  -1.285   1.071  0.00  0.00    +0.000 C 
BRANCH  27  28
ATOM     28  C   UNL     1       2.941  -2.682   0.634  0.00  0.00    +0.000 A 
ATOM     29  C   UNL     1       3.684  -2.877  -0.534  0.00  0.00    +0.000 A 
ATOM     30  C   UNL     1       4.049  -4.168  -0.879  0.00  0.00    +0.000 A 
ATOM     31  N   UNL     1       3.720  -5.267  -0.171  0.00  0.00    +0.000 NA
ATOM     32  C   UNL     1       2.994  -5.060   0.948  0.00  0.00    +0.000 A 
ATOM     33  C   UNL     1       2.587  -3.812   1.384  0.00  0.00    +0.000 A 
ENDBRANCH  27  28
ENDBRANCH  24  27
ENDBRANCH  23  24
ENDBRANCH   1  23
TORSDOF 7
