REMARK  Name = 
REMARK  5 active torsions:
REMARK  status: ('A' for Active; 'I' for Inactive)
REMARK    1  A    between atoms: C_2  and  C_4
REMARK    2  A    between atoms: C_8  and  C_9
REMARK    3  A    between atoms: C_9  and  N_10
REMARK    4  A    between atoms: N_10  and  C_11
REMARK    5  A    between atoms: C_15  and  C_16
REMARK                            x       y       z     vdW  Elec       q    Type
REMARK                         _______ _______ _______ _____ _____    ______ ____
ROOT
ATOM      1  N   UNL     1       1.996   4.353   2.431  0.00  0.00    +0.000 N 
ATOM      2  H   UNL     1       2.196   3.458   2.870  0.00  0.00    +0.000 HD
ENDROOT
BRANCH   1   3
ATOM      3  C   UNL     1       1.436   5.286   3.305  0.00  0.00    +0.000 A 
ATOM      4  C   UNL     1       0.869   4.866   4.510  0.00  0.00    +0.000 A 
ATOM      5  N   UNL     1       0.235   5.665   5.395  0.00  0.00    +0.000 NA
ATOM      6  C   UNL     1       0.114   6.966   5.046  0.00  0.00    +0.000 A 
ATOM      7  C   UNL     1       0.600   7.531   3.866  0.00  0.00    +0.000 A 
ATOM      8  C   UNL     1       1.265   6.642   2.997  0.00  0.00    +0.000 A 
BRANCH   7   9
ATOM      9  C   UNL     1       0.406   8.965   3.543  0.00  0.00    +0.000 A 
ATOM     10  C   UNL     1       0.365   9.950   4.554  0.00  0.00    +0.000 A 
ATOM     11  C   UNL     1       0.162  11.304   4.259  0.00  0.00    +0.000 A 
ATOM     12  C   UNL     1       0.011  11.711   2.939  0.00  0.00    +0.000 A 
ATOM     13  C   UNL     1       0.059  10.760   1.930  0.00  0.00    +0.000 A 
ATOM     14  F   UNL     1      -0.080  11.147   0.655  0.00  0.00    +0.000 F 
ATOM     15  C   UNL     1       0.247   9.409   2.218  0.00  0.00    +0.000 A 
ENDBRANCH   7   9
ENDBRANCH   1   3
BRANCH   1  16
ATOM     16  C   UNL     1       3.003   4.733   1.447  0.00  0.00    +0.000 C 
BRANCH  16  21
ATOM     17  C   UNL     1       2.973   4.083  -2.306  0.00  0.00    +0.000 A 
ATOM     18  C   UNL     1       1.631   4.317  -2.564  0.00  0.00    +0.000 A 
ATOM     19  N   UNL     1       0.727   4.625  -1.604  0.00  0.00    +0.000 NA
ATOM     20  C   UNL     1       1.190   4.720  -0.334  0.00  0.00    +0.000 A 
ATOM     21  C   UNL     1       2.519   4.523   0.037  0.00  0.00    +0.000 A 
ATOM     22  C   UNL     1       3.424   4.203  -0.987  0.00  0.00    +0.000 A 
BRANCH  17  24
ATOM     23  N   UNL     1       4.975   3.002  -3.162  0.00  0.00    +0.000 N 
ATOM     24  C   UNL     1       3.865   3.753  -3.437  0.00  0.00    +0.000 C 
ATOM     25  O   UNL     1       3.608   4.105  -4.580  0.00  0.00    +0.000 OA
ATOM     26  H   UNL     1       5.504   2.688  -3.967  0.00  0.00    +0.000 HD
ATOM     27  H   UNL     1       5.069   2.468  -2.310  0.00  0.00    +0.000 HD
ENDBRANCH  17  24
ENDBRANCH  16  21
ENDBRANCH   1  16
TORSDOF 5
