REMARK  Name = 
REMARK  5 active torsions:
REMARK  status: ('A' for Active; 'I' for Inactive)
REMARK    1  A    between atoms: N_1  and  C_2
REMARK    2  A    between atoms: C_2  and  C_3
REMARK    3  A    between atoms: C_3  and  C_4
REMARK    4  A    between atoms: C_7  and  C_8
REMARK    5  A    between atoms: C_8  and  N_9
REMARK                            x       y       z     vdW  Elec       q    Type
REMARK                         _______ _______ _______ _____ _____    ______ ____
ROOT
ATOM      1  C   UNL     1       4.505   0.716  -1.162  0.00  0.00    +0.000 A 
ATOM      2  C   UNL     1       5.274   0.033  -0.211  0.00  0.00    +0.000 A 
ATOM      3  C   UNL     1       6.671   0.039  -0.280  0.00  0.00    +0.000 A 
ATOM      4  C   UNL     1       7.334   0.710  -1.315  0.00  0.00    +0.000 A 
ATOM      5  C   UNL     1       6.567   1.382  -2.276  0.00  0.00    +0.000 A 
ATOM      6  C   UNL     1       5.173   1.382  -2.200  0.00  0.00    +0.000 A 
ENDROOT
BRANCH   1   7
ATOM      7  C   UNL     1       2.992   0.689  -1.171  0.00  0.00    +0.000 C 
BRANCH   7   8
ATOM      8  C   UNL     1       2.322   0.615   0.208  0.00  0.00    +0.000 C 
BRANCH   8   9
ATOM      9  N   UNL     1       0.867   0.690   0.093  0.00  0.00    +0.000 NA
ATOM     10  H   UNL     1       0.450   0.619   1.020  0.00  0.00    +0.000 HD
ATOM     11  H   UNL     1       0.522  -0.114  -0.434  0.00  0.00    +0.000 HD
ENDBRANCH   8   9
ENDBRANCH   7   8
ENDBRANCH   1   7
BRANCH   4  12
ATOM     12  C   UNL     1       8.833   0.586  -1.486  0.00  0.00    +0.000 C 
BRANCH  12  13
ATOM     13  N   UNL     1       9.120  -0.437  -2.482  0.00  0.00    +0.000 N 
ATOM     14  N   UNL     1       9.204  -0.089  -3.785  0.00  0.00    +0.000 NA
ATOM     15  N   UNL     1       8.825  -1.143  -4.498  0.00  0.00    +0.000 NA
ATOM     16  C   UNL     1       8.595  -2.181  -3.628  0.00  0.00    +0.000 A 
ATOM     17  C   UNL     1       8.088  -3.468  -3.846  0.00  0.00    +0.000 A 
ATOM     18  C   UNL     1       7.968  -4.334  -2.750  0.00  0.00    +0.000 A 
ATOM     19  C   UNL     1       8.374  -3.938  -1.471  0.00  0.00    +0.000 A 
ATOM     20  C   UNL     1       8.853  -2.647  -1.232  0.00  0.00    +0.000 A 
ATOM     21  C   UNL     1       8.912  -1.788  -2.334  0.00  0.00    +0.000 A 
ENDBRANCH  12  13
ENDBRANCH   4  12
TORSDOF 5
