REMARK  Name = 
REMARK  7 active torsions:
REMARK  status: ('A' for Active; 'I' for Inactive)
REMARK    1  A    between atoms: C_1  and  C_2
REMARK    2  A    between atoms: C_2  and  C_3
REMARK    3  A    between atoms: C_2  and  C_4
REMARK    4  A    between atoms: C_2  and  C_20
REMARK    5  A    between atoms: C_5  and  C_6
REMARK    6  A    between atoms: C_8  and  C_9
REMARK    7  A    between atoms: C_13  and  C_14
REMARK                            x       y       z     vdW  Elec       q    Type
REMARK                         _______ _______ _______ _____ _____    ______ ____
ROOT
ATOM      1  C   UNL     1       3.321  -1.723  -3.460  0.00  0.00    +0.000 A 
ATOM      2  C   UNL     1       3.002  -2.912  -4.109  0.00  0.00    +0.000 A 
ATOM      3  C   UNL     1       3.559  -3.197  -5.366  0.00  0.00    +0.000 A 
ATOM      4  C   UNL     1       4.411  -2.230  -5.915  0.00  0.00    +0.000 A 
ATOM      5  C   UNL     1       4.658  -1.062  -5.213  0.00  0.00    +0.000 A 
ATOM      6  N   UNL     1       4.137  -0.795  -4.002  0.00  0.00    +0.000 NA
ENDROOT
BRANCH   3   7
ATOM      7  C   UNL     1       3.267  -4.464  -6.073  0.00  0.00    +0.000 A 
ATOM      8  C   UNL     1       3.220  -4.547  -7.469  0.00  0.00    +0.000 A 
ATOM      9  N   UNL     1       2.967  -5.676  -8.179  0.00  0.00    +0.000 NA
ATOM     10  C   UNL     1       2.733  -6.800  -7.469  0.00  0.00    +0.000 A 
ATOM     11  C   UNL     1       2.747  -6.846  -6.087  0.00  0.00    +0.000 A 
ATOM     12  C   UNL     1       3.022  -5.666  -5.388  0.00  0.00    +0.000 A 
BRANCH  11  13
ATOM     13  C   UNL     1       2.488  -8.071  -5.399  0.00  0.00    +0.000 C 
ATOM     14  N   UNL     1       2.275  -9.059  -4.832  0.00  0.00    +0.000 NA
ENDBRANCH  11  13
ENDBRANCH   3   7
BRANCH   1  16
ATOM     15  C   UNL     1       3.076  -0.338  -1.417  0.00  0.00    +0.000 C 
ATOM     16  C   UNL     1       2.782  -1.447  -2.120  0.00  0.00    +0.000 C 
BRANCH  15  18
ATOM     17  C   UNL     1       3.114  -1.065   0.965  0.00  0.00    +0.000 C 
ATOM     18  C   UNL     1       2.556  -0.010  -0.021  0.00  0.00    +0.000 C 
ATOM     19  C   UNL     1       3.151   1.352   0.411  0.00  0.00    +0.000 C 
BRANCH  18  20
ATOM     20  C   UNL     1       1.014   0.073  -0.027  0.00  0.00    +0.000 A 
ATOM     21  C   UNL     1       0.211  -0.765   0.771  0.00  0.00    +0.000 A 
ATOM     22  C   UNL     1      -1.184  -0.710   0.704  0.00  0.00    +0.000 A 
ATOM     23  C   UNL     1      -1.801   0.183  -0.160  0.00  0.00    +0.000 A 
ATOM     24  F   UNL     1      -3.140   0.202  -0.219  0.00  0.00    +0.000 F 
ATOM     25  C   UNL     1      -1.038   1.032  -0.956  0.00  0.00    +0.000 A 
ATOM     26 CL   UNL     1      -1.797   2.133  -2.040  0.00  0.00    +0.000 Cl
ATOM     27  C   UNL     1       0.358   0.980  -0.888  0.00  0.00    +0.000 A 
ENDBRANCH  18  20
ENDBRANCH  15  18
ENDBRANCH   1  16
TORSDOF 5
