REMARK  Name = 
REMARK  6 active torsions:
REMARK  status: ('A' for Active; 'I' for Inactive)
REMARK    1  A    between atoms: N_1  and  S_2
REMARK    2  A    between atoms: S_2  and  C_5
REMARK    3  A    between atoms: C_8  and  N_9
REMARK    4  A    between atoms: N_9  and  C_10
REMARK    5  A    between atoms: C_10  and  C_11
REMARK    6  A    between atoms: C_16  and  C_17
REMARK                            x       y       z     vdW  Elec       q    Type
REMARK                         _______ _______ _______ _____ _____    ______ ____
ROOT
ATOM      1  N   UNL     1       2.375  -5.634  -3.409  0.00  0.00    +0.000 N 
ATOM      2  H   UNL     1       1.760  -5.433  -4.193  0.00  0.00    +0.000 HD
ENDROOT
BRANCH   1   6
ATOM      3  C   UNL     1       1.109  -3.646  -0.062  0.00  0.00    +0.000 A 
ATOM      4  C   UNL     1       2.420  -3.532  -0.469  0.00  0.00    +0.000 A 
ATOM      5  N   UNL     1       2.878  -4.159  -1.587  0.00  0.00    +0.000 NA
ATOM      6  C   UNL     1       1.981  -4.898  -2.283  0.00  0.00    +0.000 A 
ATOM      7  C   UNL     1       0.652  -4.986  -1.841  0.00  0.00    +0.000 A 
ATOM      8  N   UNL     1       0.172  -4.362  -0.737  0.00  0.00    +0.000 NA
BRANCH   3   9
ATOM      9  S   UNL     1       0.551  -2.878   1.430  0.00  0.00    +0.000 S 
ATOM     10  O   UNL     1       1.573  -1.963   1.891  0.00  0.00    +0.000 OA
ATOM     11  O   UNL     1      -0.020  -3.878   2.304  0.00  0.00    +0.000 OA
BRANCH   9  12
ATOM     12  N   UNL     1      -0.723  -1.896   0.934  0.00  0.00    +0.000 NA
ATOM     13  H   UNL     1      -0.589  -0.945   1.281  0.00  0.00    +0.000 HD
ATOM     14  H   UNL     1      -1.612  -2.323   1.202  0.00  0.00    +0.000 HD
ENDBRANCH   9  12
ENDBRANCH   3   9
ENDBRANCH   1   6
BRANCH   1  15
ATOM     15  C   UNL     1       3.779  -5.509  -3.775  0.00  0.00    +0.000 C 
BRANCH  15  16
ATOM     16  C   UNL     1       4.051  -6.386  -4.980  0.00  0.00    +0.000 A 
ATOM     17  C   UNL     1       4.556  -5.841  -6.163  0.00  0.00    +0.000 A 
ATOM     18  C   UNL     1       4.811  -6.671  -7.245  0.00  0.00    +0.000 A 
ATOM     19  F   UNL     1       5.294  -6.142  -8.378  0.00  0.00    +0.000 F 
ATOM     20  C   UNL     1       4.574  -8.043  -7.183  0.00  0.00    +0.000 A 
ATOM     21  C   UNL     1       4.054  -8.631  -6.018  0.00  0.00    +0.000 A 
ATOM     22  C   UNL     1       3.808  -7.774  -4.924  0.00  0.00    +0.000 A 
BRANCH  21  23
ATOM     23  C   UNL     1       3.759 -10.080  -5.946  0.00  0.00    +0.000 A 
ATOM     24  C   UNL     1       3.893 -10.817  -4.759  0.00  0.00    +0.000 A 
ATOM     25  C   UNL     1       3.576 -12.176  -4.722  0.00  0.00    +0.000 A 
ATOM     26  C   UNL     1       3.140 -12.782  -5.885  0.00  0.00    +0.000 A 
ATOM     27  N   UNL     1       3.002 -12.129  -7.055  0.00  0.00    +0.000 NA
ATOM     28  C   UNL     1       3.309 -10.807  -7.053  0.00  0.00    +0.000 A 
ENDBRANCH  21  23
ENDBRANCH  15  16
ENDBRANCH   1  15
TORSDOF 6
