REMARK  Name = 
REMARK  7 active torsions:
REMARK  status: ('A' for Active; 'I' for Inactive)
REMARK    1  A    between atoms: C_1  and  C_2
REMARK    2  A    between atoms: C_2  and  C_3
REMARK    3  A    between atoms: C_2  and  N_4
REMARK    4  A    between atoms: C_2  and  C_5
REMARK    5  A    between atoms: C_9  and  C_10
REMARK    6  A    between atoms: C_10  and  N_11
REMARK    7  A    between atoms: C_16  and  C_17
REMARK                            x       y       z     vdW  Elec       q    Type
REMARK                         _______ _______ _______ _____ _____    ______ ____
ROOT
ATOM      1  N   UNL     1       4.722   3.371   4.389  0.00  0.00    +0.000 N 
ATOM      2  C   UNL     1       4.764   2.622   5.543  0.00  0.00    +0.000 A 
ATOM      3  C   UNL     1       5.231   3.415   6.561  0.00  0.00    +0.000 A 
ATOM      4  C   UNL     1       5.517   4.691   6.011  0.00  0.00    +0.000 A 
ATOM      5  C   UNL     1       6.071   5.859   6.542  0.00  0.00    +0.000 A 
ATOM      6  C   UNL     1       6.215   6.923   5.666  0.00  0.00    +0.000 A 
ATOM      7  N   UNL     1       5.817   6.917   4.360  0.00  0.00    +0.000 NA
ATOM      8  C   UNL     1       5.267   5.788   3.854  0.00  0.00    +0.000 A 
ATOM      9  C   UNL     1       5.147   4.659   4.661  0.00  0.00    +0.000 A 
ENDROOT
BRANCH   6  10
ATOM     10  C   UNL     1       6.896   8.167   6.150  0.00  0.00    +0.000 C 
ATOM     11  N   UNL     1       7.043   9.157   5.215  0.00  0.00    +0.000 N 
ATOM     12  O   UNL     1       7.313   8.298   7.294  0.00  0.00    +0.000 OA
ATOM     13  H   UNL     1       6.715   8.999   4.272  0.00  0.00    +0.000 HD
ATOM     14  H   UNL     1       7.536  10.001   5.456  0.00  0.00    +0.000 HD
ENDBRANCH   6  10
BRANCH   1  15
ATOM     15  C   UNL     1       4.441   2.811   3.069  0.00  0.00    +0.000 C 
BRANCH  15  20
ATOM     16  C   UNL     1       2.901   0.633   1.191  0.00  0.00    +0.000 C 
ATOM     17  C   UNL     1       2.137  -0.060   2.345  0.00  0.00    +0.000 C 
ATOM     18  C   UNL     1       2.341   0.589   3.707  0.00  0.00    +0.000 C 
ATOM     19  C   UNL     1       2.037   2.081   3.650  0.00  0.00    +0.000 C 
ATOM     20  C   UNL     1       2.952   2.804   2.656  0.00  0.00    +0.000 C 
ATOM     21  C   UNL     1       2.747   2.180   1.254  0.00  0.00    +0.000 C 
BRANCH  16  23
ATOM     22  C   UNL     1       1.010   0.131  -0.532  0.00  0.00    +0.000 C 
ATOM     23  C   UNL     1       2.513   0.017  -0.208  0.00  0.00    +0.000 C 
ATOM     24  C   UNL     1       2.911  -1.473  -0.284  0.00  0.00    +0.000 C 
BRANCH  23  25
ATOM     25  N   UNL     1       3.249   0.718  -1.276  0.00  0.00    +0.000 NA
ATOM     26  H   UNL     1       2.988   0.331  -2.183  0.00  0.00    +0.000 HD
ATOM     27  H   UNL     1       4.247   0.549  -1.177  0.00  0.00    +0.000 HD
ENDBRANCH  23  25
ENDBRANCH  16  23
ENDBRANCH  15  20
ENDBRANCH   1  15
TORSDOF 5
