REMARK  Name = 
REMARK  6 active torsions:
REMARK  status: ('A' for Active; 'I' for Inactive)
REMARK    1  A    between atoms: C_1  and  O_2
REMARK    2  A    between atoms: O_2  and  C_3
REMARK    3  A    between atoms: C_6  and  C_7
REMARK    4  A    between atoms: C_7  and  N_8
REMARK    5  A    between atoms: N_8  and  C_9
REMARK    6  A    between atoms: C_12  and  C_13
REMARK                            x       y       z     vdW  Elec       q    Type
REMARK                         _______ _______ _______ _____ _____    ______ ____
ROOT
ATOM      1  N   UNL     1       5.844  -2.377  -4.510  0.00  0.00    +0.000 N 
ATOM      2  H   UNL     1       5.420  -3.104  -5.078  0.00  0.00    +0.000 HD
ENDROOT
BRANCH   1   3
ATOM      3  C   UNL     1       7.043  -2.750  -3.890  0.00  0.00    +0.000 A 
ATOM      4  C   UNL     1       7.991  -1.850  -3.406  0.00  0.00    +0.000 A 
ATOM      5  C   UNL     1       9.149  -2.319  -2.779  0.00  0.00    +0.000 A 
ATOM      6  C   UNL     1       9.305  -3.692  -2.617  0.00  0.00    +0.000 A 
ATOM      7  N   UNL     1       8.389  -4.608  -3.029  0.00  0.00    +0.000 NA
ATOM      8  C   UNL     1       7.291  -4.107  -3.639  0.00  0.00    +0.000 A 
BRANCH   6   9
ATOM      9  C   UNL     1      10.533  -4.239  -1.950  0.00  0.00    +0.000 C 
ATOM     10  N   UNL     1      10.563  -5.605  -1.830  0.00  0.00    +0.000 N 
ATOM     11  O   UNL     1      11.441  -3.524  -1.545  0.00  0.00    +0.000 OA
ATOM     12  H   UNL     1       9.780  -6.150  -2.164  0.00  0.00    +0.000 HD
ATOM     13  H   UNL     1      11.348  -6.049  -1.377  0.00  0.00    +0.000 HD
ENDBRANCH   6   9
ENDBRANCH   1   3
BRANCH   1  14
ATOM     14  C   UNL     1       5.344  -1.008  -4.687  0.00  0.00    +0.000 C 
ATOM     15  C   UNL     1       6.030  -0.023  -5.614  0.00  0.00    +0.000 C 
ATOM     16  C   UNL     1       4.791  -0.709  -6.081  0.00  0.00    +0.000 C 
BRANCH  14  20
ATOM     17  C   UNL     1       2.800   0.556  -1.494  0.00  0.00    +0.000 A 
ATOM     18  C   UNL     1       4.022   1.163  -1.772  0.00  0.00    +0.000 A 
ATOM     19  C   UNL     1       4.861   0.638  -2.766  0.00  0.00    +0.000 A 
ATOM     20  C   UNL     1       4.499  -0.491  -3.522  0.00  0.00    +0.000 A 
ATOM     21  C   UNL     1       3.285  -1.114  -3.184  0.00  0.00    +0.000 A 
ATOM     22  C   UNL     1       2.447  -0.598  -2.191  0.00  0.00    +0.000 A 
BRANCH  17  24
ATOM     23  C   UNL     1       2.174   2.178   0.125  0.00  0.00    +0.000 C 
ATOM     24  O   UNL     1       1.874   0.983  -0.584  0.00  0.00    +0.000 OA
ENDBRANCH  17  24
ENDBRANCH  14  20
ENDBRANCH   1  14
TORSDOF 5
