REMARK  Name = 
REMARK  6 active torsions:
REMARK  status: ('A' for Active; 'I' for Inactive)
REMARK    1  A    between atoms: C_2  and  C_25
REMARK    2  A    between atoms: N_3  and  C_4
REMARK    3  A    between atoms: C_4  and  C_5
REMARK    4  A    between atoms: C_8  and  C_9
REMARK    5  A    between atoms: C_9  and  N_10
REMARK    6  A    between atoms: C_11  and  C_13
REMARK                            x       y       z     vdW  Elec       q    Type
REMARK                         _______ _______ _______ _____ _____    ______ ____
ROOT
ATOM      1  C   UNL     1       3.181  -2.516   2.596  0.00  0.00    +0.000 A 
ATOM      2  C   UNL     1       4.190  -1.907   3.345  0.00  0.00    +0.000 A 
ATOM      3  C   UNL     1       5.010  -2.682   4.162  0.00  0.00    +0.000 A 
ATOM      4  C   UNL     1       4.800  -4.056   4.215  0.00  0.00    +0.000 A 
ATOM      5  N   UNL     1       3.857  -4.676   3.461  0.00  0.00    +0.000 NA
ATOM      6  C   UNL     1       3.077  -3.900   2.675  0.00  0.00    +0.000 A 
ENDROOT
BRANCH   1   7
ATOM      7  C   UNL     1       2.226  -1.715   1.768  0.00  0.00    +0.000 C 
BRANCH   7  10
ATOM      8  O   UNL     1       0.848  -0.263  -0.087  0.00  0.00    +0.000 OA
ATOM      9  C   UNL     1       1.940  -0.707  -0.435  0.00  0.00    +0.000 C 
ATOM     10  N   UNL     1       2.711  -1.451   0.437  0.00  0.00    +0.000 N 
ATOM     11  H   UNL     1       3.624  -1.781   0.148  0.00  0.00    +0.000 HD
BRANCH   9  12
ATOM     12  C   UNL     1       2.476  -0.485  -1.760  0.00  0.00    +0.000 A 
ATOM     13  C   UNL     1       1.905   0.278  -2.763  0.00  0.00    +0.000 A 
ATOM     14  N   UNL     1       2.595   0.326  -3.958  0.00  0.00    +0.000 NA
ATOM     15  C   UNL     1       3.683  -0.404  -3.854  0.00  0.00    +0.000 A 
ATOM     16  S   UNL     1       3.940  -1.164  -2.336  0.00  0.00    +0.000 S 
ENDBRANCH   9  12
ENDBRANCH   7  10
ENDBRANCH   1   7
BRANCH   4  17
ATOM     17  C   UNL     1       5.638  -4.921   5.125  0.00  0.00    +0.000 C 
BRANCH  17  18
ATOM     18  N   UNL     1       6.814  -5.430   4.461  0.00  0.00    +0.000 N 
ATOM     19  C   UNL     1       8.051  -4.863   4.610  0.00  0.00    +0.000 C 
ATOM     20  O   UNL     1       8.236  -3.884   5.328  0.00  0.00    +0.000 OA
ATOM     21  H   UNL     1       6.641  -6.085   3.703  0.00  0.00    +0.000 HD
BRANCH  19  22
ATOM     22  C   UNL     1       9.163  -5.527   3.917  0.00  0.00    +0.000 A 
ATOM     23  C   UNL     1      10.462  -5.335   4.368  0.00  0.00    +0.000 A 
ATOM     24  S   UNL     1      11.631  -6.203   3.481  0.00  0.00    +0.000 S 
ATOM     25  C   UNL     1      10.448  -6.834   2.434  0.00  0.00    +0.000 A 
ATOM     26  N   UNL     1      10.793  -7.653   1.404  0.00  0.00    +0.000 NA
ATOM     27  C   UNL     1       9.801  -8.034   0.671  0.00  0.00    +0.000 A 
ATOM     28  N   UNL     1       8.494  -7.678   0.880  0.00  0.00    +0.000 N 
ATOM     29  C   UNL     1       8.094  -6.894   1.935  0.00  0.00    +0.000 A 
ATOM     30  O   UNL     1       6.908  -6.661   2.139  0.00  0.00    +0.000 OA
ATOM     31  C   UNL     1       9.175  -6.410   2.773  0.00  0.00    +0.000 A 
ATOM     32  H   UNL     1       7.759  -8.028   0.283  0.00  0.00    +0.000 HD
ENDBRANCH  19  22
ENDBRANCH  17  18
ENDBRANCH   4  17
TORSDOF 6
