REMARK  Name = 
REMARK  8 active torsions:
REMARK  status: ('A' for Active; 'I' for Inactive)
REMARK    1  A    between atoms: C_1  and  C_2
REMARK    2  A    between atoms: C_2  and  C_3
REMARK    3  A    between atoms: C_2  and  N_4
REMARK    4  A    between atoms: N_4  and  C_5
REMARK    5  A    between atoms: C_5  and  C_6
REMARK    6  A    between atoms: C_9  and  C_10
REMARK    7  A    between atoms: C_10  and  N_11
REMARK    8  A    between atoms: C_16  and  C_17
REMARK                            x       y       z     vdW  Elec       q    Type
REMARK                         _______ _______ _______ _____ _____    ______ ____
ROOT
ATOM      1  N   UNL     1       6.625   7.750   1.640  0.00  0.00    +0.000 N 
ATOM      2  N   UNL     1       5.943   8.900   1.861  0.00  0.00    +0.000 NA
ATOM      3  C   UNL     1       6.216   9.642   0.788  0.00  0.00    +0.000 A 
ATOM      4  C   UNL     1       7.085   8.991  -0.109  0.00  0.00    +0.000 A 
ATOM      5  C   UNL     1       7.601   9.269  -1.375  0.00  0.00    +0.000 A 
ATOM      6  C   UNL     1       8.444   8.303  -1.906  0.00  0.00    +0.000 A 
ATOM      7  N   UNL     1       8.859   7.178  -1.251  0.00  0.00    +0.000 NA
ATOM      8  C   UNL     1       8.362   6.921  -0.015  0.00  0.00    +0.000 A 
ATOM      9  C   UNL     1       7.428   7.800   0.524  0.00  0.00    +0.000 A 
ENDROOT
BRANCH   6  10
ATOM     10  C   UNL     1       8.872   8.446  -3.336  0.00  0.00    +0.000 C 
ATOM     11  N   UNL     1       9.720   7.482  -3.806  0.00  0.00    +0.000 N 
ATOM     12  O   UNL     1       8.461   9.345  -4.059  0.00  0.00    +0.000 OA
ATOM     13  H   UNL     1       9.979   6.708  -3.204  0.00  0.00    +0.000 HD
ATOM     14  H   UNL     1       9.965   7.477  -4.785  0.00  0.00    +0.000 HD
ENDBRANCH   6  10
BRANCH   1  15
ATOM     15  C   UNL     1       6.378   6.621   2.526  0.00  0.00    +0.000 C 
BRANCH  15  19
ATOM     16  C   UNL     1       5.046   2.942   0.808  0.00  0.00    +0.000 A 
ATOM     17  C   UNL     1       4.442   4.127   0.388  0.00  0.00    +0.000 A 
ATOM     18  C   UNL     1       4.883   5.350   0.906  0.00  0.00    +0.000 A 
ATOM     19  C   UNL     1       5.936   5.364   1.814  0.00  0.00    +0.000 A 
ATOM     20  N   UNL     1       6.566   4.225   2.196  0.00  0.00    +0.000 NA
ATOM     21  C   UNL     1       6.103   3.053   1.701  0.00  0.00    +0.000 A 
BRANCH  16  22
ATOM     22  C   UNL     1       4.554   1.588   0.375  0.00  0.00    +0.000 C 
BRANCH  22  23
ATOM     23  N   UNL     1       4.007   0.789   1.477  0.00  0.00    +0.000 NA
ATOM     24  H   UNL     1       3.791  -0.145   1.130  0.00  0.00    +0.000 HD
BRANCH  23  26
ATOM     25  C   UNL     1       1.619   1.458   1.171  0.00  0.00    +0.000 C 
ATOM     26  C   UNL     1       2.813   1.357   2.121  0.00  0.00    +0.000 C 
ATOM     27  C   UNL     1       2.445   0.472   3.317  0.00  0.00    +0.000 C 
ENDBRANCH  23  26
ENDBRANCH  22  23
ENDBRANCH  16  22
ENDBRANCH  15  19
ENDBRANCH   1  15
TORSDOF 6
