REMARK  Name = 
REMARK  5 active torsions:
REMARK  status: ('A' for Active; 'I' for Inactive)
REMARK    1  A    between atoms: C_2  and  C_18
REMARK    2  A    between atoms: N_3  and  C_4
REMARK    3  A    between atoms: C_4  and  C_5
REMARK    4  A    between atoms: C_8  and  C_9
REMARK    5  A    between atoms: C_9  and  N_10
REMARK                            x       y       z     vdW  Elec       q    Type
REMARK                         _______ _______ _______ _____ _____    ______ ____
ROOT
ATOM      1  O   UNL     1       3.966  -0.397  -0.578  0.00  0.00    +0.000 OA
ATOM      2  C   UNL     1       3.113  -0.963  -1.257  0.00  0.00    +0.000 C 
ATOM      3  N   UNL     1       2.350  -1.990  -0.777  0.00  0.00    +0.000 N 
ATOM      4  H   UNL     1       1.657  -2.430  -1.366  0.00  0.00    +0.000 HD
ENDROOT
BRANCH   2   5
ATOM      5  C   UNL     1       2.887  -0.619  -2.662  0.00  0.00    +0.000 A 
ATOM      6  C   UNL     1       3.908  -0.084  -3.434  0.00  0.00    +0.000 A 
ATOM      7  S   UNL     1       3.456   0.187  -5.058  0.00  0.00    +0.000 S 
ATOM      8  C   UNL     1       1.868  -0.357  -4.770  0.00  0.00    +0.000 A 
ATOM      9  N   UNL     1       0.942  -0.388  -5.764  0.00  0.00    +0.000 NA
ATOM     10  C   UNL     1      -0.226  -0.796  -5.393  0.00  0.00    +0.000 A 
ATOM     11  N   UNL     1      -0.556  -1.165  -4.117  0.00  0.00    +0.000 N 
ATOM     12  C   UNL     1       0.346  -1.160  -3.080  0.00  0.00    +0.000 A 
ATOM     13  O   UNL     1       0.020  -1.516  -1.953  0.00  0.00    +0.000 OA
ATOM     14  C   UNL     1       1.684  -0.731  -3.451  0.00  0.00    +0.000 A 
ATOM     15  H   UNL     1      -1.491  -1.470  -3.888  0.00  0.00    +0.000 HD
ENDBRANCH   2   5
BRANCH   3  16
ATOM     16  C   UNL     1       2.376  -2.425   0.597  0.00  0.00    +0.000 C 
BRANCH  16  17
ATOM     17  C   UNL     1       3.345  -3.564   0.814  0.00  0.00    +0.000 A 
ATOM     18  C   UNL     1       4.673  -3.296   1.130  0.00  0.00    +0.000 A 
ATOM     19  C   UNL     1       5.551  -4.362   1.312  0.00  0.00    +0.000 A 
ATOM     20  C   UNL     1       5.092  -5.673   1.173  0.00  0.00    +0.000 A 
ATOM     21  C   UNL     1       3.756  -5.844   0.830  0.00  0.00    +0.000 A 
ATOM     22  N   UNL     1       2.878  -4.829   0.650  0.00  0.00    +0.000 NA
BRANCH  20  23
ATOM     23  C   UNL     1       6.005  -6.853   1.350  0.00  0.00    +0.000 C 
BRANCH  23  24
ATOM     24  N   UNL     1       6.687  -7.140   0.105  0.00  0.00    +0.000 N 
ATOM     25  C   UNL     1       7.513  -8.219  -0.011  0.00  0.00    +0.000 C 
ATOM     26  C   UNL     1       8.616  -8.353  -0.967  0.00  0.00    +0.000 C 
ATOM     27  N   UNL     1       9.216  -9.561  -0.759  0.00  0.00    +0.000 NA
ATOM     28  C   UNL     1       8.521 -10.077   0.210  0.00  0.00    +0.000 C 
ATOM     29  N   UNL     1       7.488  -9.305   0.709  0.00  0.00    +0.000 NA
ATOM     30  H   UNL     1       6.931  -6.321  -0.440  0.00  0.00    +0.000 HD
ENDBRANCH  23  24
ENDBRANCH  20  23
ENDBRANCH  16  17
ENDBRANCH   3  16
TORSDOF 5
