REMARK  Name = 
REMARK  9 active torsions:
REMARK  status: ('A' for Active; 'I' for Inactive)
REMARK    1  A    between atoms: C_1  and  O_2
REMARK    2  A    between atoms: O_2  and  C_3
REMARK    3  A    between atoms: C_10  and  C_11
REMARK    4  A    between atoms: N_13  and  C_14
REMARK    5  A    between atoms: C_14  and  C_15
REMARK    6  A    between atoms: C_18  and  C_19
REMARK    7  A    between atoms: C_19  and  N_20
REMARK    8  A    between atoms: N_20  and  C_21
REMARK    9  A    between atoms: C_21  and  C_22
REMARK                            x       y       z     vdW  Elec       q    Type
REMARK                         _______ _______ _______ _____ _____    ______ ____
ROOT
ATOM      1  C   UNL     1       2.982  -2.497  -2.233  0.00  0.00    +0.000 C 
ENDROOT
BRANCH   1   2
ATOM      2  C   UNL     1       1.848  -3.075  -1.420  0.00  0.00    +0.000 A 
ATOM      3  C   UNL     1       1.811  -4.434  -1.075  0.00  0.00    +0.000 A 
ATOM      4  C   UNL     1       0.806  -4.929  -0.230  0.00  0.00    +0.000 A 
ATOM      5  C   UNL     1      -0.171  -4.073   0.301  0.00  0.00    +0.000 A 
ATOM      6  C   UNL     1      -0.165  -2.730  -0.100  0.00  0.00    +0.000 A 
ATOM      7  C   UNL     1       0.814  -2.245  -0.971  0.00  0.00    +0.000 A 
BRANCH   5   8
ATOM      8  C   UNL     1      -1.224  -4.561   1.275  0.00  0.00    +0.000 C 
BRANCH   8   9
ATOM      9  N   UNL     1      -0.622  -5.084   2.497  0.00  0.00    +0.000 NA
ATOM     10  H   UNL     1      -0.054  -4.356   2.929  0.00  0.00    +0.000 HD
BRANCH   9  11
ATOM     11  C   UNL     1      -1.631  -5.522   3.458  0.00  0.00    +0.000 C 
BRANCH  11  12
ATOM     12  C   UNL     1      -0.955  -6.055   4.698  0.00  0.00    +0.000 A 
ATOM     13  C   UNL     1      -0.652  -5.197   5.766  0.00  0.00    +0.000 A 
ATOM     14  C   UNL     1       0.019  -5.676   6.891  0.00  0.00    +0.000 A 
ATOM     15  C   UNL     1       0.393  -7.017   6.961  0.00  0.00    +0.000 A 
ATOM     16  C   UNL     1       0.109  -7.877   5.901  0.00  0.00    +0.000 A 
ATOM     17  C   UNL     1      -0.555  -7.397   4.771  0.00  0.00    +0.000 A 
ENDBRANCH  11  12
ENDBRANCH   9  11
ENDBRANCH   8   9
ENDBRANCH   5   8
ENDBRANCH   1   2
BRANCH   1  20
ATOM     18  C   UNL     1       3.638  -2.079  -4.558  0.00  0.00    +0.000 C 
ATOM     19  O   UNL     1       4.710  -1.606  -4.199  0.00  0.00    +0.000 OA
ATOM     20  N   UNL     1       2.723  -2.537  -3.648  0.00  0.00    +0.000 N 
ATOM     21  H   UNL     1       1.818  -2.866  -3.952  0.00  0.00    +0.000 HD
BRANCH  18  29
ATOM     22  C   UNL     1       0.903  -3.330  -6.273  0.00  0.00    +0.000 A 
ATOM     23  N   UNL     1       0.013  -3.780  -7.182  0.00  0.00    +0.000 NA
ATOM     24  C   UNL     1       0.293  -3.618  -8.476  0.00  0.00    +0.000 A 
ATOM     25  N   UNL     1       1.380  -3.050  -8.988  0.00  0.00    +0.000 NA
ATOM     26  C   UNL     1       2.250  -2.635  -8.052  0.00  0.00    +0.000 A 
ATOM     27  S   UNL     1       3.693  -1.884  -8.534  0.00  0.00    +0.000 S 
ATOM     28  C   UNL     1       4.186  -1.683  -6.921  0.00  0.00    +0.000 A 
ATOM     29  C   UNL     1       3.282  -2.179  -5.986  0.00  0.00    +0.000 A 
ATOM     30  C   UNL     1       2.115  -2.737  -6.669  0.00  0.00    +0.000 A 
BRANCH  22  32
ATOM     31  C   UNL     1      -0.838  -3.468  -4.746  0.00  0.00    +0.000 C 
ATOM     32  O   UNL     1       0.577  -3.470  -4.940  0.00  0.00    +0.000 OA
ENDBRANCH  22  32
ENDBRANCH  18  29
ENDBRANCH   1  20
TORSDOF 8
