REMARK  Name = 
REMARK  8 active torsions:
REMARK  status: ('A' for Active; 'I' for Inactive)
REMARK    1  A    between atoms: C_1  and  O_2
REMARK    2  A    between atoms: O_2  and  C_3
REMARK    3  A    between atoms: C_3  and  C_5
REMARK    4  A    between atoms: N_9  and  C_10
REMARK    5  A    between atoms: C_10  and  C_11
REMARK    6  A    between atoms: C_11  and  C_12
REMARK    7  A    between atoms: C_11  and  C_13
REMARK    8  A    between atoms: C_11  and  C_14
REMARK                            x       y       z     vdW  Elec       q    Type
REMARK                         _______ _______ _______ _____ _____    ______ ____
ROOT
ATOM      1  C   UNL     1       4.671   0.105  -0.956  0.00  0.00    +0.000 A 
ATOM      2  C   UNL     1       5.213   0.596  -2.133  0.00  0.00    +0.000 A 
ATOM      3  C   UNL     1       6.598   0.638  -2.278  0.00  0.00    +0.000 A 
ATOM      4  C   UNL     1       7.423   0.161  -1.265  0.00  0.00    +0.000 A 
ATOM      5  N   UNL     1       8.788   0.090  -1.519  0.00  0.00    +0.000 N 
ATOM      6  N   UNL     1       6.908  -0.336  -0.123  0.00  0.00    +0.000 NA
ATOM      7  C   UNL     1       5.555  -0.342   0.024  0.00  0.00    +0.000 A 
ATOM      8  H   UNL     1       9.195   0.894  -1.976  0.00  0.00    +0.000 HD
ENDROOT
BRANCH   1   9
ATOM      9  C   UNL     1       3.219   0.030  -0.686  0.00  0.00    +0.000 C 
ATOM     10  O   UNL     1       2.747  -0.393   0.357  0.00  0.00    +0.000 OA
BRANCH   9  12
ATOM     11  C   UNL     1       1.098   0.449  -1.566  0.00  0.00    +0.000 C 
ATOM     12  O   UNL     1       2.508   0.485  -1.752  0.00  0.00    +0.000 OA
ENDBRANCH   9  12
ENDBRANCH   1   9
BRANCH   5  13
ATOM     13  C   UNL     1       9.619  -0.760  -0.677  0.00  0.00    +0.000 C 
BRANCH  13  14
ATOM     14  C   UNL     1      11.154  -0.569  -0.922  0.00  0.00    +0.000 C 
ATOM     15  C   UNL     1      11.490  -0.698  -2.426  0.00  0.00    +0.000 C 
ATOM     16  C   UNL     1      11.555   0.859  -0.474  0.00  0.00    +0.000 C 
BRANCH  14  17
ATOM     17  C   UNL     1      11.920  -1.666  -0.144  0.00  0.00    +0.000 A 
ATOM     18  C   UNL     1      11.692  -3.025  -0.426  0.00  0.00    +0.000 A 
ATOM     19  C   UNL     1      12.348  -4.002   0.311  0.00  0.00    +0.000 A 
ATOM     20  N   UNL     1      13.224  -3.735   1.298  0.00  0.00    +0.000 NA
ATOM     21  C   UNL     1      13.453  -2.433   1.554  0.00  0.00    +0.000 A 
ATOM     22  C   UNL     1      12.842  -1.385   0.873  0.00  0.00    +0.000 A 
ENDBRANCH  14  17
ENDBRANCH  13  14
ENDBRANCH   5  13
TORSDOF 5
