REMARK  Name = 
REMARK  6 active torsions:
REMARK  status: ('A' for Active; 'I' for Inactive)
REMARK    1  A    between atoms: C_1  and  C_2
REMARK    2  A    between atoms: C_5  and  C_6
REMARK    3  A    between atoms: C_6  and  C_7
REMARK    4  A    between atoms: C_6  and  N_8
REMARK    5  A    between atoms: N_8  and  C_9
REMARK    6  A    between atoms: C_12  and  C_13
REMARK                            x       y       z     vdW  Elec       q    Type
REMARK                         _______ _______ _______ _____ _____    ______ ____
ROOT
ATOM      1  N   UNL     1      -3.997  -1.144  -0.188  0.00  0.00    +0.000 N 
ATOM      2  H   UNL     1      -3.379  -1.901   0.104  0.00  0.00    +0.000 HD
ENDROOT
BRANCH   1   3
ATOM      3  C   UNL     1      -5.297  -1.329   0.303  0.00  0.00    +0.000 A 
ATOM      4  C   UNL     1      -6.255  -0.316   0.380  0.00  0.00    +0.000 A 
ATOM      5  C   UNL     1      -7.559  -0.587   0.798  0.00  0.00    +0.000 A 
ATOM      6  C   UNL     1      -7.890  -1.891   1.126  0.00  0.00    +0.000 A 
ATOM      7  N   UNL     1      -7.016  -2.928   1.046  0.00  0.00    +0.000 NA
ATOM      8  C   UNL     1      -5.762  -2.615   0.619  0.00  0.00    +0.000 A 
BRANCH   6   9
ATOM      9  C   UNL     1      -9.281  -2.200   1.591  0.00  0.00    +0.000 C 
ATOM     10  N   UNL     1      -9.524  -3.508   1.904  0.00  0.00    +0.000 N 
ATOM     11  O   UNL     1     -10.150  -1.342   1.691  0.00  0.00    +0.000 OA
ATOM     12  H   UNL     1      -8.782  -4.192   1.810  0.00  0.00    +0.000 HD
ATOM     13  H   UNL     1     -10.442  -3.782   2.223  0.00  0.00    +0.000 HD
ENDBRANCH   6   9
ENDBRANCH   1   3
BRANCH   1  14
ATOM     14  C   UNL     1      -3.337   0.168  -0.093  0.00  0.00    +0.000 C 
ATOM     15  C   UNL     1      -3.636   1.034  -1.322  0.00  0.00    +0.000 C 
BRANCH  14  20
ATOM     16  C   UNL     1       2.405  -0.097   0.500  0.00  0.00    +0.000 C 
ATOM     17  C   UNL     1       0.916  -0.128   0.320  0.00  0.00    +0.000 A 
ATOM     18  C   UNL     1       0.343  -0.602  -0.853  0.00  0.00    +0.000 A 
ATOM     19  C   UNL     1      -1.045  -0.555  -0.993  0.00  0.00    +0.000 A 
ATOM     20  C   UNL     1      -1.834  -0.022   0.032  0.00  0.00    +0.000 A 
ATOM     21  C   UNL     1      -1.168   0.400   1.178  0.00  0.00    +0.000 A 
ATOM     22  N   UNL     1       0.174   0.359   1.342  0.00  0.00    +0.000 NA
ENDBRANCH  14  20
ENDBRANCH   1  14
TORSDOF 4
