REMARK  Name = 
REMARK  5 active torsions:
REMARK  status: ('A' for Active; 'I' for Inactive)
REMARK    1  A    between atoms: C_2  and  C_5
REMARK    2  A    between atoms: C_7  and  C_8
REMARK    3  A    between atoms: C_8  and  O_9
REMARK    4  A    between atoms: O_9  and  C_10
REMARK    5  A    between atoms: C_14  and  C_15
REMARK                            x       y       z     vdW  Elec       q    Type
REMARK                         _______ _______ _______ _____ _____    ______ ____
ROOT
ATOM      1  O   UNL     1       5.533  -1.372  -3.517  0.00  0.00    +0.000 OA
ENDROOT
BRANCH   1   2
ATOM      2  C   UNL     1       6.526  -1.380  -4.465  0.00  0.00    +0.000 A 
ATOM      3  N   UNL     1       7.545  -0.556  -4.196  0.00  0.00    +0.000 NA
ATOM      4  C   UNL     1       8.474  -0.441  -5.153  0.00  0.00    +0.000 A 
ATOM      5  C   UNL     1       8.406  -1.106  -6.353  0.00  0.00    +0.000 A 
ATOM      6  C   UNL     1       7.313  -1.936  -6.546  0.00  0.00    +0.000 A 
ATOM      7  N   UNL     1       6.358  -2.080  -5.600  0.00  0.00    +0.000 NA
BRANCH   6   8
ATOM      8  C   UNL     1       7.106  -2.668  -7.810  0.00  0.00    +0.000 A 
ATOM      9  C   UNL     1       8.168  -3.114  -8.613  0.00  0.00    +0.000 A 
ATOM     10  C   UNL     1       7.926  -3.739  -9.836  0.00  0.00    +0.000 A 
ATOM     11  C   UNL     1       6.614  -3.919 -10.232  0.00  0.00    +0.000 A 
ATOM     12  N   UNL     1       5.556  -3.536  -9.489  0.00  0.00    +0.000 NA
ATOM     13  C   UNL     1       5.827  -2.929  -8.304  0.00  0.00    +0.000 A 
ENDBRANCH   6   8
ENDBRANCH   1   2
BRANCH   1  14
ATOM     14  C   UNL     1       4.874  -2.627  -3.401  0.00  0.00    +0.000 C 
BRANCH  14  17
ATOM     15  C   UNL     1       2.904  -1.573  -0.292  0.00  0.00    +0.000 A 
ATOM     16  C   UNL     1       3.930  -1.657  -1.239  0.00  0.00    +0.000 A 
ATOM     17  C   UNL     1       3.798  -2.516  -2.340  0.00  0.00    +0.000 A 
ATOM     18  C   UNL     1       2.647  -3.301  -2.426  0.00  0.00    +0.000 A 
ATOM     19  C   UNL     1       1.677  -3.174  -1.446  0.00  0.00    +0.000 A 
ATOM     20  N   UNL     1       1.776  -2.335  -0.394  0.00  0.00    +0.000 NA
BRANCH  15  22
ATOM     21  F   UNL     1       4.200   0.103   0.876  0.00  0.00    +0.000 F 
ATOM     22  C   UNL     1       3.028  -0.603   0.877  0.00  0.00    +0.000 C 
ATOM     23  F   UNL     1       2.984  -1.221   2.093  0.00  0.00    +0.000 F 
ATOM     24  F   UNL     1       2.042   0.340   0.899  0.00  0.00    +0.000 F 
ENDBRANCH  15  22
ENDBRANCH  14  17
ENDBRANCH   1  14
TORSDOF 5
