REMARK  Name = 
REMARK  6 active torsions:
REMARK  status: ('A' for Active; 'I' for Inactive)
REMARK    1  A    between atoms: N_1  and  C_2
REMARK    2  A    between atoms: C_2  and  C_3
REMARK    3  A    between atoms: C_3  and  C_4
REMARK    4  A    between atoms: C_7  and  C_8
REMARK    5  A    between atoms: C_8  and  N_9
REMARK    6  A    between atoms: C_14  and  C_15
REMARK                            x       y       z     vdW  Elec       q    Type
REMARK                         _______ _______ _______ _____ _____    ______ ____
ROOT
ATOM      1  N   UNL     1       9.273   1.810  -1.291  0.00  0.00    +0.000 N 
ATOM      2  N   UNL     1       9.548   2.177  -0.021  0.00  0.00    +0.000 NA
ATOM      3  N   UNL     1      10.123   3.373  -0.064  0.00  0.00    +0.000 NA
ATOM      4  C   UNL     1      10.230   3.751  -1.374  0.00  0.00    +0.000 A 
ATOM      5  C   UNL     1      10.789   4.892  -1.944  0.00  0.00    +0.000 A 
ATOM      6  C   UNL     1      10.748   4.938  -3.328  0.00  0.00    +0.000 A 
ATOM      7  N   UNL     1      10.200   3.976  -4.134  0.00  0.00    +0.000 NA
ATOM      8  C   UNL     1       9.655   2.875  -3.564  0.00  0.00    +0.000 A 
ATOM      9  C   UNL     1       9.679   2.767  -2.185  0.00  0.00    +0.000 A 
ENDROOT
BRANCH   6  10
ATOM     10  C   UNL     1      11.359   6.114  -4.031  0.00  0.00    +0.000 C 
ATOM     11  N   UNL     1      11.289   6.087  -5.398  0.00  0.00    +0.000 N 
ATOM     12  O   UNL     1      11.892   7.039  -3.433  0.00  0.00    +0.000 OA
ATOM     13  H   UNL     1      10.848   5.303  -5.865  0.00  0.00    +0.000 HD
ATOM     14  H   UNL     1      11.690   6.845  -5.931  0.00  0.00    +0.000 HD
ENDBRANCH   6  10
BRANCH   1  15
ATOM     15  C   UNL     1       8.792   0.465  -1.563  0.00  0.00    +0.000 C 
BRANCH  15  19
ATOM     16  C   UNL     1       4.467   0.232  -1.417  0.00  0.00    +0.000 A 
ATOM     17  C   UNL     1       5.123   0.504  -2.624  0.00  0.00    +0.000 A 
ATOM     18  C   UNL     1       6.519   0.574  -2.676  0.00  0.00    +0.000 A 
ATOM     19  C   UNL     1       7.288   0.370  -1.521  0.00  0.00    +0.000 A 
ATOM     20  C   UNL     1       6.629   0.077  -0.319  0.00  0.00    +0.000 A 
ATOM     21  C   UNL     1       5.234   0.000  -0.270  0.00  0.00    +0.000 A 
BRANCH  16  22
ATOM     22  C   UNL     1       2.958   0.216  -1.351  0.00  0.00    +0.000 C 
BRANCH  22  23
ATOM     23  C   UNL     1       2.356  -1.159  -1.658  0.00  0.00    +0.000 C 
BRANCH  23  24
ATOM     24  N   UNL     1       0.894  -1.106  -1.621  0.00  0.00    +0.000 NA
ATOM     25  H   UNL     1       0.515  -2.022  -1.858  0.00  0.00    +0.000 HD
ATOM     26  H   UNL     1       0.554  -0.463  -2.336  0.00  0.00    +0.000 HD
ENDBRANCH  23  24
ENDBRANCH  22  23
ENDBRANCH  16  22
ENDBRANCH  15  19
ENDBRANCH   1  15
TORSDOF 6
