REMARK  Name = 
REMARK  4 active torsions:
REMARK  status: ('A' for Active; 'I' for Inactive)
REMARK    1  A    between atoms: C_2  and  C_3
REMARK    2  A    between atoms: C_6  and  C_7
REMARK    3  A    between atoms: C_7  and  C_8
REMARK    4  A    between atoms: C_12  and  C_13
REMARK                            x       y       z     vdW  Elec       q    Type
REMARK                         _______ _______ _______ _____ _____    ______ ____
ROOT
ATOM      1  C   UNL     1      -3.906  -1.313   0.490  0.00  0.00    +0.000 A 
ATOM      2  C   UNL     1      -4.285  -1.469   1.823  0.00  0.00    +0.000 A 
ATOM      3  N   UNL     1      -4.372  -2.655   2.465  0.00  0.00    +0.000 NA
ATOM      4  C   UNL     1      -4.047  -3.754   1.745  0.00  0.00    +0.000 A 
ATOM      5  C   UNL     1      -3.680  -3.752   0.399  0.00  0.00    +0.000 A 
ATOM      6  C   UNL     1      -3.663  -2.497  -0.224  0.00  0.00    +0.000 A 
ENDROOT
BRANCH   5   7
ATOM      7  C   UNL     1      -3.231  -4.962  -0.310  0.00  0.00    +0.000 A 
ATOM      8  C   UNL     1      -3.538  -5.192  -1.662  0.00  0.00    +0.000 A 
ATOM      9  C   UNL     1      -3.040  -6.308  -2.344  0.00  0.00    +0.000 A 
ATOM     10  C   UNL     1      -2.231  -7.222  -1.677  0.00  0.00    +0.000 A 
ATOM     11 CL   UNL     1      -1.607  -8.589  -2.515  0.00  0.00    +0.000 Cl
ATOM     12  C   UNL     1      -1.918  -7.028  -0.335  0.00  0.00    +0.000 A 
ATOM     13  C   UNL     1      -2.410  -5.909   0.338  0.00  0.00    +0.000 A 
ENDBRANCH   5   7
BRANCH   1  14
ATOM     14  C   UNL     1      -3.667   0.061  -0.124  0.00  0.00    +0.000 C 
ATOM     15  C   UNL     1      -2.512   0.868   0.465  0.00  0.00    +0.000 C 
ATOM     16  C   UNL     1      -2.362   0.269  -0.891  0.00  0.00    +0.000 C 
BRANCH  14  20
ATOM     17  C   UNL     1      -7.270   2.204  -1.100  0.00  0.00    +0.000 A 
ATOM     18  C   UNL     1      -6.638   1.474  -2.095  0.00  0.00    +0.000 A 
ATOM     19  C   UNL     1      -5.454   0.792  -1.801  0.00  0.00    +0.000 A 
ATOM     20  C   UNL     1      -4.917   0.844  -0.513  0.00  0.00    +0.000 A 
ATOM     21  N   UNL     1      -5.532   1.577   0.457  0.00  0.00    +0.000 NA
ATOM     22  C   UNL     1      -6.677   2.226   0.152  0.00  0.00    +0.000 A 
BRANCH  17  24
ATOM     23  N   UNL     1      -9.502   3.457  -1.517  0.00  0.00    +0.000 NA
ATOM     24  C   UNL     1      -8.505   2.897  -1.324  0.00  0.00    +0.000 C 
ENDBRANCH  17  24
ENDBRANCH  14  20
ENDBRANCH   1  14
TORSDOF 4
