REMARK  Name = 
REMARK  5 active torsions:
REMARK  status: ('A' for Active; 'I' for Inactive)
REMARK    1  A    between atoms: C_1  and  C_2
REMARK    2  A    between atoms: C_2  and  C_3
REMARK    3  A    between atoms: C_7  and  C_8
REMARK    4  A    between atoms: C_14  and  C_15
REMARK    5  A    between atoms: C_18  and  C_19
REMARK                            x       y       z     vdW  Elec       q    Type
REMARK                         _______ _______ _______ _____ _____    ______ ____
ROOT
ATOM      1  C   UNL     1       0.981   0.074   0.302  0.00  0.00    +0.000 C 
ATOM      2  C   UNL     1       2.483  -0.095   0.011  0.00  0.00    +0.000 C 
ATOM      3  C   UNL     1       2.968  -1.402   0.660  0.00  0.00    +0.000 C 
ATOM      4  C   UNL     1       4.160  -1.025   1.511  0.00  0.00    +0.000 C 
ATOM      5  C   UNL     1       4.453   0.432   1.189  0.00  0.00    +0.000 C 
ATOM      6  O   UNL     1       3.200   0.956   0.701  0.00  0.00    +0.000 OA
ENDROOT
BRANCH   2   7
ATOM      7  C   UNL     1       2.759   0.116  -1.472  0.00  0.00    +0.000 A 
ATOM      8  C   UNL     1       2.425   1.335  -2.073  0.00  0.00    +0.000 A 
ATOM      9  N   UNL     1       2.675   1.662  -3.363  0.00  0.00    +0.000 NA
ATOM     10  C   UNL     1       3.304   0.731  -4.114  0.00  0.00    +0.000 A 
ATOM     11  C   UNL     1       3.684  -0.514  -3.640  0.00  0.00    +0.000 A 
ATOM     12  C   UNL     1       3.400  -0.815  -2.301  0.00  0.00    +0.000 A 
BRANCH  11  13
ATOM     13  C   UNL     1       4.375  -1.535  -4.464  0.00  0.00    +0.000 C 
ATOM     14  N   UNL     1       4.694  -1.246  -5.760  0.00  0.00    +0.000 N 
ATOM     15  O   UNL     1       4.658  -2.634  -3.999  0.00  0.00    +0.000 OA
ATOM     16  H   UNL     1       4.528  -0.373  -6.235  0.00  0.00    +0.000 HD
ATOM     17  H   UNL     1       5.182  -1.970  -6.273  0.00  0.00    +0.000 HD
ENDBRANCH  11  13
ENDBRANCH   2   7
BRANCH   5  18
ATOM     18  C   UNL     1       5.603   0.731   0.246  0.00  0.00    +0.000 A 
ATOM     19  C   UNL     1       5.628   1.906  -0.515  0.00  0.00    +0.000 A 
ATOM     20  C   UNL     1       6.744   2.230  -1.289  0.00  0.00    +0.000 A 
ATOM     21  C   UNL     1       7.849   1.381  -1.281  0.00  0.00    +0.000 A 
ATOM     22  N   UNL     1       7.847   0.230  -0.554  0.00  0.00    +0.000 NA
ATOM     23  C   UNL     1       6.747  -0.058   0.184  0.00  0.00    +0.000 A 
BRANCH  21  24
ATOM     24  C   UNL     1       9.105   1.754  -2.058  0.00  0.00    +0.000 C 
ATOM     25  F   UNL     1       9.005   2.957  -2.703  0.00  0.00    +0.000 F 
ATOM     26  F   UNL     1      10.210   1.867  -1.264  0.00  0.00    +0.000 F 
ATOM     27  F   UNL     1       9.430   0.852  -3.028  0.00  0.00    +0.000 F 
ENDBRANCH  21  24
ENDBRANCH   5  18
TORSDOF 4
