REMARK  Name = 
REMARK  5 active torsions:
REMARK  status: ('A' for Active; 'I' for Inactive)
REMARK    1  A    between atoms: C_1  and  C_2
REMARK    2  A    between atoms: C_2  and  N_3
REMARK    3  A    between atoms: C_2  and  C_13
REMARK    4  A    between atoms: N_3  and  C_4
REMARK    5  A    between atoms: C_7  and  C_8
REMARK                            x       y       z     vdW  Elec       q    Type
REMARK                         _______ _______ _______ _____ _____    ______ ____
ROOT
ATOM      1  N   UNL     1       2.853  -0.407   1.491  0.00  0.00    +0.000 N 
ATOM      2  H   UNL     1       3.600  -1.099   1.545  0.00  0.00    +0.000 HD
ENDROOT
BRANCH   1   3
ATOM      3  C   UNL     1       3.025   0.588   2.455  0.00  0.00    +0.000 A 
ATOM      4  C   UNL     1       2.365   1.817   2.442  0.00  0.00    +0.000 A 
ATOM      5  C   UNL     1       2.498   2.711   3.508  0.00  0.00    +0.000 A 
ATOM      6  C   UNL     1       3.293   2.345   4.584  0.00  0.00    +0.000 A 
ATOM      7  N   UNL     1       3.955   1.163   4.659  0.00  0.00    +0.000 NA
ATOM      8  C   UNL     1       3.783   0.324   3.608  0.00  0.00    +0.000 A 
BRANCH   6   9
ATOM      9  C   UNL     1       3.433   3.277   5.749  0.00  0.00    +0.000 C 
ATOM     10  N   UNL     1       4.236   2.834   6.763  0.00  0.00    +0.000 N 
ATOM     11  O   UNL     1       2.862   4.360   5.800  0.00  0.00    +0.000 OA
ATOM     12  H   UNL     1       4.680   1.926   6.695  0.00  0.00    +0.000 HD
ATOM     13  H   UNL     1       4.352   3.405   7.588  0.00  0.00    +0.000 HD
ENDBRANCH   6   9
ENDBRANCH   1   3
BRANCH   1  15
ATOM     14  C   UNL     1       0.976  -0.034  -0.089  0.00  0.00    +0.000 C 
ATOM     15  C   UNL     1       2.495  -0.100   0.099  0.00  0.00    +0.000 C 
BRANCH  15  16
ATOM     16  C   UNL     1       3.081  -1.196  -0.777  0.00  0.00    +0.000 A 
ATOM     17  C   UNL     1       2.639  -2.527  -0.709  0.00  0.00    +0.000 A 
ATOM     18  C   UNL     1       3.239  -3.500  -1.501  0.00  0.00    +0.000 A 
ATOM     19  C   UNL     1       4.270  -3.108  -2.336  0.00  0.00    +0.000 A 
ATOM     20 CL   UNL     1       5.085  -4.248  -3.323  0.00  0.00    +0.000 Cl
ATOM     21  N   UNL     1       4.728  -1.844  -2.438  0.00  0.00    +0.000 NA
ATOM     22  C   UNL     1       4.123  -0.919  -1.658  0.00  0.00    +0.000 A 
ENDBRANCH  15  16
ENDBRANCH   1  15
TORSDOF 4
