REMARK  Name = 
REMARK  7 active torsions:
REMARK  status: ('A' for Active; 'I' for Inactive)
REMARK    1  A    between atoms: C_2  and  C_21
REMARK    2  A    between atoms: N_3  and  C_4
REMARK    3  A    between atoms: C_4  and  C_5
REMARK    4  A    between atoms: C_8  and  C_9
REMARK    5  A    between atoms: C_9  and  N_10
REMARK    6  A    between atoms: N_10  and  C_11
REMARK    7  A    between atoms: C_11  and  C_12
REMARK                            x       y       z     vdW  Elec       q    Type
REMARK                         _______ _______ _______ _____ _____    ______ ____
ROOT
ATOM      1  C   UNL     1       3.178  -2.497   2.737  0.00  0.00    +0.000 A 
ATOM      2  C   UNL     1       4.154  -1.870   3.512  0.00  0.00    +0.000 A 
ATOM      3  C   UNL     1       4.963  -2.630   4.354  0.00  0.00    +0.000 A 
ATOM      4  C   UNL     1       4.764  -4.007   4.417  0.00  0.00    +0.000 A 
ATOM      5  N   UNL     1       3.834  -4.643   3.666  0.00  0.00    +0.000 NA
ATOM      6  C   UNL     1       3.076  -3.879   2.846  0.00  0.00    +0.000 A 
ENDROOT
BRANCH   1   7
ATOM      7  C   UNL     1       2.245  -1.712   1.864  0.00  0.00    +0.000 C 
BRANCH   7  10
ATOM      8  O   UNL     1       3.746   0.500   1.154  0.00  0.00    +0.000 OA
ATOM      9  C   UNL     1       3.496  -0.351   0.285  0.00  0.00    +0.000 C 
ATOM     10  N   UNL     1       2.747  -1.466   0.540  0.00  0.00    +0.000 N 
ATOM     11  H   UNL     1       2.748  -2.236  -0.122  0.00  0.00    +0.000 HD
BRANCH   9  12
ATOM     12  C   UNL     1       3.985  -0.190  -1.074  0.00  0.00    +0.000 A 
ATOM     13  C   UNL     1       4.191   1.050  -1.663  0.00  0.00    +0.000 A 
ATOM     14  S   UNL     1       4.883   0.931  -3.227  0.00  0.00    +0.000 S 
ATOM     15  C   UNL     1       4.910  -0.770  -3.150  0.00  0.00    +0.000 A 
ATOM     16  N   UNL     1       5.407  -1.526  -4.163  0.00  0.00    +0.000 NA
ATOM     17  C   UNL     1       5.377  -2.801  -3.944  0.00  0.00    +0.000 A 
ATOM     18  N   UNL     1       4.884  -3.387  -2.805  0.00  0.00    +0.000 N 
ATOM     19  C   UNL     1       4.307  -2.679  -1.794  0.00  0.00    +0.000 A 
ATOM     20  O   UNL     1       3.722  -3.253  -0.873  0.00  0.00    +0.000 OA
ATOM     21  C   UNL     1       4.371  -1.242  -1.968  0.00  0.00    +0.000 A 
ATOM     22  H   UNL     1       4.843  -4.392  -2.718  0.00  0.00    +0.000 HD
ENDBRANCH   9  12
ENDBRANCH   7  10
ENDBRANCH   1   7
BRANCH   4  23
ATOM     23  C   UNL     1       5.600  -4.871   5.339  0.00  0.00    +0.000 C 
BRANCH  23  24
ATOM     24  N   UNL     1       6.380  -5.925   4.667  0.00  0.00    +0.000 NA
ATOM     25  H   UNL     1       5.722  -6.517   4.148  0.00  0.00    +0.000 HD
BRANCH  24  26
ATOM     26  C   UNL     1       7.340  -5.397   3.690  0.00  0.00    +0.000 C 
BRANCH  26  27
ATOM     27  C   UNL     1       8.088  -6.531   3.020  0.00  0.00    +0.000 A 
ATOM     28  C   UNL     1       8.830  -7.430   3.786  0.00  0.00    +0.000 A 
ATOM     29  N   UNL     1       9.503  -8.479   3.247  0.00  0.00    +0.000 NA
ATOM     30  C   UNL     1       9.388  -8.602   1.902  0.00  0.00    +0.000 A 
ATOM     31  C   UNL     1       8.650  -7.716   1.137  0.00  0.00    +0.000 A 
ATOM     32 CL   UNL     1       8.496  -7.892  -0.559  0.00  0.00    +0.000 Cl
ATOM     33  N   UNL     1       7.990  -6.663   1.668  0.00  0.00    +0.000 NA
ENDBRANCH  26  27
ENDBRANCH  24  26
ENDBRANCH  23  24
ENDBRANCH   4  23
TORSDOF 7
