REMARK  Name = 
REMARK  5 active torsions:
REMARK  status: ('A' for Active; 'I' for Inactive)
REMARK    1  A    between atoms: C_1  and  C_2
REMARK    2  A    between atoms: C_2  and  N_3
REMARK    3  A    between atoms: C_2  and  C_13
REMARK    4  A    between atoms: C_8  and  C_9
REMARK    5  A    between atoms: N_17  and  C_18
REMARK                            x       y       z     vdW  Elec       q    Type
REMARK                         _______ _______ _______ _____ _____    ______ ____
ROOT
ATOM      1  N   UNL     1       2.807   1.154  -1.050  0.00  0.00    +0.000 N 
ATOM      2  C   UNL     1       2.968   0.740  -2.360  0.00  0.00    +0.000 A 
ATOM      3  N   UNL     1       3.914   1.403  -3.043  0.00  0.00    +0.000 NA
ATOM      4  C   UNL     1       4.086   1.092  -4.342  0.00  0.00    +0.000 A 
ATOM      5  C   UNL     1       3.348   0.141  -4.989  0.00  0.00    +0.000 A 
ATOM      6  C   UNL     1       2.412  -0.485  -4.201  0.00  0.00    +0.000 A 
ATOM      7  N   UNL     1       2.204  -0.217  -2.887  0.00  0.00    +0.000 NA
ATOM      8  H   UNL     1       3.628   1.717  -0.855  0.00  0.00    +0.000 HD
ENDROOT
BRANCH   6   9
ATOM      9  C   UNL     1       1.533  -1.531  -4.808  0.00  0.00    +0.000 C 
ATOM     10  N   UNL     1       0.623  -2.097  -3.957  0.00  0.00    +0.000 N 
ATOM     11  O   UNL     1       1.612  -1.857  -5.985  0.00  0.00    +0.000 OA
ATOM     12  H   UNL     1       0.559  -1.762  -3.002  0.00  0.00    +0.000 HD
ATOM     13  H   UNL     1      -0.033  -2.776  -4.308  0.00  0.00    +0.000 HD
ENDBRANCH   6   9
BRANCH   1  15
ATOM     14  C   UNL     1       0.907   0.059   0.034  0.00  0.00    +0.000 C 
ATOM     15  C   UNL     1       2.437   0.161  -0.045  0.00  0.00    +0.000 C 
BRANCH  15  16
ATOM     16  C   UNL     1       3.021   0.533   1.351  0.00  0.00    +0.000 C 
ATOM     17  C   UNL     1       2.526   1.888   1.887  0.00  0.00    +0.000 C 
ATOM     18  C   UNL     1       3.146   2.180   3.249  0.00  0.00    +0.000 C 
ATOM     19  C   UNL     1       4.668   2.086   3.193  0.00  0.00    +0.000 C 
ATOM     20  N   UNL     1       5.096   0.764   2.714  0.00  0.00    +0.000 NA
ATOM     21  C   UNL     1       6.557   0.677   2.715  0.00  0.00    +0.000 C 
ATOM     22  C   UNL     1       4.564   0.482   1.369  0.00  0.00    +0.000 C 
ENDBRANCH  15  16
ENDBRANCH   1  15
TORSDOF 3
