REMARK  Name = 
REMARK  7 active torsions:
REMARK  status: ('A' for Active; 'I' for Inactive)
REMARK    1  A    between atoms: C_1  and  O_2
REMARK    2  A    between atoms: O_2  and  C_3
REMARK    3  A    between atoms: N_10  and  C_11
REMARK    4  A    between atoms: C_11  and  C_12
REMARK    5  A    between atoms: C_15  and  C_16
REMARK    6  A    between atoms: C_16  and  C_17
REMARK    7  A    between atoms: C_17  and  N_18
REMARK                            x       y       z     vdW  Elec       q    Type
REMARK                         _______ _______ _______ _____ _____    ______ ____
ROOT
ATOM      1  C   UNL     1       4.886   3.848  -4.650  0.00  0.00    +0.000 C 
ENDROOT
BRANCH   1   9
ATOM      2  C   UNL     1       7.276   0.757  -1.285  0.00  0.00    +0.000 A 
ATOM      3  C   UNL     1       7.440   2.102  -1.604  0.00  0.00    +0.000 A 
ATOM      4  N   UNL     1       6.728   2.797  -2.529  0.00  0.00    +0.000 NA
ATOM      5  C   UNL     1       5.793   2.046  -3.149  0.00  0.00    +0.000 A 
ATOM      6  C   UNL     1       5.533   0.695  -2.935  0.00  0.00    +0.000 A 
ATOM      7  C   UNL     1       4.469   0.332  -3.803  0.00  0.00    +0.000 A 
ATOM      8  C   UNL     1       4.109   1.456  -4.516  0.00  0.00    +0.000 A 
ATOM      9  N   UNL     1       4.917   2.494  -4.110  0.00  0.00    +0.000 N 
ATOM     10  C   UNL     1       6.315   0.025  -1.980  0.00  0.00    +0.000 A 
BRANCH   2  12
ATOM     11  C   UNL     1       8.567   0.819   0.695  0.00  0.00    +0.000 C 
ATOM     12  O   UNL     1       8.002   0.052  -0.362  0.00  0.00    +0.000 OA
ENDBRANCH   2  12
ENDBRANCH   1   9
BRANCH   1  13
ATOM     13  C   UNL     1       3.834   4.695  -3.975  0.00  0.00    +0.000 A 
ATOM     14  C   UNL     1       3.970   5.060  -2.628  0.00  0.00    +0.000 A 
ATOM     15  C   UNL     1       2.953   5.755  -1.971  0.00  0.00    +0.000 A 
ATOM     16  C   UNL     1       1.780   6.105  -2.648  0.00  0.00    +0.000 A 
ATOM     17  C   UNL     1       1.675   5.813  -4.013  0.00  0.00    +0.000 A 
ATOM     18  C   UNL     1       2.690   5.110  -4.670  0.00  0.00    +0.000 A 
BRANCH  16  19
ATOM     19  C   UNL     1       0.630   6.739  -1.905  0.00  0.00    +0.000 C 
BRANCH  19  20
ATOM     20  C   UNL     1       0.696   8.267  -1.870  0.00  0.00    +0.000 C 
BRANCH  20  21
ATOM     21  N   UNL     1      -0.454   8.815  -1.149  0.00  0.00    +0.000 NA
ATOM     22  H   UNL     1      -1.315   8.560  -1.633  0.00  0.00    +0.000 HD
ATOM     23  H   UNL     1      -0.410   9.832  -1.162  0.00  0.00    +0.000 HD
ENDBRANCH  20  21
ENDBRANCH  19  20
ENDBRANCH  16  19
ENDBRANCH   1  13
TORSDOF 6
