REMARK  Name = 
REMARK  6 active torsions:
REMARK  status: ('A' for Active; 'I' for Inactive)
REMARK    1  A    between atoms: C_2  and  C_4
REMARK    2  A    between atoms: N_8  and  C_9
REMARK    3  A    between atoms: C_9  and  C_10
REMARK    4  A    between atoms: C_14  and  C_15
REMARK    5  A    between atoms: C_19  and  O_20
REMARK    6  A    between atoms: O_20  and  C_21
REMARK                            x       y       z     vdW  Elec       q    Type
REMARK                         _______ _______ _______ _____ _____    ______ ____
ROOT
ATOM      1  C   UNL     1       5.828  -3.217   4.391  0.00  0.00    +0.000 C 
ATOM      2  C   UNL     1       5.705  -2.688   2.965  0.00  0.00    +0.000 C 
ATOM      3  C   UNL     1       4.476  -3.061   3.723  0.00  0.00    +0.000 C 
ENDROOT
BRANCH   1   8
ATOM      4  C   UNL     1       4.624  -1.225   8.964  0.00  0.00    +0.000 A 
ATOM      5  C   UNL     1       5.979  -1.231   8.744  0.00  0.00    +0.000 A 
ATOM      6  N   UNL     1       6.542  -1.608   7.576  0.00  0.00    +0.000 NA
ATOM      7  C   UNL     1       5.716  -2.023   6.597  0.00  0.00    +0.000 A 
ATOM      8  N   UNL     1       6.342  -2.262   5.375  0.00  0.00    +0.000 N 
ATOM      9  N   UNL     1       4.385  -2.123   6.745  0.00  0.00    +0.000 NA
ATOM     10  C   UNL     1       3.865  -1.719   7.929  0.00  0.00    +0.000 A 
ATOM     11  H   UNL     1       7.337  -2.270   5.565  0.00  0.00    +0.000 HD
BRANCH   4  13
ATOM     12  N   UNL     1       4.673   0.244  10.895  0.00  0.00    +0.000 N 
ATOM     13  C   UNL     1       4.004  -0.725  10.199  0.00  0.00    +0.000 C 
ATOM     14  O   UNL     1       2.903  -1.122  10.555  0.00  0.00    +0.000 OA
ATOM     15  H   UNL     1       4.172   0.663  11.669  0.00  0.00    +0.000 HD
ATOM     16  H   UNL     1       5.440   0.777  10.507  0.00  0.00    +0.000 HD
ENDBRANCH   4  13
ENDBRANCH   1   8
BRANCH   1  17
ATOM     17  C   UNL     1       6.349  -4.639   4.576  0.00  0.00    +0.000 A 
ATOM     18  C   UNL     1       5.716  -5.538   5.446  0.00  0.00    +0.000 A 
ATOM     19  C   UNL     1       6.135  -6.863   5.541  0.00  0.00    +0.000 A 
ATOM     20  C   UNL     1       7.199  -7.318   4.760  0.00  0.00    +0.000 A 
ATOM     21  C   UNL     1       7.877  -6.457   3.882  0.00  0.00    +0.000 A 
ATOM     22  C   UNL     1       7.452  -5.116   3.839  0.00  0.00    +0.000 A 
BRANCH  21  23
ATOM     23  C   UNL     1       8.937  -6.943   2.976  0.00  0.00    +0.000 A 
ATOM     24  C   UNL     1       8.836  -8.186   2.344  0.00  0.00    +0.000 A 
ATOM     25  N   UNL     1       9.742  -8.696   1.476  0.00  0.00    +0.000 NA
ATOM     26  C   UNL     1      10.809  -7.916   1.196  0.00  0.00    +0.000 A 
ATOM     27  C   UNL     1      11.010  -6.650   1.730  0.00  0.00    +0.000 A 
ATOM     28  C   UNL     1      10.073  -6.179   2.652  0.00  0.00    +0.000 A 
BRANCH  27  29
ATOM     29  O   UNL     1      12.131  -5.994   1.315  0.00  0.00    +0.000 OA
BRANCH  29  30
ATOM     30  C   UNL     1      12.043  -4.581   1.312  0.00  0.00    +0.000 C 
ATOM     31  F   UNL     1      12.339  -4.124   2.553  0.00  0.00    +0.000 F 
ATOM     32  F   UNL     1      13.011  -4.118   0.482  0.00  0.00    +0.000 F 
ENDBRANCH  29  30
ENDBRANCH  27  29
ENDBRANCH  21  23
ENDBRANCH   1  17
TORSDOF 6
