REMARK  Name = 
REMARK  7 active torsions:
REMARK  status: ('A' for Active; 'I' for Inactive)
REMARK    1  A    between atoms: C_1  and  O_2
REMARK    2  A    between atoms: O_2  and  C_3
REMARK    3  A    between atoms: C_5  and  C_6
REMARK    4  A    between atoms: C_6  and  N_7
REMARK    5  A    between atoms: N_7  and  C_8
REMARK    6  A    between atoms: C_11  and  C_12
REMARK    7  A    between atoms: C_16  and  C_17
REMARK                            x       y       z     vdW  Elec       q    Type
REMARK                         _______ _______ _______ _____ _____    ______ ____
ROOT
ATOM      1  N   UNL     1       3.132   3.660  -4.195  0.00  0.00    +0.000 N 
ATOM      2  H   UNL     1       3.700   4.402  -4.597  0.00  0.00    +0.000 HD
ENDROOT
BRANCH   1   3
ATOM      3  C   UNL     1       2.475   3.010  -5.233  0.00  0.00    +0.000 A 
ATOM      4  N   UNL     1       2.898   3.460  -6.438  0.00  0.00    +0.000 NA
ATOM      5  C   UNL     1       2.399   2.893  -7.561  0.00  0.00    +0.000 A 
ATOM      6  C   UNL     1       1.521   1.833  -7.549  0.00  0.00    +0.000 A 
ATOM      7  C   UNL     1       1.066   1.387  -6.313  0.00  0.00    +0.000 A 
ATOM      8  C   UNL     1       1.523   1.986  -5.123  0.00  0.00    +0.000 A 
ATOM      9  C   UNL     1       0.886   1.506  -3.854  0.00  0.00    +0.000 C 
BRANCH   6  10
ATOM     10  C   UNL     1       1.077   1.238  -8.819  0.00  0.00    +0.000 C 
ATOM     11  N   UNL     1       0.715  -0.082  -8.794  0.00  0.00    +0.000 N 
ATOM     12  O   UNL     1       1.069   1.881  -9.860  0.00  0.00    +0.000 OA
ATOM     13  H   UNL     1       0.940  -0.695  -8.027  0.00  0.00    +0.000 HD
ATOM     14  H   UNL     1       0.516  -0.509  -9.691  0.00  0.00    +0.000 HD
ENDBRANCH   6  10
ENDBRANCH   1   3
BRANCH   1  15
ATOM     15  C   UNL     1       2.735   3.746  -2.789  0.00  0.00    +0.000 C 
ATOM     16  C   UNL     1       2.559   5.145  -2.193  0.00  0.00    +0.000 C 
ATOM     17  C   UNL     1       1.358   4.309  -2.470  0.00  0.00    +0.000 C 
BRANCH  15  20
ATOM     18  C   UNL     1       5.069   1.159  -1.223  0.00  0.00    +0.000 A 
ATOM     19  C   UNL     1       4.532   1.992  -2.187  0.00  0.00    +0.000 A 
ATOM     20  C   UNL     1       3.404   2.720  -1.833  0.00  0.00    +0.000 A 
ATOM     21  N   UNL     1       2.858   2.569  -0.599  0.00  0.00    +0.000 NA
ATOM     22  C   UNL     1       3.455   1.729   0.251  0.00  0.00    +0.000 A 
ATOM     23  N   UNL     1       4.548   1.008   0.005  0.00  0.00    +0.000 NA
BRANCH  18  25
ATOM     24  C   UNL     1       6.762  -0.243  -0.436  0.00  0.00    +0.000 C 
ATOM     25  O   UNL     1       6.205   0.447  -1.558  0.00  0.00    +0.000 OA
ENDBRANCH  18  25
ENDBRANCH  15  20
ENDBRANCH   1  15
TORSDOF 5
