REMARK  Name = 
REMARK  6 active torsions:
REMARK  status: ('A' for Active; 'I' for Inactive)
REMARK    1  A    between atoms: C_2  and  C_20
REMARK    2  A    between atoms: N_3  and  C_4
REMARK    3  A    between atoms: C_4  and  C_5
REMARK    4  A    between atoms: C_8  and  C_9
REMARK    5  A    between atoms: C_9  and  N_10
REMARK    6  A    between atoms: C_11  and  C_13
REMARK                            x       y       z     vdW  Elec       q    Type
REMARK                         _______ _______ _______ _____ _____    ______ ____
ROOT
ATOM      1  C   UNL     1       2.295  -0.564   2.464  0.00  0.00    +0.000 C 
ENDROOT
BRANCH   1   2
ATOM      2  C   UNL     1       3.228  -0.732   3.636  0.00  0.00    +0.000 A 
ATOM      3  C   UNL     1       3.798   0.386   4.258  0.00  0.00    +0.000 A 
ATOM      4  C   UNL     1       4.630   0.238   5.374  0.00  0.00    +0.000 A 
ATOM      5  C   UNL     1       4.928  -1.034   5.880  0.00  0.00    +0.000 A 
ATOM      6  C   UNL     1       4.377  -2.154   5.243  0.00  0.00    +0.000 A 
ATOM      7  C   UNL     1       3.545  -2.005   4.127  0.00  0.00    +0.000 A 
BRANCH   5   8
ATOM      8  C   UNL     1       5.850  -1.194   7.061  0.00  0.00    +0.000 C 
BRANCH   8   9
ATOM      9  N   UNL     1       5.161  -1.212   8.336  0.00  0.00    +0.000 N 
ATOM     10  C   UNL     1       5.895  -1.422   9.480  0.00  0.00    +0.000 C 
ATOM     11  O   UNL     1       7.095  -1.700   9.444  0.00  0.00    +0.000 OA
ATOM     12  H   UNL     1       4.255  -0.761   8.403  0.00  0.00    +0.000 HD
BRANCH  10  13
ATOM     13  C   UNL     1       5.174  -1.325  10.818  0.00  0.00    +0.000 C 
ATOM     14  C   UNL     1       4.088  -2.357  11.000  0.00  0.00    +0.000 C 
ATOM     15  C   UNL     1       2.813  -1.631  10.623  0.00  0.00    +0.000 C 
ATOM     16  O   UNL     1       3.095  -0.227  10.587  0.00  0.00    +0.000 OA
ATOM     17  C   UNL     1       4.450  -0.013  11.002  0.00  0.00    +0.000 C 
ENDBRANCH  10  13
ENDBRANCH   8   9
ENDBRANCH   5   8
ENDBRANCH   1   2
BRANCH   1  20
ATOM     18  O   UNL     1       1.060  -0.510  -0.008  0.00  0.00    +0.000 OA
ATOM     19  C   UNL     1       2.287  -0.466   0.021  0.00  0.00    +0.000 C 
ATOM     20  N   UNL     1       2.989  -0.561   1.201  0.00  0.00    +0.000 N 
ATOM     21  H   UNL     1       3.974  -0.313   1.217  0.00  0.00    +0.000 HD
BRANCH  19  22
ATOM     22  C   UNL     1       3.077  -0.334  -1.208  0.00  0.00    +0.000 A 
ATOM     23  C   UNL     1       2.531  -0.733  -2.422  0.00  0.00    +0.000 A 
ATOM     24  S   UNL     1       3.582  -0.522  -3.748  0.00  0.00    +0.000 S 
ATOM     25  C   UNL     1       4.786   0.156  -2.755  0.00  0.00    +0.000 A 
ATOM     26  N   UNL     1       5.960   0.598  -3.281  0.00  0.00    +0.000 NA
ATOM     27  C   UNL     1       6.764   1.127  -2.421  0.00  0.00    +0.000 A 
ATOM     28  N   UNL     1       6.506   1.244  -1.079  0.00  0.00    +0.000 N 
ATOM     29  C   UNL     1       5.352   0.774  -0.497  0.00  0.00    +0.000 A 
ATOM     30  O   UNL     1       5.179   0.838   0.715  0.00  0.00    +0.000 OA
ATOM     31  C   UNL     1       4.402   0.195  -1.426  0.00  0.00    +0.000 A 
ATOM     32  H   UNL     1       7.184   1.655  -0.456  0.00  0.00    +0.000 HD
ENDBRANCH  19  22
ENDBRANCH   1  20
TORSDOF 6
