REMARK  Name = 
REMARK  6 active torsions:
REMARK  status: ('A' for Active; 'I' for Inactive)
REMARK    1  A    between atoms: C_2  and  C_25
REMARK    2  A    between atoms: N_3  and  C_4
REMARK    3  A    between atoms: C_4  and  C_5
REMARK    4  A    between atoms: C_8  and  C_9
REMARK    5  A    between atoms: C_9  and  N_10
REMARK    6  A    between atoms: C_11  and  C_13
REMARK                            x       y       z     vdW  Elec       q    Type
REMARK                         _______ _______ _______ _____ _____    ______ ____
ROOT
ATOM      1  C   UNL     1       3.250   2.430   2.739  0.00  0.00    +0.000 C 
ATOM      2  C   UNL     1       3.322   1.733   4.107  0.00  0.00    +0.000 C 
ATOM      3  C   UNL     1       4.182   2.506   5.107  0.00  0.00    +0.000 C 
ATOM      4  C   UNL     1       3.708   3.958   5.274  0.00  0.00    +0.000 C 
ATOM      5  C   UNL     1       3.645   4.653   3.905  0.00  0.00    +0.000 C 
ATOM      6  C   UNL     1       2.784   3.884   2.905  0.00  0.00    +0.000 C 
ENDROOT
BRANCH   1   7
ATOM      7  C   UNL     1       2.306   1.687   1.778  0.00  0.00    +0.000 C 
BRANCH   7  10
ATOM      8  O   UNL     1       4.076   0.877  -0.289  0.00  0.00    +0.000 OA
ATOM      9  C   UNL     1       3.610   0.042   0.470  0.00  0.00    +0.000 C 
ATOM     10  N   UNL     1       2.741   0.332   1.502  0.00  0.00    +0.000 N 
ATOM     11  H   UNL     1       2.562  -0.367   2.208  0.00  0.00    +0.000 HD
BRANCH   9  12
ATOM     12  C   UNL     1       3.995  -1.380   0.340  0.00  0.00    +0.000 A 
ATOM     13  C   UNL     1       3.134  -2.430   0.671  0.00  0.00    +0.000 A 
ATOM     14  C   UNL     1       3.574  -3.743   0.527  0.00  0.00    +0.000 A 
ATOM     15  C   UNL     1       4.858  -3.959   0.052  0.00  0.00    +0.000 A 
ATOM     16  N   UNL     1       5.710  -2.967  -0.291  0.00  0.00    +0.000 NA
ATOM     17  C   UNL     1       5.254  -1.696  -0.151  0.00  0.00    +0.000 A 
ENDBRANCH   9  12
ENDBRANCH   7  10
ENDBRANCH   1   7
BRANCH   4  18
ATOM     18  C   UNL     1       4.623   4.758   6.221  0.00  0.00    +0.000 C 
BRANCH  18  19
ATOM     19  N   UNL     1       4.679   4.209   7.559  0.00  0.00    +0.000 N 
ATOM     20  C   UNL     1       3.745   4.503   8.521  0.00  0.00    +0.000 C 
ATOM     21  O   UNL     1       2.791   5.246   8.304  0.00  0.00    +0.000 OA
ATOM     22  H   UNL     1       5.530   3.725   7.826  0.00  0.00    +0.000 HD
BRANCH  20  23
ATOM     23  C   UNL     1       3.904   3.826   9.815  0.00  0.00    +0.000 A 
ATOM     24  C   UNL     1       2.794   3.634  10.627  0.00  0.00    +0.000 A 
ATOM     25  S   UNL     1       3.138   2.793  12.070  0.00  0.00    +0.000 S 
ATOM     26  C   UNL     1       4.794   2.701  11.685  0.00  0.00    +0.000 A 
ATOM     27  N   UNL     1       5.678   2.112  12.532  0.00  0.00    +0.000 NA
ATOM     28  C   UNL     1       6.904   2.146  12.135  0.00  0.00    +0.000 A 
ATOM     29  N   UNL     1       7.330   2.712  10.963  0.00  0.00    +0.000 N 
ATOM     30  C   UNL     1       6.465   3.279  10.051  0.00  0.00    +0.000 A 
ATOM     31  O   UNL     1       6.868   3.705   8.971  0.00  0.00    +0.000 OA
ATOM     32  C   UNL     1       5.077   3.288  10.464  0.00  0.00    +0.000 A 
ATOM     33  H   UNL     1       8.303   2.690  10.699  0.00  0.00    +0.000 HD
ENDBRANCH  20  23
ENDBRANCH  18  19
ENDBRANCH   4  18
TORSDOF 6
