REMARK  Name = 
REMARK  8 active torsions:
REMARK  status: ('A' for Active; 'I' for Inactive)
REMARK    1  A    between atoms: C_1  and  C_2
REMARK    2  A    between atoms: C_2  and  N_3
REMARK    3  A    between atoms: C_2  and  C_19
REMARK    4  A    between atoms: N_3  and  C_4
REMARK    5  A    between atoms: C_7  and  C_8
REMARK    6  A    between atoms: C_8  and  N_9
REMARK    7  A    between atoms: N_9  and  C_10
REMARK    8  A    between atoms: C_13  and  N_14
REMARK                            x       y       z     vdW  Elec       q    Type
REMARK                         _______ _______ _______ _____ _____    ______ ____
ROOT
ATOM      1  C   UNL     1       2.694   1.941   1.566  0.00  0.00    +0.000 A 
ATOM      2  C   UNL     1       1.368   2.270   1.800  0.00  0.00    +0.000 A 
ATOM      3  N   UNL     1       0.943   3.321   2.534  0.00  0.00    +0.000 NA
ATOM      4  C   UNL     1       1.912   4.085   3.075  0.00  0.00    +0.000 A 
ATOM      5  N   UNL     1       3.225   3.783   3.044  0.00  0.00    +0.000 NA
ATOM      6  C   UNL     1       3.577   2.708   2.300  0.00  0.00    +0.000 A 
ENDROOT
BRANCH   1   7
ATOM      7  N   UNL     1       3.124   1.030   0.618  0.00  0.00    +0.000 N 
ATOM      8  H   UNL     1       3.688   0.228   0.891  0.00  0.00    +0.000 HD
BRANCH   7  10
ATOM      9  C   UNL     1       1.516  -0.141  -0.824  0.00  0.00    +0.000 C 
ATOM     10  C   UNL     1       2.506   1.026  -0.699  0.00  0.00    +0.000 C 
BRANCH  10  11
ATOM     11  C   UNL     1       3.449   1.061  -1.887  0.00  0.00    +0.000 A 
ATOM     12  C   UNL     1       3.607   2.157  -2.721  0.00  0.00    +0.000 A 
ATOM     13  S   UNL     1       4.366   1.749  -4.201  0.00  0.00    +0.000 S 
ATOM     14  C   UNL     1       4.599   0.137  -3.699  0.00  0.00    +0.000 A 
ATOM     15  N   UNL     1       5.082  -0.820  -4.533  0.00  0.00    +0.000 NA
ATOM     16  C   UNL     1       5.237  -1.977  -3.979  0.00  0.00    +0.000 A 
ATOM     17  N   UNL     1       5.016  -2.250  -2.656  0.00  0.00    +0.000 N 
ATOM     18  C   UNL     1       4.566  -1.300  -1.757  0.00  0.00    +0.000 A 
ATOM     19  O   UNL     1       4.486  -1.522  -0.556  0.00  0.00    +0.000 OA
ATOM     20  C   UNL     1       4.235  -0.033  -2.379  0.00  0.00    +0.000 A 
ATOM     21  H   UNL     1       5.249  -3.148  -2.266  0.00  0.00    +0.000 HD
ENDBRANCH  10  11
ENDBRANCH   7  10
ENDBRANCH   1   7
BRANCH   4  22
ATOM     22  C   UNL     1       1.512   5.470   3.561  0.00  0.00    +0.000 C 
BRANCH  22  23
ATOM     23  N   UNL     1       0.451   5.534   4.584  0.00  0.00    +0.000 NA
ATOM     24  H   UNL     1      -0.342   5.005   4.216  0.00  0.00    +0.000 HD
BRANCH  23  25
ATOM     25  C   UNL     1       0.840   4.972   5.883  0.00  0.00    +0.000 C 
ATOM     26  C   UNL     1       2.075   5.661   6.490  0.00  0.00    +0.000 C 
ATOM     27  C   UNL     1       2.383   5.144   7.891  0.00  0.00    +0.000 C 
ATOM     28  C   UNL     1       1.179   5.305   8.819  0.00  0.00    +0.000 C 
ATOM     29  C   UNL     1      -0.057   4.613   8.236  0.00  0.00    +0.000 C 
ATOM     30  C   UNL     1      -0.368   5.119   6.828  0.00  0.00    +0.000 C 
BRANCH  28  31
ATOM     31  N   UNL     1       1.502   4.763  10.137  0.00  0.00    +0.000 NA
ATOM     32  H   UNL     1       1.715   3.769  10.061  0.00  0.00    +0.000 HD
ATOM     33  H   UNL     1       0.687   4.833  10.743  0.00  0.00    +0.000 HD
ENDBRANCH  28  31
ENDBRANCH  23  25
ENDBRANCH  22  23
ENDBRANCH   4  22
TORSDOF 7
