REMARK  Name = 
REMARK  7 active torsions:
REMARK  status: ('A' for Active; 'I' for Inactive)
REMARK    1  A    between atoms: C_2  and  C_20
REMARK    2  A    between atoms: N_3  and  C_4
REMARK    3  A    between atoms: C_4  and  C_5
REMARK    4  A    between atoms: C_8  and  C_9
REMARK    5  A    between atoms: C_9  and  N_10
REMARK    6  A    between atoms: N_10  and  C_11
REMARK    7  A    between atoms: C_11  and  C_12
REMARK                            x       y       z     vdW  Elec       q    Type
REMARK                         _______ _______ _______ _____ _____    ______ ____
ROOT
ATOM      1  C   UNL     1       2.212   1.325  -2.035  0.00  0.00    +0.000 C 
ENDROOT
BRANCH   1   2
ATOM      2  C   UNL     1       3.188   1.966  -3.027  0.00  0.00    +0.000 C 
ATOM      3  C   UNL     1       4.578   1.310  -2.971  0.00  0.00    +0.000 C 
ATOM      4  C   UNL     1       5.568   2.003  -3.907  0.00  0.00    +0.000 C 
ATOM      5  C   UNL     1       5.673   3.506  -3.604  0.00  0.00    +0.000 C 
ATOM      6  C   UNL     1       4.281   4.157  -3.667  0.00  0.00    +0.000 C 
ATOM      7  C   UNL     1       3.292   3.467  -2.735  0.00  0.00    +0.000 C 
BRANCH   5   8
ATOM      8  C   UNL     1       6.665   4.184  -4.572  0.00  0.00    +0.000 C 
BRANCH   8   9
ATOM      9  N   UNL     1       6.798   5.600  -4.229  0.00  0.00    +0.000 NA
ATOM     10  H   UNL     1       7.141   5.700  -3.275  0.00  0.00    +0.000 HD
BRANCH   9  11
ATOM     11  C   UNL     1       7.690   6.305  -5.143  0.00  0.00    +0.000 C 
BRANCH  11  12
ATOM     12  C   UNL     1       7.751   7.769  -4.778  0.00  0.00    +0.000 A 
ATOM     13  C   UNL     1       8.948   8.367  -4.378  0.00  0.00    +0.000 A 
ATOM     14  C   UNL     1       8.941   9.716  -4.050  0.00  0.00    +0.000 A 
ATOM     15  N   UNL     1       7.841  10.496  -4.092  0.00  0.00    +0.000 NA
ATOM     16  C   UNL     1       6.692   9.898  -4.476  0.00  0.00    +0.000 A 
ATOM     17  C   UNL     1       6.598   8.561  -4.826  0.00  0.00    +0.000 A 
ENDBRANCH  11  12
ENDBRANCH   9  11
ENDBRANCH   8   9
ENDBRANCH   5   8
ENDBRANCH   1   2
BRANCH   1  20
ATOM     18  O   UNL     1       0.210   0.210  -3.716  0.00  0.00    +0.000 OA
ATOM     19  C   UNL     1       0.969  -0.534  -3.103  0.00  0.00    +0.000 C 
ATOM     20  N   UNL     1       1.992  -0.073  -2.316  0.00  0.00    +0.000 N 
ATOM     21  H   UNL     1       2.548  -0.734  -1.787  0.00  0.00    +0.000 HD
BRANCH  19  22
ATOM     22  C   UNL     1       0.871  -1.991  -3.201  0.00  0.00    +0.000 A 
ATOM     23  C   UNL     1       0.359  -2.583  -4.345  0.00  0.00    +0.000 A 
ATOM     24  S   UNL     1       0.354  -4.288  -4.280  0.00  0.00    +0.000 S 
ATOM     25  C   UNL     1       0.993  -4.288  -2.703  0.00  0.00    +0.000 A 
ATOM     26  N   UNL     1       1.226  -5.452  -2.036  0.00  0.00    +0.000 NA
ATOM     27  C   UNL     1       1.675  -5.300  -0.835  0.00  0.00    +0.000 A 
ATOM     28  N   UNL     1       1.917  -4.089  -0.240  0.00  0.00    +0.000 N 
ATOM     29  C   UNL     1       1.748  -2.892  -0.889  0.00  0.00    +0.000 A 
ATOM     30  O   UNL     1       2.071  -1.835  -0.356  0.00  0.00    +0.000 OA
ATOM     31  C   UNL     1       1.222  -3.007  -2.237  0.00  0.00    +0.000 A 
ATOM     32  H   UNL     1       2.293  -4.038   0.696  0.00  0.00    +0.000 HD
ENDBRANCH  19  22
ENDBRANCH   1  20
TORSDOF 7
