REMARK  Name = 
REMARK  7 active torsions:
REMARK  status: ('A' for Active; 'I' for Inactive)
REMARK    1  A    between atoms: C_2  and  C_20
REMARK    2  A    between atoms: N_3  and  C_4
REMARK    3  A    between atoms: C_4  and  C_5
REMARK    4  A    between atoms: C_9  and  C_10
REMARK    5  A    between atoms: C_10  and  N_11
REMARK    6  A    between atoms: N_11  and  C_12
REMARK    7  A    between atoms: C_12  and  C_13
REMARK                            x       y       z     vdW  Elec       q    Type
REMARK                         _______ _______ _______ _____ _____    ______ ____
ROOT
ATOM      1  C   UNL     1       3.220   2.014  -3.176  0.00  0.00    +0.000 A 
ATOM      2  C   UNL     1       4.148   1.266  -3.901  0.00  0.00    +0.000 A 
ATOM      3  C   UNL     1       4.984   1.923  -4.781  0.00  0.00    +0.000 A 
ATOM      4  N   UNL     1       4.964   3.256  -4.977  0.00  0.00    +0.000 NA
ATOM      5  C   UNL     1       4.073   3.992  -4.265  0.00  0.00    +0.000 A 
ATOM      6  C   UNL     1       3.204   3.406  -3.344  0.00  0.00    +0.000 A 
ENDROOT
BRANCH   1   7
ATOM      7  C   UNL     1       2.275   1.335  -2.224  0.00  0.00    +0.000 C 
BRANCH   7  10
ATOM      8  O   UNL     1       3.659  -0.894  -1.183  0.00  0.00    +0.000 OA
ATOM      9  C   UNL     1       3.539   0.111  -0.492  0.00  0.00    +0.000 C 
ATOM     10  N   UNL     1       2.838   1.217  -0.906  0.00  0.00    +0.000 N 
ATOM     11  H   UNL     1       2.924   2.078  -0.380  0.00  0.00    +0.000 HD
BRANCH   9  12
ATOM     12  C   UNL     1       4.080   0.180   0.870  0.00  0.00    +0.000 A 
ATOM     13  C   UNL     1       4.285  -0.984   1.599  0.00  0.00    +0.000 A 
ATOM     14  S   UNL     1       4.877  -0.705   3.176  0.00  0.00    +0.000 S 
ATOM     15  C   UNL     1       4.926   0.977   2.920  0.00  0.00    +0.000 A 
ATOM     16  N   UNL     1       5.363   1.823   3.891  0.00  0.00    +0.000 NA
ATOM     17  C   UNL     1       5.389   3.067   3.541  0.00  0.00    +0.000 A 
ATOM     18  N   UNL     1       5.014   3.541   2.312  0.00  0.00    +0.000 N 
ATOM     19  C   UNL     1       4.495   2.738   1.329  0.00  0.00    +0.000 A 
ATOM     20  O   UNL     1       4.042   3.210   0.294  0.00  0.00    +0.000 OA
ATOM     21  C   UNL     1       4.481   1.322   1.656  0.00  0.00    +0.000 A 
ATOM     22  H   UNL     1       5.033   4.530   2.110  0.00  0.00    +0.000 HD
ENDBRANCH   9  12
ENDBRANCH   7  10
ENDBRANCH   1   7
BRANCH   5  23
ATOM     23  C   UNL     1       4.057   5.503  -4.484  0.00  0.00    +0.000 C 
BRANCH  23  24
ATOM     24  N   UNL     1       4.436   5.855  -5.855  0.00  0.00    +0.000 NA
ATOM     25  H   UNL     1       3.798   5.360  -6.478  0.00  0.00    +0.000 HD
BRANCH  24  26
ATOM     26  C   UNL     1       4.397   7.286  -6.126  0.00  0.00    +0.000 C 
BRANCH  26  27
ATOM     27  C   UNL     1       4.834   7.580  -7.582  0.00  0.00    +0.000 C 
ATOM     28  C   UNL     1       4.826   9.092  -7.866  0.00  0.00    +0.000 C 
ATOM     29  C   UNL     1       3.403   9.637  -7.995  0.00  0.00    +0.000 C 
ATOM     30  C   UNL     1       2.557   8.805  -8.959  0.00  0.00    +0.000 C 
ATOM     31  N   UNL     1       2.588   7.380  -8.627  0.00  0.00    +0.000 NA
ATOM     32  C   UNL     1       3.966   6.879  -8.643  0.00  0.00    +0.000 C 
ATOM     33  H   UNL     1       2.039   6.862  -9.314  0.00  0.00    +0.000 HD
ENDBRANCH  26  27
ENDBRANCH  24  26
ENDBRANCH  23  24
ENDBRANCH   5  23
TORSDOF 7
