REMARK  Name = 
REMARK  4 active torsions:
REMARK  status: ('A' for Active; 'I' for Inactive)
REMARK    1  A    between atoms: N_1  and  C_2
REMARK    2  A    between atoms: C_2  and  C_3
REMARK    3  A    between atoms: C_6  and  C_7
REMARK    4  A    between atoms: C_7  and  C_8
REMARK                            x       y       z     vdW  Elec       q    Type
REMARK                         _______ _______ _______ _____ _____    ______ ____
ROOT
ATOM      1  C   UNL     1       4.227  -0.364   5.447  0.00  0.00    +0.000 C 
ENDROOT
BRANCH   1   2
ATOM      2  C   UNL     1       4.416   0.985   6.057  0.00  0.00    +0.000 A 
ATOM      3  N   UNL     1       3.655   1.354   7.102  0.00  0.00    +0.000 NA
ATOM      4  N   UNL     1       4.184   2.525   7.490  0.00  0.00    +0.000 N 
ATOM      5  C   UNL     1       5.251   2.939   6.741  0.00  0.00    +0.000 A 
ATOM      6  C   UNL     1       6.082   4.059   6.847  0.00  0.00    +0.000 A 
ATOM      7  C   UNL     1       7.109   4.181   5.906  0.00  0.00    +0.000 A 
ATOM      8  C   UNL     1       7.284   3.228   4.902  0.00  0.00    +0.000 A 
ATOM      9  C   UNL     1       6.445   2.108   4.821  0.00  0.00    +0.000 A 
ATOM     10  C   UNL     1       5.413   1.961   5.767  0.00  0.00    +0.000 A 
ATOM     11  H   UNL     1       3.783   2.990   8.296  0.00  0.00    +0.000 HD
ENDBRANCH   1   2
BRANCH   1  15
ATOM     12  C   UNL     1       3.204  -0.183   1.301  0.00  0.00    +0.000 A 
ATOM     13  C   UNL     1       2.353   0.415   2.233  0.00  0.00    +0.000 A 
ATOM     14  C   UNL     1       2.684   0.405   3.588  0.00  0.00    +0.000 A 
ATOM     15  C   UNL     1       3.872  -0.204   3.990  0.00  0.00    +0.000 A 
ATOM     16  N   UNL     1       4.718  -0.784   3.098  0.00  0.00    +0.000 NA
ATOM     17  C   UNL     1       4.367  -0.762   1.791  0.00  0.00    +0.000 A 
BRANCH  12  18
ATOM     18  C   UNL     1       2.868  -0.237  -0.161  0.00  0.00    +0.000 C 
BRANCH  18  19
ATOM     19  N   UNL     1       2.694   1.096  -0.726  0.00  0.00    +0.000 NA
ATOM     20  H   UNL     1       2.573   1.020  -1.734  0.00  0.00    +0.000 HD
ATOM     21  H   UNL     1       3.547   1.633  -0.578  0.00  0.00    +0.000 HD
ENDBRANCH  18  19
ENDBRANCH  12  18
ENDBRANCH   1  15
TORSDOF 4
