REMARK  Name = 
REMARK  6 active torsions:
REMARK  status: ('A' for Active; 'I' for Inactive)
REMARK    1  A    between atoms: C_2  and  C_4
REMARK    2  A    between atoms: C_7  and  N_8
REMARK    3  A    between atoms: N_8  and  C_9
REMARK    4  A    between atoms: C_9  and  C_10
REMARK    5  A    between atoms: C_10  and  C_13
REMARK    6  A    between atoms: C_18  and  C_19
REMARK                            x       y       z     vdW  Elec       q    Type
REMARK                         _______ _______ _______ _____ _____    ______ ____
ROOT
ATOM      1  C   UNL     1       5.962  -6.869  -2.364  0.00  0.00    +0.000 C 
ATOM      2  F   UNL     1       7.225  -6.431  -2.644  0.00  0.00    +0.000 F 
ATOM      3  F   UNL     1       6.044  -7.425  -1.115  0.00  0.00    +0.000 F 
ENDROOT
BRANCH   1   4
ATOM      4  C   UNL     1       5.476  -7.872  -3.396  0.00  0.00    +0.000 A 
ATOM      5  C   UNL     1       4.617  -8.909  -3.019  0.00  0.00    +0.000 A 
ATOM      6  C   UNL     1       4.184  -9.821  -3.970  0.00  0.00    +0.000 A 
ATOM      7  F   UNL     1       3.364 -10.814  -3.601  0.00  0.00    +0.000 F 
ATOM      8  C   UNL     1       4.580  -9.721  -5.300  0.00  0.00    +0.000 A 
ATOM      9  C   UNL     1       5.423  -8.681  -5.730  0.00  0.00    +0.000 A 
ATOM     10  C   UNL     1       5.865  -7.767  -4.749  0.00  0.00    +0.000 A 
BRANCH   9  11
ATOM     11  C   UNL     1       5.813  -8.547  -7.153  0.00  0.00    +0.000 A 
ATOM     12  C   UNL     1       7.061  -8.046  -7.552  0.00  0.00    +0.000 A 
ATOM     13  C   UNL     1       7.381  -7.919  -8.905  0.00  0.00    +0.000 A 
ATOM     14  C   UNL     1       6.444  -8.307  -9.844  0.00  0.00    +0.000 A 
ATOM     15  N   UNL     1       5.232  -8.798  -9.520  0.00  0.00    +0.000 NA
ATOM     16  C   UNL     1       4.952  -8.902  -8.197  0.00  0.00    +0.000 A 
ENDBRANCH   9  11
ENDBRANCH   1   4
BRANCH   1  17
ATOM     17  C   UNL     1       5.007  -5.651  -2.285  0.00  0.00    +0.000 C 
BRANCH  17  18
ATOM     18  N   UNL     1       5.393  -4.678  -1.245  0.00  0.00    +0.000 N 
ATOM     19  H   UNL     1       5.790  -5.095  -0.405  0.00  0.00    +0.000 HD
BRANCH  18  23
ATOM     20  C   UNL     1       3.304  -1.071  -0.586  0.00  0.00    +0.000 A 
ATOM     21  C   UNL     1       2.856  -1.955  -1.570  0.00  0.00    +0.000 A 
ATOM     22  C   UNL     1       3.527  -3.166  -1.782  0.00  0.00    +0.000 A 
ATOM     23  C   UNL     1       4.633  -3.536  -1.007  0.00  0.00    +0.000 A 
ATOM     24  C   UNL     1       5.076  -2.630  -0.034  0.00  0.00    +0.000 A 
ATOM     25  C   UNL     1       4.426  -1.408   0.176  0.00  0.00    +0.000 A 
BRANCH  20  27
ATOM     26  N   UNL     1       1.318   0.336  -0.663  0.00  0.00    +0.000 N 
ATOM     27  C   UNL     1       2.649   0.243  -0.363  0.00  0.00    +0.000 C 
ATOM     28  O   UNL     1       3.260   1.198   0.100  0.00  0.00    +0.000 OA
ATOM     29  H   UNL     1       0.863   1.206  -0.415  0.00  0.00    +0.000 HD
ATOM     30  H   UNL     1       0.736  -0.477  -0.801  0.00  0.00    +0.000 HD
ENDBRANCH  20  27
ENDBRANCH  18  23
ENDBRANCH  17  18
ENDBRANCH   1  17
TORSDOF 6
