REMARK  Name = 
REMARK  6 active torsions:
REMARK  status: ('A' for Active; 'I' for Inactive)
REMARK    1  A    between atoms: C_1  and  C_2
REMARK    2  A    between atoms: C_2  and  C_3
REMARK    3  A    between atoms: C_2  and  N_4
REMARK    4  A    between atoms: C_2  and  C_15
REMARK    5  A    between atoms: C_8  and  C_9
REMARK    6  A    between atoms: C_12  and  N_13
REMARK                            x       y       z     vdW  Elec       q    Type
REMARK                         _______ _______ _______ _____ _____    ______ ____
ROOT
ATOM      1  N   UNL     1       2.992  -0.025  -1.475  0.00  0.00    +0.000 N 
ATOM      2  C   UNL     1       2.690  -1.093  -2.309  0.00  0.00    +0.000 A 
ATOM      3  N   UNL     1       1.553  -1.761  -2.134  0.00  0.00    +0.000 NA
ATOM      4  C   UNL     1       1.311  -2.826  -2.913  0.00  0.00    +0.000 A 
ATOM      5  C   UNL     1       2.145  -3.222  -3.911  0.00  0.00    +0.000 A 
ATOM      6  C   UNL     1       3.302  -2.469  -4.059  0.00  0.00    +0.000 A 
ATOM      7  N   UNL     1       3.583  -1.410  -3.259  0.00  0.00    +0.000 NA
ATOM      8  H   UNL     1       3.990   0.120  -1.588  0.00  0.00    +0.000 HD
ENDROOT
BRANCH   5   9
ATOM      9  C   UNL     1       1.872  -4.446  -4.699  0.00  0.00    +0.000 C 
ATOM     10  N   UNL     1       0.570  -4.837  -4.847  0.00  0.00    +0.000 N 
ATOM     11  O   UNL     1       2.785  -5.106  -5.177  0.00  0.00    +0.000 OA
ATOM     12  H   UNL     1      -0.237  -4.296  -4.571  0.00  0.00    +0.000 HD
ATOM     13  H   UNL     1       0.408  -5.652  -5.426  0.00  0.00    +0.000 HD
ENDBRANCH   5   9
BRANCH   1  15
ATOM     14  C   UNL     1       0.967  -0.048   0.024  0.00  0.00    +0.000 C 
ATOM     15  C   UNL     1       2.516  -0.020  -0.071  0.00  0.00    +0.000 C 
ATOM     16  C   UNL     1       3.081  -1.257   0.661  0.00  0.00    +0.000 C 
BRANCH  15  17
ATOM     17  C   UNL     1       3.030   1.310   0.635  0.00  0.00    +0.000 C 
ATOM     18  C   UNL     1       2.475   2.598  -0.027  0.00  0.00    +0.000 C 
ATOM     19  C   UNL     1       3.021   3.885   0.592  0.00  0.00    +0.000 C 
ATOM     20  C   UNL     1       4.541   3.894   0.585  0.00  0.00    +0.000 C 
ATOM     21  C   UNL     1       5.078   2.692   1.346  0.00  0.00    +0.000 C 
ATOM     22  C   UNL     1       4.572   1.382   0.751  0.00  0.00    +0.000 C 
ENDBRANCH  15  17
ENDBRANCH   1  15
BRANCH   6  23
ATOM     23  N   UNL     1       4.184  -2.677  -5.122  0.00  0.00    +0.000 N 
ATOM     24  H   UNL     1       4.305  -3.666  -5.342  0.00  0.00    +0.000 HD
ATOM     25  H   UNL     1       5.044  -2.161  -4.984  0.00  0.00    +0.000 HD
ENDBRANCH   6  23
TORSDOF 4
