REMARK  Name = 
REMARK  5 active torsions:
REMARK  status: ('A' for Active; 'I' for Inactive)
REMARK    1  A    between atoms: C_2  and  C_4
REMARK    2  A    between atoms: C_7  and  C_8
REMARK    3  A    between atoms: C_8  and  C_9
REMARK    4  A    between atoms: C_9  and  C_10
REMARK    5  A    between atoms: C_14  and  C_15
REMARK                            x       y       z     vdW  Elec       q    Type
REMARK                         _______ _______ _______ _____ _____    ______ ____
ROOT
ATOM      1  C   UNL     1       5.300  -5.805   1.508  0.00  0.00    +0.000 C 
ATOM      2  C   UNL     1       4.956  -6.433   0.156  0.00  0.00    +0.000 C 
ATOM      3  C   UNL     1       3.893  -6.324   1.203  0.00  0.00    +0.000 C 
ENDROOT
BRANCH   1   4
ATOM      4  C   UNL     1       6.041  -6.669   2.531  0.00  0.00    +0.000 A 
ATOM      5  C   UNL     1       5.609  -6.738   3.864  0.00  0.00    +0.000 A 
ATOM      6  C   UNL     1       6.085  -7.726   4.719  0.00  0.00    +0.000 A 
ATOM      7  C   UNL     1       7.000  -8.665   4.247  0.00  0.00    +0.000 A 
ATOM      8  C   UNL     1       7.516  -8.587   2.943  0.00  0.00    +0.000 A 
ATOM      9  C   UNL     1       7.062  -7.541   2.125  0.00  0.00    +0.000 A 
BRANCH   8  10
ATOM     10  C   UNL     1       8.381  -9.639   2.398  0.00  0.00    +0.000 A 
ATOM     11  C   UNL     1       9.406  -9.397   1.483  0.00  0.00    +0.000 A 
ATOM     12  N   UNL     1      10.123 -10.382   0.886  0.00  0.00    +0.000 NA
ATOM     13  C   UNL     1       9.768 -11.638   1.237  0.00  0.00    +0.000 A 
ATOM     14  C   UNL     1       8.763 -11.895   2.150  0.00  0.00    +0.000 A 
ATOM     15  N   UNL     1       8.061 -10.911   2.754  0.00  0.00    +0.000 NA
ENDBRANCH   8  10
ENDBRANCH   1   4
BRANCH   1  16
ATOM     16  C   UNL     1       5.607  -4.319   1.626  0.00  0.00    +0.000 C 
BRANCH  16  20
ATOM     17  C   UNL     1       3.894  -1.503  -1.172  0.00  0.00    +0.000 A 
ATOM     18  C   UNL     1       3.285  -1.717   0.070  0.00  0.00    +0.000 A 
ATOM     19  C   UNL     1       3.818  -2.658   0.957  0.00  0.00    +0.000 A 
ATOM     20  C   UNL     1       4.968  -3.387   0.622  0.00  0.00    +0.000 A 
ATOM     21  C   UNL     1       5.556  -3.182  -0.635  0.00  0.00    +0.000 A 
ATOM     22  C   UNL     1       5.017  -2.256  -1.530  0.00  0.00    +0.000 A 
BRANCH  17  24
ATOM     23  N   UNL     1       2.715   0.583  -1.626  0.00  0.00    +0.000 N 
ATOM     24  C   UNL     1       3.382  -0.496  -2.135  0.00  0.00    +0.000 C 
ATOM     25  O   UNL     1       3.581  -0.596  -3.345  0.00  0.00    +0.000 OA
ATOM     26  H   UNL     1       2.481   1.314  -2.285  0.00  0.00    +0.000 HD
ATOM     27  H   UNL     1       2.761   0.830  -0.649  0.00  0.00    +0.000 HD
ENDBRANCH  17  24
ENDBRANCH  16  20
ENDBRANCH   1  16
TORSDOF 5
