REMARK  Name = 
REMARK  6 active torsions:
REMARK  status: ('A' for Active; 'I' for Inactive)
REMARK    1  A    between atoms: C_2  and  C_20
REMARK    2  A    between atoms: N_3  and  C_4
REMARK    3  A    between atoms: C_4  and  C_5
REMARK    4  A    between atoms: C_8  and  C_9
REMARK    5  A    between atoms: C_9  and  N_10
REMARK    6  A    between atoms: C_11  and  C_13
REMARK                            x       y       z     vdW  Elec       q    Type
REMARK                         _______ _______ _______ _____ _____    ______ ____
ROOT
ATOM      1  C   UNL     1      14.026 -10.022  -7.855  0.00  0.00    +0.000 A 
ATOM      2  C   UNL     1      13.798  -9.894  -6.488  0.00  0.00    +0.000 A 
ATOM      3  C   UNL     1      12.703  -9.146  -6.053  0.00  0.00    +0.000 A 
ATOM      4  C   UNL     1      11.853  -8.548  -6.986  0.00  0.00    +0.000 A 
ATOM      5  C   UNL     1      12.141  -8.757  -8.329  0.00  0.00    +0.000 A 
ATOM      6  N   UNL     1      13.199  -9.471  -8.780  0.00  0.00    +0.000 NA
ENDROOT
BRANCH   1   7
ATOM      7  C   UNL     1      15.209 -10.816  -8.361  0.00  0.00    +0.000 C 
BRANCH   7  10
ATOM      8  O   UNL     1      15.649 -12.973  -6.606  0.00  0.00    +0.000 OA
ATOM      9  C   UNL     1      15.083 -13.188  -7.675  0.00  0.00    +0.000 C 
ATOM     10  N   UNL     1      14.870 -12.201  -8.599  0.00  0.00    +0.000 N 
ATOM     11  H   UNL     1      14.216 -12.357  -9.359  0.00  0.00    +0.000 HD
BRANCH   9  12
ATOM     12  C   UNL     1      14.646 -14.538  -8.055  0.00  0.00    +0.000 A 
ATOM     13  C   UNL     1      15.242 -15.649  -7.473  0.00  0.00    +0.000 A 
ATOM     14  S   UNL     1      14.625 -17.134  -8.046  0.00  0.00    +0.000 S 
ATOM     15  C   UNL     1      13.511 -16.343  -9.061  0.00  0.00    +0.000 A 
ATOM     16  N   UNL     1      12.635 -17.049  -9.828  0.00  0.00    +0.000 NA
ATOM     17  C   UNL     1      11.829 -16.321 -10.522  0.00  0.00    +0.000 A 
ATOM     18  N   UNL     1      11.821 -14.950 -10.530  0.00  0.00    +0.000 N 
ATOM     19  C   UNL     1      12.721 -14.198  -9.816  0.00  0.00    +0.000 A 
ATOM     20  O   UNL     1      12.749 -12.977  -9.921  0.00  0.00    +0.000 OA
ATOM     21  C   UNL     1      13.628 -14.966  -8.985  0.00  0.00    +0.000 A 
ATOM     22  H   UNL     1      11.181 -14.435 -11.117  0.00  0.00    +0.000 HD
ENDBRANCH   9  12
ENDBRANCH   7  10
ENDBRANCH   1   7
BRANCH   4  23
ATOM     23  C   UNL     1      10.668  -7.727  -6.566  0.00  0.00    +0.000 C 
BRANCH  23  24
ATOM     24  N   UNL     1       9.472  -8.529  -6.441  0.00  0.00    +0.000 N 
ATOM     25  C   UNL     1       8.275  -7.960  -6.041  0.00  0.00    +0.000 C 
ATOM     26  O   UNL     1       8.143  -6.759  -5.827  0.00  0.00    +0.000 OA
ATOM     27  H   UNL     1       9.553  -9.538  -6.448  0.00  0.00    +0.000 HD
BRANCH  25  28
ATOM     28  C   UNL     1       7.137  -8.999  -5.891  0.00  0.00    +0.000 C 
ATOM     29  C   UNL     1       5.798  -8.418  -5.472  0.00  0.00    +0.000 C 
ATOM     30  C   UNL     1       5.196  -7.920  -6.773  0.00  0.00    +0.000 C 
ATOM     31  C   UNL     1       5.829  -8.786  -7.852  0.00  0.00    +0.000 C 
ATOM     32  N   UNL     1       6.840  -9.626  -7.197  0.00  0.00    +0.000 NA
ATOM     33  H   UNL     1       7.679  -9.666  -7.774  0.00  0.00    +0.000 HD
ENDBRANCH  25  28
ENDBRANCH  23  24
ENDBRANCH   4  23
TORSDOF 6
