REMARK  Name = 
REMARK  7 active torsions:
REMARK  status: ('A' for Active; 'I' for Inactive)
REMARK    1  A    between atoms: C_1  and  C_2
REMARK    2  A    between atoms: C_2  and  N_3
REMARK    3  A    between atoms: C_2  and  C_17
REMARK    4  A    between atoms: C_4  and  C_6
REMARK    5  A    between atoms: N_12  and  C_13
REMARK    6  A    between atoms: C_20  and  O_21
REMARK    7  A    between atoms: O_21  and  C_22
REMARK                            x       y       z     vdW  Elec       q    Type
REMARK                         _______ _______ _______ _____ _____    ______ ____
ROOT
ATOM      1  C   UNL     1       3.151   0.048  -1.376  0.00  0.00    +0.000 C 
ATOM      2  C   UNL     1       2.478  -0.076  -0.008  0.00  0.00    +0.000 C 
ENDROOT
BRANCH   2   3
ATOM      3  C   UNL     1       2.847   1.034   0.965  0.00  0.00    +0.000 A 
ATOM      4  C   UNL     1       2.924   0.732   2.331  0.00  0.00    +0.000 A 
ATOM      5  C   UNL     1       3.218   1.726   3.272  0.00  0.00    +0.000 A 
ATOM      6  C   UNL     1       3.469   3.035   2.857  0.00  0.00    +0.000 A 
ATOM      7  C   UNL     1       3.338   3.362   1.508  0.00  0.00    +0.000 A 
ATOM      8  C   UNL     1       3.020   2.373   0.569  0.00  0.00    +0.000 A 
BRANCH   6   9
ATOM      9  O   UNL     1       3.759   4.071   3.714  0.00  0.00    +0.000 OA
BRANCH   9  10
ATOM     10  C   UNL     1       4.558   3.811   4.822  0.00  0.00    +0.000 A 
ATOM     11  C   UNL     1       4.416   4.671   5.902  0.00  0.00    +0.000 A 
ATOM     12  C   UNL     1       5.178   4.430   7.041  0.00  0.00    +0.000 A 
ATOM     13  C   UNL     1       6.056   3.351   7.059  0.00  0.00    +0.000 A 
ATOM     14  C   UNL     1       6.153   2.566   5.923  0.00  0.00    +0.000 A 
ATOM     15  N   UNL     1       5.436   2.781   4.801  0.00  0.00    +0.000 NA
ENDBRANCH   9  10
ENDBRANCH   6   9
ENDBRANCH   2   3
BRANCH   2  16
ATOM     16  N   UNL     1       1.038  -0.086  -0.142  0.00  0.00    +0.000 N 
ATOM     17  C   UNL     1       0.294  -1.196  -0.439  0.00  0.00    +0.000 C 
ATOM     18  O   UNL     1       0.779  -2.320  -0.533  0.00  0.00    +0.000 OA
ATOM     19  H   UNL     1       0.618   0.826  -0.254  0.00  0.00    +0.000 HD
BRANCH  17  20
ATOM     20  C   UNL     1      -1.154  -0.963  -0.553  0.00  0.00    +0.000 A 
ATOM     21  C   UNL     1      -2.059  -1.985  -0.310  0.00  0.00    +0.000 A 
ATOM     22  S   UNL     1      -3.687  -1.470  -0.358  0.00  0.00    +0.000 S 
ATOM     23  C   UNL     1      -3.233   0.123  -0.753  0.00  0.00    +0.000 A 
ATOM     24  N   UNL     1      -4.158   1.107  -0.904  0.00  0.00    +0.000 NA
ATOM     25  C   UNL     1      -3.667   2.262  -1.212  0.00  0.00    +0.000 A 
ATOM     26  N   UNL     1      -2.330   2.537  -1.415  0.00  0.00    +0.000 N 
ATOM     27  C   UNL     1      -1.878   3.865  -1.768  0.00  0.00    +0.000 C 
ATOM     28  C   UNL     1      -1.362   1.548  -1.291  0.00  0.00    +0.000 A 
ATOM     29  O   UNL     1      -0.168   1.763  -1.494  0.00  0.00    +0.000 OA
ATOM     30  C   UNL     1      -1.865   0.250  -0.883  0.00  0.00    +0.000 A 
ENDBRANCH  17  20
ENDBRANCH   2  16
TORSDOF 5
