REMARK  Name = 
REMARK  10 active torsions:
REMARK  status: ('A' for Active; 'I' for Inactive)
REMARK    1  A    between atoms: N_1  and  C_2
REMARK    2  A    between atoms: C_2  and  C_3
REMARK    3  A    between atoms: C_2  and  C_20
REMARK    4  A    between atoms: C_3  and  C_4
REMARK    5  A    between atoms: C_7  and  C_8
REMARK    6  A    between atoms: C_8  and  N_9
REMARK    7  A    between atoms: N_9  and  CA_10
REMARK    8  A    between atoms: CA_10  and  C_11
REMARK    9  A    between atoms: CA_10  and  C_13
REMARK   10  A    between atoms: C_11  and  O_12
REMARK                            x       y       z     vdW  Elec       q    Type
REMARK                         _______ _______ _______ _____ _____    ______ ____
ROOT
ATOM      1  C   UNL     1       2.699  -2.493   0.230  0.00  0.00    +0.000 A 
ATOM      2  C   UNL     1       2.816  -3.798  -0.265  0.00  0.00    +0.000 A 
ATOM      3  C   UNL     1       2.523  -4.896   0.546  0.00  0.00    +0.000 A 
ATOM      4  C   UNL     1       2.126  -4.716   1.878  0.00  0.00    +0.000 A 
ATOM      5  C   UNL     1       2.011  -3.410   2.374  0.00  0.00    +0.000 A 
ATOM      6  C   UNL     1       2.288  -2.309   1.555  0.00  0.00    +0.000 A 
ENDROOT
BRANCH   1   7
ATOM      7  C   UNL     1       3.000  -1.309  -0.663  0.00  0.00    +0.000 C 
BRANCH   7   8
ATOM      8  C   UNL     1       1.782  -0.794  -1.468  0.00  0.00    +0.000 C 
BRANCH   8   9
ATOM      9  C   UNL     1       2.144   0.407  -2.323  0.00  0.00    +0.000 A 
ATOM     10  C   UNL     1       2.558   0.378  -3.647  0.00  0.00    +0.000 A 
ATOM     11  S   UNL     1       2.813   1.930  -4.316  0.00  0.00    +0.000 S 
ATOM     12  C   UNL     1       2.395   2.692  -2.852  0.00  0.00    +0.000 A 
ATOM     13  N   UNL     1       2.372   4.045  -2.741  0.00  0.00    +0.000 NA
ATOM     14  C   UNL     1       2.027   4.471  -1.570  0.00  0.00    +0.000 A 
ATOM     15  N   UNL     1       1.725   3.673  -0.499  0.00  0.00    +0.000 N 
ATOM     16  C   UNL     1       1.785   2.299  -0.550  0.00  0.00    +0.000 A 
ATOM     17  O   UNL     1       1.607   1.606   0.450  0.00  0.00    +0.000 OA
ATOM     18  C   UNL     1       2.103   1.772  -1.864  0.00  0.00    +0.000 A 
ATOM     19  H   UNL     1       1.503   4.073   0.400  0.00  0.00    +0.000 HD
ENDBRANCH   8   9
BRANCH   8  20
ATOM     20  N   UNL     1       1.194  -1.816  -2.349  0.00  0.00    +0.000 NA
ATOM     21  H   UNL     1       0.811  -2.555  -1.759  0.00  0.00    +0.000 HD
ATOM     22  H   UNL     1       1.935  -2.258  -2.886  0.00  0.00    +0.000 HD
ENDBRANCH   8  20
ENDBRANCH   7   8
ENDBRANCH   1   7
BRANCH   4  23
ATOM     23  C   UNL     1       1.786  -5.909   2.744  0.00  0.00    +0.000 C 
BRANCH  23  24
ATOM     24  N   UNL     1       2.899  -6.861   2.795  0.00  0.00    +0.000 NA
ATOM     25  H   UNL     1       3.724  -6.356   3.125  0.00  0.00    +0.000 HD
BRANCH  24  26
ATOM     26  CA  UNL     1       2.657  -7.988   3.731  0.00  0.00    +0.000 C 
BRANCH  26  27
ATOM     27  C   UNL     1       3.887  -8.879   3.898  0.00  0.00    +0.000 A 
ATOM     28  N   UNL     1       4.147  -9.558   5.000  0.00  0.00    +0.000 NA
ATOM     29  C   UNL     1       5.278 -10.331   4.821  0.00  0.00    +0.000 A 
ATOM     30  C   UNL     1       5.900 -10.204   3.599  0.00  0.00    +0.000 A 
ATOM     31  S   UNL     1       5.031  -9.103   2.621  0.00  0.00    +0.000 S 
ENDBRANCH  26  27
BRANCH  26  32
ATOM     32  C   UNL     1       1.459  -8.875   3.305  0.00  0.00    +0.000 C 
BRANCH  32  33
ATOM     33  O   UNL     1       1.579  -9.336   1.956  0.00  0.00    +0.000 OA
ATOM     34  H   UNL     1       2.071  -8.641   1.477  0.00  0.00    +0.000 HD
ENDBRANCH  32  33
ENDBRANCH  26  32
ENDBRANCH  24  26
ENDBRANCH  23  24
ENDBRANCH   4  23
TORSDOF 10
