REMARK  Name = 
REMARK  9 active torsions:
REMARK  status: ('A' for Active; 'I' for Inactive)
REMARK    1  A    between atoms: C_1  and  O_2
REMARK    2  A    between atoms: O_2  and  C_3
REMARK    3  A    between atoms: C_10  and  C_11
REMARK    4  A    between atoms: N_13  and  C_14
REMARK    5  A    between atoms: C_14  and  C_15
REMARK    6  A    between atoms: C_18  and  O_19
REMARK    7  A    between atoms: O_19  and  C_20
REMARK    8  A    between atoms: C_20  and  C_21
REMARK    9  A    between atoms: C_21  and  N_22
REMARK                            x       y       z     vdW  Elec       q    Type
REMARK                         _______ _______ _______ _____ _____    ______ ____
ROOT
ATOM      1  C   UNL     1       2.815   2.415  -2.456  0.00  0.00    +0.000 C 
ENDROOT
BRANCH   1   2
ATOM      2  C   UNL     1       1.614   1.642  -2.938  0.00  0.00    +0.000 A 
ATOM      3  C   UNL     1       1.705   0.263  -3.150  0.00  0.00    +0.000 A 
ATOM      4  C   UNL     1       0.595  -0.461  -3.595  0.00  0.00    +0.000 A 
ATOM      5  C   UNL     1      -0.639   0.171  -3.808  0.00  0.00    +0.000 A 
ATOM      6  C   UNL     1      -0.716   1.555  -3.665  0.00  0.00    +0.000 A 
ATOM      7  C   UNL     1       0.403   2.286  -3.234  0.00  0.00    +0.000 A 
BRANCH   5   8
ATOM      8  O   UNL     1      -1.816  -0.491  -4.119  0.00  0.00    +0.000 OA
BRANCH   8   9
ATOM      9  C   UNL     1      -1.774  -1.866  -3.714  0.00  0.00    +0.000 C 
BRANCH   9  10
ATOM     10  C   UNL     1      -3.139  -2.553  -3.505  0.00  0.00    +0.000 C 
BRANCH  10  11
ATOM     11  N   UNL     1      -2.954  -3.935  -2.985  0.00  0.00    +0.000 NA
ATOM     12  C   UNL     1      -4.230  -4.649  -2.753  0.00  0.00    +0.000 C 
ATOM     13  C   UNL     1      -4.974  -4.283  -1.448  0.00  0.00    +0.000 C 
ATOM     14  O   UNL     1      -4.124  -4.225  -0.294  0.00  0.00    +0.000 OA
ATOM     15  C   UNL     1      -2.971  -3.416  -0.540  0.00  0.00    +0.000 C 
ATOM     16  C   UNL     1      -2.189  -4.005  -1.716  0.00  0.00    +0.000 C 
ENDBRANCH  10  11
ENDBRANCH   9  10
ENDBRANCH   8   9
ENDBRANCH   5   8
ENDBRANCH   1   2
BRANCH   1  19
ATOM     17  C   UNL     1       4.813   3.500  -3.401  0.00  0.00    +0.000 C 
ATOM     18  O   UNL     1       5.250   3.748  -2.281  0.00  0.00    +0.000 OA
ATOM     19  N   UNL     1       3.616   2.860  -3.568  0.00  0.00    +0.000 N 
ATOM     20  H   UNL     1       3.249   2.710  -4.496  0.00  0.00    +0.000 HD
BRANCH  17  28
ATOM     21  C   UNL     1       4.296   2.940  -6.754  0.00  0.00    +0.000 A 
ATOM     22  N   UNL     1       4.343   2.863  -8.102  0.00  0.00    +0.000 NA
ATOM     23  C   UNL     1       5.369   3.441  -8.728  0.00  0.00    +0.000 A 
ATOM     24  N   UNL     1       6.378   4.105  -8.168  0.00  0.00    +0.000 NA
ATOM     25  C   UNL     1       6.290   4.165  -6.827  0.00  0.00    +0.000 A 
ATOM     26  S   UNL     1       7.494   4.978  -5.947  0.00  0.00    +0.000 S 
ATOM     27  C   UNL     1       6.727   4.615  -4.474  0.00  0.00    +0.000 A 
ATOM     28  C   UNL     1       5.551   3.886  -4.614  0.00  0.00    +0.000 A 
ATOM     29  C   UNL     1       5.291   3.624  -6.026  0.00  0.00    +0.000 A 
BRANCH  21  31
ATOM     30  C   UNL     1       2.581   1.350  -6.865  0.00  0.00    +0.000 C 
ATOM     31  O   UNL     1       3.214   2.380  -6.111  0.00  0.00    +0.000 OA
ENDBRANCH  21  31
ENDBRANCH  17  28
ENDBRANCH   1  19
TORSDOF 8
