REMARK  Name = 
REMARK  4 active torsions:
REMARK  status: ('A' for Active; 'I' for Inactive)
REMARK    1  A    between atoms: C_2  and  C_4
REMARK    2  A    between atoms: C_8  and  C_9
REMARK    3  A    between atoms: C_9  and  C_10
REMARK    4  A    between atoms: C_10  and  C_11
REMARK                            x       y       z     vdW  Elec       q    Type
REMARK                         _______ _______ _______ _____ _____    ______ ____
ROOT
ATOM      1  C   UNL     1       5.986  -2.754  -1.484  0.00  0.00    +0.000 C 
ENDROOT
BRANCH   1   6
ATOM      2  C   UNL     1       2.710  -1.085  -2.317  0.00  0.00    +0.000 A 
ATOM      3  C   UNL     1       1.866  -2.192  -2.345  0.00  0.00    +0.000 A 
ATOM      4  C   UNL     1       2.398  -3.413  -1.973  0.00  0.00    +0.000 A 
ATOM      5  N   UNL     1       3.688  -3.595  -1.616  0.00  0.00    +0.000 NA
ATOM      6  C   UNL     1       4.505  -2.512  -1.622  0.00  0.00    +0.000 A 
ATOM      7  C   UNL     1       4.043  -1.241  -1.938  0.00  0.00    +0.000 A 
BRANCH   2   9
ATOM      8  N   UNL     1       0.946   0.540  -2.770  0.00  0.00    +0.000 N 
ATOM      9  C   UNL     1       2.280   0.258  -2.779  0.00  0.00    +0.000 C 
ATOM     10  O   UNL     1       3.095   1.097  -3.142  0.00  0.00    +0.000 OA
ATOM     11  H   UNL     1       0.690   1.492  -3.008  0.00  0.00    +0.000 HD
ATOM     12  H   UNL     1       0.266  -0.015  -2.275  0.00  0.00    +0.000 HD
ENDBRANCH   2   9
ENDBRANCH   1   6
BRANCH   1  13
ATOM     13  C   UNL     1       6.595  -2.837  -0.088  0.00  0.00    +0.000 C 
ATOM     14  C   UNL     1       5.789  -3.411   1.069  0.00  0.00    +0.000 C 
ATOM     15  C   UNL     1       6.127  -1.948   1.057  0.00  0.00    +0.000 C 
BRANCH  13  16
ATOM     16  C   UNL     1       8.098  -3.120  -0.170  0.00  0.00    +0.000 A 
ATOM     17  C   UNL     1       8.598  -4.431  -0.142  0.00  0.00    +0.000 A 
ATOM     18  C   UNL     1       9.948  -4.697  -0.384  0.00  0.00    +0.000 A 
ATOM     19  C   UNL     1      10.830  -3.652  -0.664  0.00  0.00    +0.000 A 
ATOM     20 CL   UNL     1      12.470  -4.056  -1.024  0.00  0.00    +0.000 Cl
ATOM     21  C   UNL     1      10.363  -2.336  -0.669  0.00  0.00    +0.000 A 
ATOM     22 CL   UNL     1      11.385  -0.988  -1.024  0.00  0.00    +0.000 Cl
ATOM     23  C   UNL     1       9.009  -2.079  -0.417  0.00  0.00    +0.000 A 
ENDBRANCH  13  16
ENDBRANCH   1  13
TORSDOF 4
