REMARK  Name = 
REMARK  6 active torsions:
REMARK  status: ('A' for Active; 'I' for Inactive)
REMARK    1  A    between atoms: C_1  and  O_2
REMARK    2  A    between atoms: O_2  and  C_3
REMARK    3  A    between atoms: N_10  and  C_11
REMARK    4  A    between atoms: C_11  and  C_12
REMARK    5  A    between atoms: C_16  and  C_17
REMARK    6  A    between atoms: C_17  and  N_18
REMARK                            x       y       z     vdW  Elec       q    Type
REMARK                         _______ _______ _______ _____ _____    ______ ____
ROOT
ATOM      1  C   UNL     1       2.986  -1.012  -0.483  0.00  0.00    +0.000 A 
ATOM      2  C   UNL     1       2.598  -1.481  -1.736  0.00  0.00    +0.000 A 
ATOM      3  C   UNL     1       3.291  -2.529  -2.362  0.00  0.00    +0.000 A 
ATOM      4  C   UNL     1       4.385  -3.099  -1.692  0.00  0.00    +0.000 A 
ATOM      5  C   UNL     1       4.782  -2.650  -0.429  0.00  0.00    +0.000 A 
ATOM      6  C   UNL     1       5.885  -3.445  -0.021  0.00  0.00    +0.000 A 
ATOM      7  C   UNL     1       6.155  -4.335  -1.031  0.00  0.00    +0.000 A 
ATOM      8  N   UNL     1       5.259  -4.110  -2.051  0.00  0.00    +0.000 N 
ATOM      9  C   UNL     1       4.082  -1.583   0.169  0.00  0.00    +0.000 A 
ENDROOT
BRANCH   1  11
ATOM     10  C   UNL     1       1.027   0.265  -0.113  0.00  0.00    +0.000 C 
ATOM     11  O   UNL     1       2.396   0.027   0.189  0.00  0.00    +0.000 OA
ENDBRANCH   1  11
BRANCH   8  12
ATOM     12  C   UNL     1       5.312  -4.792  -3.342  0.00  0.00    +0.000 C 
BRANCH  12  13
ATOM     13  C   UNL     1       4.525  -6.078  -3.324  0.00  0.00    +0.000 A 
ATOM     14  C   UNL     1       3.212  -6.117  -3.812  0.00  0.00    +0.000 A 
ATOM     15  C   UNL     1       2.461  -7.288  -3.719  0.00  0.00    +0.000 A 
ATOM     16  C   UNL     1       3.016  -8.432  -3.142  0.00  0.00    +0.000 A 
ATOM     17  C   UNL     1       4.336  -8.432  -2.674  0.00  0.00    +0.000 A 
ATOM     18  C   UNL     1       5.079  -7.245  -2.772  0.00  0.00    +0.000 A 
BRANCH  17  19
ATOM     19  C   UNL     1       4.886  -9.651  -1.974  0.00  0.00    +0.000 C 
BRANCH  19  20
ATOM     20  N   UNL     1       6.294  -9.898  -2.269  0.00  0.00    +0.000 NA
ATOM     21  H   UNL     1       6.387 -10.083  -3.266  0.00  0.00    +0.000 HD
ATOM     22  H   UNL     1       6.586 -10.746  -1.790  0.00  0.00    +0.000 HD
ENDBRANCH  19  20
ENDBRANCH  17  19
ENDBRANCH  12  13
ENDBRANCH   8  12
TORSDOF 5
