REMARK  Name = 
REMARK  7 active torsions:
REMARK  status: ('A' for Active; 'I' for Inactive)
REMARK    1  A    between atoms: C_1  and  C_2
REMARK    2  A    between atoms: C_2  and  C_3
REMARK    3  A    between atoms: C_7  and  C_8
REMARK    4  A    between atoms: C_8  and  C_9
REMARK    5  A    between atoms: C_9  and  C_10
REMARK    6  A    between atoms: C_10  and  C_11
REMARK    7  A    between atoms: C_14  and  C_15
REMARK                            x       y       z     vdW  Elec       q    Type
REMARK                         _______ _______ _______ _____ _____    ______ ____
ROOT
ATOM      1  C   UNL     1       4.626  -2.328   3.794  0.00  0.00    +0.000 C 
ENDROOT
BRANCH   1   6
ATOM      2  C   UNL     1       2.947   0.076   1.340  0.00  0.00    +0.000 A 
ATOM      3  C   UNL     1       2.693   1.168   2.190  0.00  0.00    +0.000 A 
ATOM      4  C   UNL     1       3.105   1.154   3.524  0.00  0.00    +0.000 A 
ATOM      5  C   UNL     1       3.766   0.042   4.040  0.00  0.00    +0.000 A 
ATOM      6  C   UNL     1       4.033  -1.059   3.222  0.00  0.00    +0.000 A 
ATOM      7  C   UNL     1       3.644  -1.021   1.873  0.00  0.00    +0.000 A 
BRANCH   2   9
ATOM      8  C   UNL     1       0.892   0.156  -0.132  0.00  0.00    +0.000 C 
ATOM      9  C   UNL     1       2.422   0.092  -0.090  0.00  0.00    +0.000 C 
ATOM     10  C   UNL     1       3.083   1.140  -0.945  0.00  0.00    +0.000 C 
ATOM     11  C   UNL     1       3.725   0.564  -1.963  0.00  0.00    +0.000 C 
ATOM     12  N   UNL     1       3.605  -0.796  -1.992  0.00  0.00    +0.000 NA
ATOM     13  C   UNL     1       2.874  -1.072  -0.956  0.00  0.00    +0.000 C 
ENDBRANCH   2   9
ENDBRANCH   1   6
BRANCH   1  14
ATOM     14  C   UNL     1       3.500  -3.272   4.228  0.00  0.00    +0.000 C 
BRANCH  14  15
ATOM     15  C   UNL     1       4.009  -4.604   4.782  0.00  0.00    +0.000 C 
BRANCH  15  16
ATOM     16  C   UNL     1       2.865  -5.493   5.175  0.00  0.00    +0.000 A 
ATOM     17  C   UNL     1       2.261  -6.363   4.286  0.00  0.00    +0.000 A 
ATOM     18  N   UNL     1       1.200  -7.136   4.588  0.00  0.00    +0.000 NA
ATOM     19  C   UNL     1       0.733  -7.013   5.855  0.00  0.00    +0.000 A 
ATOM     20  N   UNL     1       1.239  -6.202   6.803  0.00  0.00    +0.000 NA
ATOM     21  C   UNL     1       2.297  -5.457   6.435  0.00  0.00    +0.000 A 
BRANCH  19  22
ATOM     22  C   UNL     1      -0.473  -7.854   6.213  0.00  0.00    +0.000 C 
ATOM     23  N   UNL     1      -0.965  -8.654   5.207  0.00  0.00    +0.000 N 
ATOM     24  O   UNL     1      -1.011  -7.849   7.317  0.00  0.00    +0.000 OA
ATOM     25  H   UNL     1      -0.524  -8.654   4.295  0.00  0.00    +0.000 HD
ATOM     26  H   UNL     1      -1.773  -9.232   5.390  0.00  0.00    +0.000 HD
ENDBRANCH  19  22
ENDBRANCH  15  16
ENDBRANCH  14  15
ENDBRANCH   1  14
TORSDOF 6
