REMARK  Name = 
REMARK  4 active torsions:
REMARK  status: ('A' for Active; 'I' for Inactive)
REMARK    1  A    between atoms: C_2  and  C_5
REMARK    2  A    between atoms: N_10  and  C_11
REMARK    3  A    between atoms: C_11  and  C_12
REMARK    4  A    between atoms: C_16  and  C_17
REMARK                            x       y       z     vdW  Elec       q    Type
REMARK                         _______ _______ _______ _____ _____    ______ ____
ROOT
ATOM      1  C   UNL     1       6.143  -2.104  -2.884  0.00  0.00    +0.000 C 
ENDROOT
BRANCH   1   7
ATOM      2  C   UNL     1       4.424   0.768  -0.056  0.00  0.00    +0.000 A 
ATOM      3  C   UNL     1       4.874   0.680   1.259  0.00  0.00    +0.000 A 
ATOM      4  C   UNL     1       5.822  -0.281   1.552  0.00  0.00    +0.000 A 
ATOM      5  N   UNL     1       6.346  -1.126   0.636  0.00  0.00    +0.000 NA
ATOM      6  C   UNL     1       5.931  -1.030  -0.641  0.00  0.00    +0.000 A 
ATOM      7  N   UNL     1       6.595  -1.824  -1.537  0.00  0.00    +0.000 N 
ATOM      8  C   UNL     1       4.965  -0.105  -1.008  0.00  0.00    +0.000 A 
ATOM      9  H   UNL     1       7.141  -2.546  -1.078  0.00  0.00    +0.000 HD
BRANCH   2  11
ATOM     10  F   UNL     1       2.987   2.603   0.508  0.00  0.00    +0.000 F 
ATOM     11  C   UNL     1       3.402   1.778  -0.491  0.00  0.00    +0.000 C 
ATOM     12  F   UNL     1       2.278   1.194  -0.990  0.00  0.00    +0.000 F 
ATOM     13  F   UNL     1       3.867   2.591  -1.480  0.00  0.00    +0.000 F 
ENDBRANCH   2  11
ENDBRANCH   1   7
BRANCH   1  14
ATOM     14  C   UNL     1       7.304  -2.569  -3.737  0.00  0.00    +0.000 A 
ATOM     15  C   UNL     1       8.190  -1.633  -4.264  0.00  0.00    +0.000 A 
ATOM     16  C   UNL     1       9.239  -2.079  -5.054  0.00  0.00    +0.000 A 
ATOM     17  C   UNL     1       9.385  -3.444  -5.280  0.00  0.00    +0.000 A 
ATOM     18  C   UNL     1       8.477  -4.338  -4.709  0.00  0.00    +0.000 A 
ATOM     19  N   UNL     1       7.445  -3.904  -3.940  0.00  0.00    +0.000 NA
BRANCH  18  20
ATOM     20  C   UNL     1       8.582  -5.802  -4.872  0.00  0.00    +0.000 A 
ATOM     21  C   UNL     1       8.110  -6.670  -3.869  0.00  0.00    +0.000 A 
ATOM     22  C   UNL     1       8.222  -8.060  -3.987  0.00  0.00    +0.000 A 
ATOM     23  C   UNL     1       8.807  -8.613  -5.122  0.00  0.00    +0.000 A 
ATOM     24  C   UNL     1       9.268  -7.775  -6.132  0.00  0.00    +0.000 A 
ATOM     25 CL   UNL     1       9.993  -8.453  -7.539  0.00  0.00    +0.000 Cl
ATOM     26  C   UNL     1       9.155  -6.389  -6.018  0.00  0.00    +0.000 A 
ENDBRANCH  18  20
ENDBRANCH   1  14
TORSDOF 4
