REMARK  Name = 
REMARK  5 active torsions:
REMARK  status: ('A' for Active; 'I' for Inactive)
REMARK    1  A    between atoms: N_1  and  C_2
REMARK    2  A    between atoms: C_2  and  C_3
REMARK    3  A    between atoms: C_6  and  C_7
REMARK    4  A    between atoms: C_7  and  N_8
REMARK    5  A    between atoms: C_13  and  C_14
REMARK                            x       y       z     vdW  Elec       q    Type
REMARK                         _______ _______ _______ _____ _____    ______ ____
ROOT
ATOM      1  N   UNL     1       1.743   3.110   5.739  0.00  0.00    +0.000 N 
ATOM      2  N   UNL     1       2.118   2.094   6.548  0.00  0.00    +0.000 NA
ATOM      3  N   UNL     1       1.335   2.123   7.623  0.00  0.00    +0.000 NA
ATOM      4  C   UNL     1       0.484   3.186   7.496  0.00  0.00    +0.000 A 
ATOM      5  C   UNL     1      -0.487   3.713   8.355  0.00  0.00    +0.000 A 
ATOM      6  C   UNL     1      -1.159   4.864   7.923  0.00  0.00    +0.000 A 
ATOM      7  C   UNL     1      -0.850   5.390   6.660  0.00  0.00    +0.000 A 
ATOM      8  N   UNL     1       0.083   4.908   5.791  0.00  0.00    +0.000 NA
ATOM      9  C   UNL     1       0.710   3.821   6.283  0.00  0.00    +0.000 A 
ENDROOT
BRANCH   6  10
ATOM     10  C   UNL     1      -2.162   5.584   8.741  0.00  0.00    +0.000 C 
ATOM     11  N   UNL     1      -2.436   5.129  10.000  0.00  0.00    +0.000 N 
ATOM     12  O   UNL     1      -2.729   6.582   8.312  0.00  0.00    +0.000 OA
ATOM     13  H   UNL     1      -2.002   4.339  10.450  0.00  0.00    +0.000 HD
ATOM     14  H   UNL     1      -3.101   5.668  10.542  0.00  0.00    +0.000 HD
ENDBRANCH   6  10
BRANCH   1  15
ATOM     15  C   UNL     1       2.517   3.438   4.565  0.00  0.00    +0.000 C 
BRANCH  15  19
ATOM     16  C   UNL     1       2.982   0.898   1.020  0.00  0.00    +0.000 C 
ATOM     17  C   UNL     1       2.051   0.409   2.137  0.00  0.00    +0.000 C 
ATOM     18  C   UNL     1       2.262   1.159   3.448  0.00  0.00    +0.000 C 
ATOM     19  C   UNL     1       2.114   2.682   3.285  0.00  0.00    +0.000 C 
ATOM     20  C   UNL     1       2.960   3.210   2.109  0.00  0.00    +0.000 C 
ATOM     21  C   UNL     1       2.770   2.408   0.821  0.00  0.00    +0.000 C 
BRANCH  16  22
ATOM     22  C   UNL     1       4.474   0.574   1.254  0.00  0.00    +0.000 C 
BRANCH  22  23
ATOM     23  N   UNL     1       4.743  -0.848   1.438  0.00  0.00    +0.000 NA
ATOM     24  H   UNL     1       4.536  -1.117   2.400  0.00  0.00    +0.000 HD
ATOM     25  H   UNL     1       4.121  -1.401   0.850  0.00  0.00    +0.000 HD
ENDBRANCH  22  23
ENDBRANCH  16  22
ENDBRANCH  15  19
ENDBRANCH   1  15
TORSDOF 5
