REMARK  Name = 
REMARK  4 active torsions:
REMARK  status: ('A' for Active; 'I' for Inactive)
REMARK    1  A    between atoms: C_2  and  C_4
REMARK    2  A    between atoms: C_7  and  C_8
REMARK    3  A    between atoms: C_8  and  C_9
REMARK    4  A    between atoms: C_9  and  C_10
REMARK                            x       y       z     vdW  Elec       q    Type
REMARK                         _______ _______ _______ _____ _____    ______ ____
ROOT
ATOM      1  C   UNL     1       9.381  -3.261   0.153  0.00  0.00    +0.000 A 
ATOM      2  C   UNL     1       9.049  -3.758  -1.105  0.00  0.00    +0.000 A 
ATOM      3  C   UNL     1       7.750  -4.210  -1.342  0.00  0.00    +0.000 A 
ATOM      4  C   UNL     1       6.817  -4.198  -0.306  0.00  0.00    +0.000 A 
ATOM      5  N   UNL     1       7.135  -3.728   0.928  0.00  0.00    +0.000 NA
ATOM      6  C   UNL     1       8.402  -3.282   1.134  0.00  0.00    +0.000 A 
ENDROOT
BRANCH   1   8
ATOM      7  N   UNL     1      11.451  -2.213  -0.563  0.00  0.00    +0.000 N 
ATOM      8  C   UNL     1      10.716  -2.712   0.476  0.00  0.00    +0.000 C 
ATOM      9  O   UNL     1      11.128  -2.664   1.626  0.00  0.00    +0.000 OA
ATOM     10  H   UNL     1      12.311  -1.738  -0.314  0.00  0.00    +0.000 HD
ATOM     11  H   UNL     1      11.046  -1.995  -1.463  0.00  0.00    +0.000 HD
ENDBRANCH   1   8
BRANCH   4  12
ATOM     12  C   UNL     1       5.366  -4.586  -0.513  0.00  0.00    +0.000 C 
BRANCH  12  13
ATOM     13  C   UNL     1       5.126  -5.760  -1.462  0.00  0.00    +0.000 C 
ATOM     14  C   UNL     1       4.947  -5.452  -2.944  0.00  0.00    +0.000 C 
ATOM     15  C   UNL     1       3.752  -5.831  -2.130  0.00  0.00    +0.000 C 
BRANCH  13  16
ATOM     16  C   UNL     1       5.712  -7.107  -1.039  0.00  0.00    +0.000 A 
ATOM     17  C   UNL     1       5.055  -7.918  -0.094  0.00  0.00    +0.000 A 
ATOM     18  C   UNL     1       5.560  -9.171   0.271  0.00  0.00    +0.000 A 
ATOM     19  C   UNL     1       6.743  -9.629  -0.295  0.00  0.00    +0.000 A 
ATOM     20 CL   UNL     1       7.362 -11.174   0.137  0.00  0.00    +0.000 Cl
ATOM     21  C   UNL     1       7.424  -8.846  -1.221  0.00  0.00    +0.000 A 
ATOM     22  C   UNL     1       6.907  -7.602  -1.590  0.00  0.00    +0.000 A 
ENDBRANCH  13  16
ENDBRANCH  12  13
ENDBRANCH   4  12
TORSDOF 4
