REMARK  Name = 
REMARK  7 active torsions:
REMARK  status: ('A' for Active; 'I' for Inactive)
REMARK    1  A    between atoms: C_1  and  C_2
REMARK    2  A    between atoms: C_2  and  N_3
REMARK    3  A    between atoms: C_2  and  C_21
REMARK    4  A    between atoms: C_4  and  C_6
REMARK    5  A    between atoms: C_9  and  C_10
REMARK    6  A    between atoms: C_10  and  N_11
REMARK    7  A    between atoms: C_12  and  C_14
REMARK                            x       y       z     vdW  Elec       q    Type
REMARK                         _______ _______ _______ _____ _____    ______ ____
ROOT
ATOM      1  N   UNL     1       1.247  -2.024   1.735  0.00  0.00    +0.000 N 
ATOM      2  C   UNL     1       2.589  -2.178   1.442  0.00  0.00    +0.000 C 
ATOM      3  O   UNL     1       3.325  -1.256   1.111  0.00  0.00    +0.000 OA
ATOM      4  H   UNL     1       0.781  -2.843   2.110  0.00  0.00    +0.000 HD
ENDROOT
BRANCH   2   5
ATOM      5  C   UNL     1       3.118  -3.578   1.564  0.00  0.00    +0.000 A 
ATOM      6  C   UNL     1       4.445  -3.837   1.240  0.00  0.00    +0.000 A 
ATOM      7  C   UNL     1       4.916  -5.143   1.357  0.00  0.00    +0.000 A 
ATOM      8  C   UNL     1       4.053  -6.156   1.781  0.00  0.00    +0.000 A 
ATOM      9  C   UNL     1       2.741  -5.793   2.090  0.00  0.00    +0.000 A 
ATOM     10  N   UNL     1       2.247  -4.532   1.996  0.00  0.00    +0.000 NA
BRANCH   8  11
ATOM     11  C   UNL     1       4.510  -7.582   1.888  0.00  0.00    +0.000 C 
BRANCH  11  12
ATOM     12  N   UNL     1       5.021  -7.912   3.191  0.00  0.00    +0.000 N 
ATOM     13  C   UNL     1       5.479  -9.182   3.466  0.00  0.00    +0.000 C 
ATOM     14  O   UNL     1       5.454 -10.099   2.650  0.00  0.00    +0.000 OA
ATOM     15  H   UNL     1       5.120  -7.221   3.929  0.00  0.00    +0.000 HD
BRANCH  13  16
ATOM     16  C   UNL     1       6.000  -9.335   4.824  0.00  0.00    +0.000 A 
ATOM     17  C   UNL     1       6.510 -10.490   5.385  0.00  0.00    +0.000 A 
ATOM     18  N   UNL     1       6.870 -10.155   6.659  0.00  0.00    +0.000 N 
ATOM     19  C   UNL     1       6.577  -8.830   6.833  0.00  0.00    +0.000 A 
ATOM     20  N   UNL     1       6.051  -8.303   5.750  0.00  0.00    +0.000 NA
ATOM     21  H   UNL     1       7.279 -10.769   7.349  0.00  0.00    +0.000 HD
ENDBRANCH  13  16
ENDBRANCH  11  12
ENDBRANCH   8  11
ENDBRANCH   2   5
BRANCH   1  23
ATOM     22  C   UNL     1       0.804  -0.050   3.137  0.00  0.00    +0.000 C 
ATOM     23  C   UNL     1       0.620  -0.713   1.770  0.00  0.00    +0.000 C 
BRANCH  23  24
ATOM     24  C   UNL     1      -0.851  -0.808   1.415  0.00  0.00    +0.000 A 
ATOM     25  C   UNL     1      -1.705  -1.859   1.712  0.00  0.00    +0.000 A 
ATOM     26  S   UNL     1      -3.319  -1.583   1.218  0.00  0.00    +0.000 S 
ATOM     27  C   UNL     1      -2.938  -0.035   0.621  0.00  0.00    +0.000 A 
ATOM     28  N   UNL     1      -3.895   0.777   0.094  0.00  0.00    +0.000 NA
ATOM     29  C   UNL     1      -3.457   1.929  -0.294  0.00  0.00    +0.000 A 
ATOM     30  N   UNL     1      -2.151   2.340  -0.216  0.00  0.00    +0.000 N 
ATOM     31  C   UNL     1      -1.148   1.556   0.306  0.00  0.00    +0.000 A 
ATOM     32  O   UNL     1       0.007   1.962   0.375  0.00  0.00    +0.000 OA
ATOM     33  C   UNL     1      -1.595   0.253   0.769  0.00  0.00    +0.000 A 
ATOM     34  H   UNL     1      -1.873   3.255  -0.538  0.00  0.00    +0.000 HD
ENDBRANCH  23  24
ENDBRANCH   1  23
TORSDOF 6
