REMARK  Name = 
REMARK  7 active torsions:
REMARK  status: ('A' for Active; 'I' for Inactive)
REMARK    1  A    between atoms: C_1  and  C_2
REMARK    2  A    between atoms: C_2  and  N_3
REMARK    3  A    between atoms: C_2  and  C_16
REMARK    4  A    between atoms: C_4  and  C_6
REMARK    5  A    between atoms: C_19  and  C_20
REMARK    6  A    between atoms: C_20  and  N_21
REMARK    7  A    between atoms: C_22  and  C_24
REMARK                            x       y       z     vdW  Elec       q    Type
REMARK                         _______ _______ _______ _____ _____    ______ ____
ROOT
ATOM      1  C   UNL     1       3.821  -0.864  -0.324  0.00  0.00    +0.000 C 
ATOM      2  C   UNL     1       2.576  -0.005  -0.072  0.00  0.00    +0.000 C 
ENDROOT
BRANCH   2   3
ATOM      3  C   UNL     1       2.937   1.222   0.757  0.00  0.00    +0.000 A 
ATOM      4  C   UNL     1       2.785   2.513   0.233  0.00  0.00    +0.000 A 
ATOM      5  C   UNL     1       3.056   3.639   1.021  0.00  0.00    +0.000 A 
ATOM      6  C   UNL     1       3.493   3.500   2.346  0.00  0.00    +0.000 A 
ATOM      7  C   UNL     1       3.657   2.212   2.867  0.00  0.00    +0.000 A 
ATOM      8  C   UNL     1       3.389   1.088   2.081  0.00  0.00    +0.000 A 
BRANCH   6   9
ATOM      9  C   UNL     1       3.764   4.707   3.206  0.00  0.00    +0.000 C 
BRANCH   9  10
ATOM     10  N   UNL     1       2.612   5.093   3.981  0.00  0.00    +0.000 N 
ATOM     11  C   UNL     1       2.647   6.188   4.816  0.00  0.00    +0.000 C 
ATOM     12  O   UNL     1       3.672   6.823   5.054  0.00  0.00    +0.000 OA
ATOM     13  H   UNL     1       1.685   4.745   3.747  0.00  0.00    +0.000 HD
BRANCH  11  14
ATOM     14  C   UNL     1       1.308   6.518   5.491  0.00  0.00    +0.000 C 
ATOM     15  C   UNL     1       1.129   5.782   6.804  0.00  0.00    +0.000 C 
ATOM     16  C   UNL     1      -0.374   5.812   7.007  0.00  0.00    +0.000 C 
ATOM     17  C   UNL     1      -0.955   5.830   5.601  0.00  0.00    +0.000 C 
ATOM     18  N   UNL     1       0.164   6.030   4.676  0.00  0.00    +0.000 NA
ATOM     19  H   UNL     1      -0.073   6.735   3.977  0.00  0.00    +0.000 HD
ENDBRANCH  11  14
ENDBRANCH   9  10
ENDBRANCH   6   9
ENDBRANCH   2   3
BRANCH   2  20
ATOM     20  N   UNL     1       1.516  -0.736   0.611  0.00  0.00    +0.000 N 
ATOM     21  C   UNL     1       0.924  -1.863   0.101  0.00  0.00    +0.000 C 
ATOM     22  O   UNL     1       1.270  -2.376  -0.958  0.00  0.00    +0.000 OA
ATOM     23  H   UNL     1       0.992  -0.202   1.298  0.00  0.00    +0.000 HD
BRANCH  21  24
ATOM     24  C   UNL     1      -0.113  -2.481   0.935  0.00  0.00    +0.000 A 
ATOM     25  C   UNL     1      -0.323  -3.851   0.866  0.00  0.00    +0.000 A 
ATOM     26  S   UNL     1      -1.557  -4.406   1.904  0.00  0.00    +0.000 S 
ATOM     27  C   UNL     1      -1.883  -2.827   2.450  0.00  0.00    +0.000 A 
ATOM     28  N   UNL     1      -2.882  -2.587   3.340  0.00  0.00    +0.000 NA
ATOM     29  C   UNL     1      -3.038  -1.340   3.641  0.00  0.00    +0.000 A 
ATOM     30  N   UNL     1      -2.277  -0.315   3.142  0.00  0.00    +0.000 N 
ATOM     31  C   UNL     1      -1.232  -0.516   2.274  0.00  0.00    +0.000 A 
ATOM     32  O   UNL     1      -0.524   0.414   1.901  0.00  0.00    +0.000 OA
ATOM     33  C   UNL     1      -1.037  -1.896   1.875  0.00  0.00    +0.000 A 
ATOM     34  H   UNL     1      -2.437   0.637   3.435  0.00  0.00    +0.000 HD
ENDBRANCH  21  24
ENDBRANCH   2  20
TORSDOF 6
