REMARK  Name = 
REMARK  7 active torsions:
REMARK  status: ('A' for Active; 'I' for Inactive)
REMARK    1  A    between atoms: C_1  and  C_2
REMARK    2  A    between atoms: C_2  and  N_3
REMARK    3  A    between atoms: C_2  and  C_16
REMARK    4  A    between atoms: C_4  and  C_6
REMARK    5  A    between atoms: C_19  and  C_20
REMARK    6  A    between atoms: C_20  and  N_21
REMARK    7  A    between atoms: C_22  and  C_24
REMARK                            x       y       z     vdW  Elec       q    Type
REMARK                         _______ _______ _______ _____ _____    ______ ____
ROOT
ATOM      1  C   UNL     1       0.000   0.000   0.000  0.00  0.00    +0.000 C 
ATOM      2  C   UNL     1       0.000   0.000   0.000  0.00  0.00    +0.000 C 
ENDROOT
BRANCH   2   3
ATOM      3  C   UNL     1       0.000   0.000   0.000  0.00  0.00    +0.000 C 
ATOM      4  C   UNL     1       0.000   0.000   0.000  0.00  0.00    +0.000 C 
ATOM      5  C   UNL     1       0.000   0.000   0.000  0.00  0.00    +0.000 C 
ATOM      6  C   UNL     1       0.000   0.000   0.000  0.00  0.00    +0.000 C 
ATOM      7  C   UNL     1       0.000   0.000   0.000  0.00  0.00    +0.000 C 
ATOM      8  C   UNL     1       0.000   0.000   0.000  0.00  0.00    +0.000 C 
BRANCH   6   9
ATOM      9  C   UNL     1       0.000   0.000   0.000  0.00  0.00    +0.000 C 
BRANCH   9  10
ATOM     10  N   UNL     1       0.000   0.000   0.000  0.00  0.00    +0.000 N 
ATOM     11  C   UNL     1       0.000   0.000   0.000  0.00  0.00    +0.000 C 
ATOM     12  O   UNL     1       0.000   0.000   0.000  0.00  0.00    +0.000 OA
ATOM     13  H   UNL     1       0.000   0.000   0.000  0.00  0.00    +0.000 HD
BRANCH  11  14
ATOM     14  C   UNL     1       0.000   0.000   0.000  0.00  0.00    +0.000 A 
ATOM     15  C   UNL     1       0.000   0.000   0.000  0.00  0.00    +0.000 A 
ATOM     16  C   UNL     1       0.000   0.000   0.000  0.00  0.00    +0.000 A 
ATOM     17  C   UNL     1       0.000   0.000   0.000  0.00  0.00    +0.000 A 
ATOM     18  C   UNL     1       0.000   0.000   0.000  0.00  0.00    +0.000 A 
ATOM     19  C   UNL     1       0.000   0.000   0.000  0.00  0.00    +0.000 A 
ENDBRANCH  11  14
ENDBRANCH   9  10
ENDBRANCH   6   9
ENDBRANCH   2   3
BRANCH   2  20
ATOM     20  N   UNL     1       0.000   0.000   0.000  0.00  0.00    +0.000 N 
ATOM     21  C   UNL     1       0.000   0.000   0.000  0.00  0.00    +0.000 C 
ATOM     22  O   UNL     1       0.000   0.000   0.000  0.00  0.00    +0.000 OA
ATOM     23  H   UNL     1       0.000   0.000   0.000  0.00  0.00    +0.000 HD
BRANCH  21  24
ATOM     24  C   UNL     1       0.000   0.000   0.000  0.00  0.00    +0.000 A 
ATOM     25  C   UNL     1       0.000   0.000   0.000  0.00  0.00    +0.000 A 
ATOM     26  S   UNL     1       0.000   0.000   0.000  0.00  0.00    +0.000 S 
ATOM     27  C   UNL     1       0.000   0.000   0.000  0.00  0.00    +0.000 A 
ATOM     28  N   UNL     1       0.000   0.000   0.000  0.00  0.00    +0.000 NA
ATOM     29  C   UNL     1       0.000   0.000   0.000  0.00  0.00    +0.000 A 
ATOM     30  N   UNL     1       0.000   0.000   0.000  0.00  0.00    +0.000 N 
ATOM     31  C   UNL     1       0.000   0.000   0.000  0.00  0.00    +0.000 A 
ATOM     32  O   UNL     1       0.000   0.000   0.000  0.00  0.00    +0.000 OA
ATOM     33  C   UNL     1       0.000   0.000   0.000  0.00  0.00    +0.000 A 
ATOM     34  H   UNL     1       0.000   0.000   0.000  0.00  0.00    +0.000 HD
ENDBRANCH  21  24
ENDBRANCH   2  20
TORSDOF 6
