REMARK  Name = 
REMARK  7 active torsions:
REMARK  status: ('A' for Active; 'I' for Inactive)
REMARK    1  A    between atoms: C_1  and  C_2
REMARK    2  A    between atoms: C_2  and  N_3
REMARK    3  A    between atoms: C_2  and  C_16
REMARK    4  A    between atoms: C_4  and  C_6
REMARK    5  A    between atoms: C_19  and  O_20
REMARK    6  A    between atoms: O_20  and  C_21
REMARK    7  A    between atoms: C_21  and  C_22
REMARK                            x       y       z     vdW  Elec       q    Type
REMARK                         _______ _______ _______ _____ _____    ______ ____
ROOT
ATOM      1  C   UNL     1       3.082  -0.480   1.453  0.00  0.00    +0.000 C 
ATOM      2  C   UNL     1       2.414  -0.058   0.142  0.00  0.00    +0.000 C 
ENDROOT
BRANCH   2   3
ATOM      3  C   UNL     1       2.843  -0.891  -1.044  0.00  0.00    +0.000 A 
ATOM      4  C   UNL     1       3.064  -2.272  -0.987  0.00  0.00    +0.000 A 
ATOM      5  C   UNL     1       3.474  -2.957  -2.130  0.00  0.00    +0.000 A 
ATOM      6  C   UNL     1       3.653  -2.237  -3.298  0.00  0.00    +0.000 A 
ATOM      7  N   UNL     1       3.410  -0.916  -3.406  0.00  0.00    +0.000 NA
ATOM      8  C   UNL     1       3.008  -0.278  -2.284  0.00  0.00    +0.000 A 
BRANCH   6   9
ATOM      9  O   UNL     1       4.053  -2.941  -4.413  0.00  0.00    +0.000 OA
BRANCH   9  10
ATOM     10  C   UNL     1       4.685  -2.090  -5.376  0.00  0.00    +0.000 C 
BRANCH  10  11
ATOM     11  C   UNL     1       5.046  -2.903  -6.598  0.00  0.00    +0.000 A 
ATOM     12  C   UNL     1       4.038  -3.475  -7.374  0.00  0.00    +0.000 A 
ATOM     13  C   UNL     1       4.391  -4.209  -8.503  0.00  0.00    +0.000 A 
ATOM     14  C   UNL     1       5.733  -4.352  -8.829  0.00  0.00    +0.000 A 
ATOM     15  C   UNL     1       6.673  -3.747  -8.012  0.00  0.00    +0.000 A 
ATOM     16  N   UNL     1       6.362  -3.029  -6.911  0.00  0.00    +0.000 NA
ENDBRANCH  10  11
ENDBRANCH   9  10
ENDBRANCH   6   9
ENDBRANCH   2   3
BRANCH   2  17
ATOM     17  N   UNL     1       0.968  -0.083   0.258  0.00  0.00    +0.000 N 
ATOM     18  C   UNL     1       0.250   0.994   0.714  0.00  0.00    +0.000 C 
ATOM     19  O   UNL     1       0.789   2.057   1.011  0.00  0.00    +0.000 OA
ATOM     20  H   UNL     1       0.508  -0.983   0.158  0.00  0.00    +0.000 HD
BRANCH  18  21
ATOM     21  C   UNL     1      -1.207   0.837   0.778  0.00  0.00    +0.000 A 
ATOM     22  C   UNL     1      -2.023   1.957   0.679  0.00  0.00    +0.000 A 
ATOM     23  S   UNL     1      -3.686   1.606   0.808  0.00  0.00    +0.000 S 
ATOM     24  C   UNL     1      -3.373  -0.047   1.034  0.00  0.00    +0.000 A 
ATOM     25  N   UNL     1      -4.387  -0.927   1.266  0.00  0.00    +0.000 NA
ATOM     26  C   UNL     1      -4.004  -2.147   1.455  0.00  0.00    +0.000 A 
ATOM     27  N   UNL     1      -2.701  -2.571   1.413  0.00  0.00    +0.000 N 
ATOM     28  C   UNL     1      -1.650  -1.733   1.122  0.00  0.00    +0.000 A 
ATOM     29  O   UNL     1      -0.509  -2.161   0.983  0.00  0.00    +0.000 OA
ATOM     30  C   UNL     1      -2.021  -0.339   0.963  0.00  0.00    +0.000 A 
ATOM     31  H   UNL     1      -2.476  -3.547   1.532  0.00  0.00    +0.000 HD
ENDBRANCH  18  21
ENDBRANCH   2  17
TORSDOF 6
