REMARK  Name = 
REMARK  9 active torsions:
REMARK  status: ('A' for Active; 'I' for Inactive)
REMARK    1  A    between atoms: N_1  and  C_2
REMARK    2  A    between atoms: C_2  and  C_3
REMARK    3  A    between atoms: C_3  and  N_4
REMARK    4  A    between atoms: N_4  and  C_5
REMARK    5  A    between atoms: C_5  and  C_6
REMARK    6  A    between atoms: C_5  and  C_20
REMARK    7  A    between atoms: C_9  and  C_10
REMARK    8  A    between atoms: C_10  and  N_11
REMARK    9  A    between atoms: C_14  and  O_15
REMARK                            x       y       z     vdW  Elec       q    Type
REMARK                         _______ _______ _______ _____ _____    ______ ____
ROOT
ATOM      1  C   UNL     1       4.996   0.952  -2.642  0.00  0.00    +0.000 C 
ENDROOT
BRANCH   1   2
ATOM      2  C   UNL     1       5.988   0.340  -3.610  0.00  0.00    +0.000 A 
ATOM      3  C   UNL     1       7.371   0.442  -3.522  0.00  0.00    +0.000 A 
ATOM      4  S   UNL     1       8.202  -0.625  -4.565  0.00  0.00    +0.000 S 
ATOM      5  C   UNL     1       6.745  -1.260  -5.167  0.00  0.00    +0.000 A 
ATOM      6  N   UNL     1       6.734  -2.316  -6.020  0.00  0.00    +0.000 NA
ATOM      7  C   UNL     1       5.551  -2.707  -6.366  0.00  0.00    +0.000 A 
ATOM      8  N   UNL     1       4.381  -2.103  -5.973  0.00  0.00    +0.000 N 
ATOM      9  C   UNL     1       4.340  -1.002  -5.147  0.00  0.00    +0.000 A 
ATOM     10  O   UNL     1       3.291  -0.452  -4.860  0.00  0.00    +0.000 OA
ATOM     11  C   UNL     1       5.646  -0.598  -4.654  0.00  0.00    +0.000 A 
ATOM     12  H   UNL     1       3.489  -2.429  -6.314  0.00  0.00    +0.000 HD
ENDBRANCH   1   2
BRANCH   1  13
ATOM     13  C   UNL     1       4.522   2.292  -3.163  0.00  0.00    +0.000 A 
ATOM     14  C   UNL     1       3.146   2.515  -3.307  0.00  0.00    +0.000 A 
ATOM     15  C   UNL     1       2.650   3.809  -3.443  0.00  0.00    +0.000 A 
ATOM     16  C   UNL     1       3.544   4.876  -3.468  0.00  0.00    +0.000 A 
ATOM     17  N   UNL     1       4.888   4.681  -3.466  0.00  0.00    +0.000 NA
ATOM     18  C   UNL     1       5.342   3.406  -3.310  0.00  0.00    +0.000 A 
BRANCH  16  19
ATOM     19  C   UNL     1       3.012   6.310  -3.406  0.00  0.00    +0.000 C 
BRANCH  19  20
ATOM     20  N   UNL     1       2.743   7.007  -4.686  0.00  0.00    +0.000 NA
ATOM     21  C   UNL     1       1.763   6.291  -5.507  0.00  0.00    +0.000 C 
ATOM     22  C   UNL     1       1.551   6.893  -6.893  0.00  0.00    +0.000 C 
ATOM     23  C   UNL     1       2.873   7.121  -7.612  0.00  0.00    +0.000 C 
ATOM     24  C   UNL     1       3.796   7.967  -6.745  0.00  0.00    +0.000 C 
ATOM     25  C   UNL     1       3.995   7.353  -5.358  0.00  0.00    +0.000 C 
BRANCH  23  26
ATOM     26  O   UNL     1       3.476   5.877  -7.968  0.00  0.00    +0.000 OA
ATOM     27  H   UNL     1       3.991   5.544  -7.211  0.00  0.00    +0.000 HD
ENDBRANCH  23  26
ENDBRANCH  19  20
ENDBRANCH  16  19
ENDBRANCH   1  13
BRANCH   1  28
ATOM     28  N   UNL     1       5.646   1.010  -1.318  0.00  0.00    +0.000 NA
ATOM     29  H   UNL     1       5.814   0.037  -1.047  0.00  0.00    +0.000 HD
BRANCH  28  30
ATOM     30  C   UNL     1       4.820   1.587  -0.249  0.00  0.00    +0.000 C 
BRANCH  30  31
ATOM     31  C   UNL     1       3.553   0.783   0.101  0.00  0.00    +0.000 C 
BRANCH  31  32
ATOM     32  N   UNL     1       3.858  -0.625   0.377  0.00  0.00    +0.000 NA
ATOM     33  H   UNL     1       2.990  -1.108   0.612  0.00  0.00    +0.000 HD
ATOM     34  H   UNL     1       4.436  -0.679   1.217  0.00  0.00    +0.000 HD
ENDBRANCH  31  32
ENDBRANCH  30  31
ENDBRANCH  28  30
ENDBRANCH   1  28
TORSDOF 9
