REMARK  Name = 
REMARK  10 active torsions:
REMARK  status: ('A' for Active; 'I' for Inactive)
REMARK    1  A    between atoms: C_1  and  C_2
REMARK    2  A    between atoms: C_2  and  N_3
REMARK    3  A    between atoms: C_2  and  C_21
REMARK    4  A    between atoms: N_3  and  C_4
REMARK    5  A    between atoms: C_4  and  C_5
REMARK    6  A    between atoms: C_8  and  C_9
REMARK    7  A    between atoms: C_9  and  C_10
REMARK    8  A    between atoms: C_9  and  C_12
REMARK    9  A    between atoms: C_10  and  O_11
REMARK   10  A    between atoms: C_12  and  C_13
REMARK                            x       y       z     vdW  Elec       q    Type
REMARK                         _______ _______ _______ _____ _____    ______ ____
ROOT
ATOM      1  C   UNL     1       0.081  -7.298  -6.382  0.00  0.00    +0.000 A 
ATOM      2  C   UNL     1       0.957  -6.814  -7.358  0.00  0.00    +0.000 A 
ATOM      3  C   UNL     1       2.182  -6.260  -6.987  0.00  0.00    +0.000 A 
ATOM      4  C   UNL     1       2.507  -6.207  -5.635  0.00  0.00    +0.000 A 
ATOM      5  N   UNL     1       1.660  -6.648  -4.669  0.00  0.00    +0.000 NA
ATOM      6  C   UNL     1       0.485  -7.189  -5.060  0.00  0.00    +0.000 A 
ENDROOT
BRANCH   1   7
ATOM      7  C   UNL     1      -1.223  -7.959  -6.742  0.00  0.00    +0.000 C 
BRANCH   7   8
ATOM      8  N   UNL     1      -2.385  -7.223  -6.228  0.00  0.00    +0.000 NA
ATOM      9  H   UNL     1      -2.277  -7.177  -5.210  0.00  0.00    +0.000 HD
BRANCH   8  11
ATOM     10  C   UNL     1      -3.908  -8.090  -7.989  0.00  0.00    +0.000 C 
ATOM     11  C   UNL     1      -3.657  -7.923  -6.479  0.00  0.00    +0.000 C 
BRANCH  11  12
ATOM     12  C   UNL     1      -4.780  -7.138  -5.792  0.00  0.00    +0.000 A 
ATOM     13  C   UNL     1      -5.903  -6.634  -6.439  0.00  0.00    +0.000 A 
ATOM     14  S   UNL     1      -6.992  -5.814  -5.416  0.00  0.00    +0.000 S 
ATOM     15  C   UNL     1      -6.014  -6.097  -4.057  0.00  0.00    +0.000 A 
ATOM     16  N   UNL     1      -6.372  -5.629  -2.832  0.00  0.00    +0.000 NA
ATOM     17  C   UNL     1      -5.537  -5.913  -1.890  0.00  0.00    +0.000 A 
ATOM     18  N   UNL     1      -4.384  -6.639  -2.058  0.00  0.00    +0.000 N 
ATOM     19  C   UNL     1      -3.977  -7.134  -3.279  0.00  0.00    +0.000 A 
ATOM     20  O   UNL     1      -2.938  -7.768  -3.408  0.00  0.00    +0.000 OA
ATOM     21  C   UNL     1      -4.881  -6.825  -4.375  0.00  0.00    +0.000 A 
ATOM     22  H   UNL     1      -3.777  -6.821  -1.276  0.00  0.00    +0.000 HD
ENDBRANCH  11  12
ENDBRANCH   8  11
ENDBRANCH   7   8
ENDBRANCH   1   7
BRANCH   4  23
ATOM     23  C   UNL     1       3.856  -5.674  -5.177  0.00  0.00    +0.000 C 
BRANCH  23  24
ATOM     24  C   UNL     1       4.376  -6.538  -4.008  0.00  0.00    +0.000 C 
BRANCH  24  25
ATOM     25  O   UNL     1       3.597  -6.351  -2.823  0.00  0.00    +0.000 OA
ATOM     26  H   UNL     1       2.676  -6.567  -3.101  0.00  0.00    +0.000 HD
ENDBRANCH  24  25
ENDBRANCH  23  24
BRANCH  23  27
ATOM     27  C   UNL     1       3.750  -4.180  -4.819  0.00  0.00    +0.000 C 
BRANCH  27  28
ATOM     28  C   UNL     1       5.101  -3.619  -4.459  0.00  0.00    +0.000 A 
ATOM     29  C   UNL     1       5.507  -3.520  -3.130  0.00  0.00    +0.000 A 
ATOM     30  N   UNL     1       6.765  -3.169  -2.770  0.00  0.00    +0.000 NA
ATOM     31  C   UNL     1       7.607  -2.913  -3.794  0.00  0.00    +0.000 A 
ATOM     32  C   UNL     1       7.207  -2.982  -5.116  0.00  0.00    +0.000 A 
ATOM     33  N   UNL     1       5.954  -3.342  -5.480  0.00  0.00    +0.000 NA
ENDBRANCH  27  28
ENDBRANCH  23  27
ENDBRANCH   4  23
TORSDOF 9
