REMARK  Name = 
REMARK  8 active torsions:
REMARK  status: ('A' for Active; 'I' for Inactive)
REMARK    1  A    between atoms: C_1  and  O_2
REMARK    2  A    between atoms: O_2  and  C_3
REMARK    3  A    between atoms: C_3  and  C_5
REMARK    4  A    between atoms: C_5  and  O_6
REMARK    5  A    between atoms: O_6  and  C_7
REMARK    6  A    between atoms: C_10  and  C_11
REMARK    7  A    between atoms: C_11  and  O_12
REMARK    8  A    between atoms: O_12  and  C_13
REMARK                            x       y       z     vdW  Elec       q    Type
REMARK                         _______ _______ _______ _____ _____    ______ ____
ROOT
ATOM      1  C   UNL     1       6.518  -0.354   2.899  0.00  0.00    +0.000 A 
ATOM      2  C   UNL     1       7.334   0.584   2.273  0.00  0.00    +0.000 A 
ATOM      3  C   UNL     1       8.702   0.603   2.562  0.00  0.00    +0.000 A 
ATOM      4  C   UNL     1       9.216  -0.324   3.474  0.00  0.00    +0.000 A 
ATOM      5  N   UNL     1       8.428  -1.224   4.109  0.00  0.00    +0.000 NA
ATOM      6  C   UNL     1       7.109  -1.205   3.823  0.00  0.00    +0.000 A 
ENDROOT
BRANCH   1   7
ATOM      7  O   UNL     1       5.198  -0.362   2.554  0.00  0.00    +0.000 OA
BRANCH   7   8
ATOM      8  C   UNL     1       4.537  -1.615   2.747  0.00  0.00    +0.000 C 
BRANCH   8   9
ATOM      9  C   UNL     1       3.277  -1.682   1.901  0.00  0.00    +0.000 C 
ATOM     10  O   UNL     1       2.843  -0.789   1.186  0.00  0.00    +0.000 OA
BRANCH   9  12
ATOM     11  C   UNL     1       1.535  -3.085   1.237  0.00  0.00    +0.000 C 
ATOM     12  O   UNL     1       2.702  -2.914   2.043  0.00  0.00    +0.000 OA
ENDBRANCH   9  12
ENDBRANCH   8   9
ENDBRANCH   7   8
ENDBRANCH   1   7
BRANCH   4  13
ATOM     13  C   UNL     1      10.688  -0.359   3.806  0.00  0.00    +0.000 C 
BRANCH  13  14
ATOM     14  O   UNL     1      10.945   0.542   4.883  0.00  0.00    +0.000 OA
BRANCH  14  15
ATOM     15  C   UNL     1      12.236   0.624   5.325  0.00  0.00    +0.000 A 
ATOM     16  C   UNL     1      13.323  -0.105   4.835  0.00  0.00    +0.000 A 
ATOM     17  C   UNL     1      14.603   0.109   5.356  0.00  0.00    +0.000 A 
ATOM     18  C   UNL     1      14.804   1.044   6.369  0.00  0.00    +0.000 A 
ATOM     19  C   UNL     1      13.721   1.760   6.873  0.00  0.00    +0.000 A 
ATOM     20  C   UNL     1      12.443   1.546   6.354  0.00  0.00    +0.000 A 
ENDBRANCH  14  15
ENDBRANCH  13  14
ENDBRANCH   4  13
TORSDOF 7
