REMARK  Name = 
REMARK  5 active torsions:
REMARK  status: ('A' for Active; 'I' for Inactive)
REMARK    1  A    between atoms: C_2  and  C_4
REMARK    2  A    between atoms: C_7  and  N_8
REMARK    3  A    between atoms: N_8  and  C_9
REMARK    4  A    between atoms: C_9  and  C_10
REMARK    5  A    between atoms: C_14  and  C_15
REMARK                            x       y       z     vdW  Elec       q    Type
REMARK                         _______ _______ _______ _____ _____    ______ ____
ROOT
ATOM      1  C   UNL     1       4.357  -4.478   4.135  0.00  0.00    +0.000 C 
ENDROOT
BRANCH   1   2
ATOM      2  C   UNL     1       5.080  -5.151   5.274  0.00  0.00    +0.000 A 
ATOM      3  C   UNL     1       5.042  -6.530   5.428  0.00  0.00    +0.000 A 
ATOM      4  N   UNL     1       5.659  -7.192   6.429  0.00  0.00    +0.000 NA
ATOM      5  C   UNL     1       6.342  -6.443   7.329  0.00  0.00    +0.000 A 
ATOM      6  C   UNL     1       6.449  -5.050   7.306  0.00  0.00    +0.000 A 
ATOM      7  C   UNL     1       5.790  -4.416   6.237  0.00  0.00    +0.000 A 
BRANCH   6   8
ATOM      8  C   UNL     1       7.196  -4.296   8.335  0.00  0.00    +0.000 A 
ATOM      9  C   UNL     1       7.276  -4.724   9.666  0.00  0.00    +0.000 A 
ATOM     10  N   UNL     1       7.938  -4.077  10.661  0.00  0.00    +0.000 NA
ATOM     11  C   UNL     1       8.554  -2.923  10.325  0.00  0.00    +0.000 A 
ATOM     12  C   UNL     1       8.543  -2.399   9.045  0.00  0.00    +0.000 A 
ATOM     13 CL   UNL     1       9.342  -0.922   8.690  0.00  0.00    +0.000 Cl
ATOM     14  C   UNL     1       7.865  -3.094   8.045  0.00  0.00    +0.000 A 
ENDBRANCH   6   8
ENDBRANCH   1   2
BRANCH   1  15
ATOM     15  N   UNL     1       5.317  -3.753   3.306  0.00  0.00    +0.000 N 
ATOM     16  H   UNL     1       6.073  -4.356   2.994  0.00  0.00    +0.000 HD
BRANCH  15  20
ATOM     17  C   UNL     1       3.777  -1.722   0.072  0.00  0.00    +0.000 A 
ATOM     18  C   UNL     1       2.946  -2.444   0.913  0.00  0.00    +0.000 A 
ATOM     19  N   UNL     1       3.414  -3.139   1.987  0.00  0.00    +0.000 NA
ATOM     20  C   UNL     1       4.747  -3.100   2.199  0.00  0.00    +0.000 A 
ATOM     21  C   UNL     1       5.569  -2.360   1.335  0.00  0.00    +0.000 A 
ATOM     22  N   UNL     1       5.123  -1.665   0.255  0.00  0.00    +0.000 NA
BRANCH  17  24
ATOM     23  N   UNL     1       4.103  -0.313  -1.870  0.00  0.00    +0.000 N 
ATOM     24  C   UNL     1       3.201  -0.968  -1.075  0.00  0.00    +0.000 C 
ATOM     25  O   UNL     1       1.997  -0.932  -1.297  0.00  0.00    +0.000 OA
ATOM     26  H   UNL     1       3.775   0.229  -2.656  0.00  0.00    +0.000 HD
ATOM     27  H   UNL     1       5.093  -0.355  -1.655  0.00  0.00    +0.000 HD
ENDBRANCH  17  24
ENDBRANCH  15  20
ENDBRANCH   1  15
TORSDOF 5
