REMARK  Name = 
REMARK  8 active torsions:
REMARK  status: ('A' for Active; 'I' for Inactive)
REMARK    1  A    between atoms: C_1  and  C_2
REMARK    2  A    between atoms: C_2  and  C_3
REMARK    3  A    between atoms: C_2  and  C_14
REMARK    4  A    between atoms: C_3  and  O_4
REMARK    5  A    between atoms: O_4  and  C_5
REMARK    6  A    between atoms: C_8  and  C_9
REMARK    7  A    between atoms: C_18  and  O_19
REMARK    8  A    between atoms: O_19  and  C_20
REMARK                            x       y       z     vdW  Elec       q    Type
REMARK                         _______ _______ _______ _____ _____    ______ ____
ROOT
ATOM      1  C   UNL     1       2.965  -1.180  -0.907  0.00  0.00    +0.000 C 
ATOM      2  C   UNL     1       2.391  -0.016  -0.091  0.00  0.00    +0.000 C 
ENDROOT
BRANCH   2   3
ATOM      3  C   UNL     1       2.893   1.325  -0.609  0.00  0.00    +0.000 A 
ATOM      4  C   UNL     1       3.659   2.151   0.223  0.00  0.00    +0.000 A 
ATOM      5  C   UNL     1       4.122   3.388  -0.228  0.00  0.00    +0.000 A 
ATOM      6  C   UNL     1       3.849   3.815  -1.530  0.00  0.00    +0.000 A 
ATOM      7  C   UNL     1       3.147   2.983  -2.398  0.00  0.00    +0.000 A 
ATOM      8  C   UNL     1       2.637   1.765  -1.921  0.00  0.00    +0.000 A 
BRANCH   7   9
ATOM      9  O   UNL     1       2.861   3.256  -3.702  0.00  0.00    +0.000 OA
BRANCH   9  10
ATOM     10  C   UNL     1       3.771   4.041  -4.464  0.00  0.00    +0.000 C 
ATOM     11  F   UNL     1       4.961   4.256  -3.865  0.00  0.00    +0.000 F 
ATOM     12  F   UNL     1       4.012   3.401  -5.631  0.00  0.00    +0.000 F 
ATOM     13  F   UNL     1       3.205   5.233  -4.750  0.00  0.00    +0.000 F 
ENDBRANCH   9  10
ENDBRANCH   7   9
ENDBRANCH   2   3
BRANCH   2  14
ATOM     14  C   UNL     1       0.850  -0.083  -0.006  0.00  0.00    +0.000 C 
BRANCH  14  15
ATOM     15  O   UNL     1       0.465  -1.354   0.542  0.00  0.00    +0.000 OA
BRANCH  15  16
ATOM     16  C   UNL     1      -0.890  -1.481   0.753  0.00  0.00    +0.000 A 
ATOM     17  C   UNL     1      -1.366  -2.699   1.232  0.00  0.00    +0.000 A 
ATOM     18  N   UNL     1      -2.674  -2.923   1.528  0.00  0.00    +0.000 NA
ATOM     19  C   UNL     1      -3.489  -1.851   1.316  0.00  0.00    +0.000 A 
ATOM     20  C   UNL     1      -3.019  -0.641   0.822  0.00  0.00    +0.000 A 
ATOM     21  N   UNL     1      -1.710  -0.428   0.529  0.00  0.00    +0.000 NA
BRANCH  19  22
ATOM     22  C   UNL     1      -4.931  -1.990   1.658  0.00  0.00    +0.000 C 
ATOM     23  N   UNL     1      -5.315  -3.201   2.166  0.00  0.00    +0.000 N 
ATOM     24  O   UNL     1      -5.729  -1.072   1.509  0.00  0.00    +0.000 OA
ATOM     25  H   UNL     1      -4.628  -3.939   2.299  0.00  0.00    +0.000 HD
ATOM     26  H   UNL     1      -6.274  -3.345   2.442  0.00  0.00    +0.000 HD
ENDBRANCH  19  22
ENDBRANCH  15  16
ENDBRANCH  14  15
ENDBRANCH   2  14
TORSDOF 7
