REMARK  Name = 
REMARK  7 active torsions:
REMARK  status: ('A' for Active; 'I' for Inactive)
REMARK    1  A    between atoms: C_1  and  C_2
REMARK    2  A    between atoms: C_5  and  C_6
REMARK    3  A    between atoms: N_8  and  C_9
REMARK    4  A    between atoms: C_9  and  C_10
REMARK    5  A    between atoms: C_13  and  C_14
REMARK    6  A    between atoms: C_14  and  N_15
REMARK    7  A    between atoms: C_16  and  C_18
REMARK                            x       y       z     vdW  Elec       q    Type
REMARK                         _______ _______ _______ _____ _____    ______ ____
ROOT
ATOM      1  C   UNL     1       9.402  -2.711  -0.118  0.00  0.00    +0.000 A 
ATOM      2  C   UNL     1       8.518  -3.794  -0.213  0.00  0.00    +0.000 A 
ATOM      3  C   UNL     1       9.000  -5.102  -0.350  0.00  0.00    +0.000 A 
ATOM      4  C   UNL     1      10.374  -5.365  -0.374  0.00  0.00    +0.000 A 
ATOM      5  C   UNL     1      11.259  -4.281  -0.288  0.00  0.00    +0.000 A 
ATOM      6  C   UNL     1      10.779  -2.972  -0.152  0.00  0.00    +0.000 A 
ENDROOT
BRANCH   1   7
ATOM      7  C   UNL     1       8.887  -1.301   0.007  0.00  0.00    +0.000 C 
BRANCH   7  10
ATOM      8  C   UNL     1       8.297   0.408   1.674  0.00  0.00    +0.000 C 
ATOM      9  O   UNL     1       8.064   1.255   0.814  0.00  0.00    +0.000 OA
ATOM     10  N   UNL     1       8.718  -0.872   1.375  0.00  0.00    +0.000 N 
ATOM     11  H   UNL     1       8.871  -1.532   2.139  0.00  0.00    +0.000 HD
BRANCH   8  16
ATOM     12  C   UNL     1       7.875   1.452   7.265  0.00  0.00    +0.000 C 
ATOM     13  C   UNL     1       7.926   1.234   5.786  0.00  0.00    +0.000 A 
ATOM     14  C   UNL     1       7.599   2.243   4.892  0.00  0.00    +0.000 A 
ATOM     15  C   UNL     1       7.703   1.990   3.527  0.00  0.00    +0.000 A 
ATOM     16  C   UNL     1       8.141   0.736   3.123  0.00  0.00    +0.000 A 
ATOM     17  N   UNL     1       8.450  -0.237   4.009  0.00  0.00    +0.000 NA
ATOM     18  N   UNL     1       8.344   0.023   5.355  0.00  0.00    +0.000 NA
ENDBRANCH   8  16
ENDBRANCH   7  10
ENDBRANCH   1   7
BRANCH   4  19
ATOM     19  C   UNL     1      10.880  -6.784  -0.355  0.00  0.00    +0.000 C 
BRANCH  19  20
ATOM     20  N   UNL     1      11.151  -7.394  -1.639  0.00  0.00    +0.000 N 
ATOM     21  C   UNL     1      11.659  -8.681  -1.628  0.00  0.00    +0.000 C 
ATOM     22  O   UNL     1      11.851  -9.267  -0.562  0.00  0.00    +0.000 OA
ATOM     23  H   UNL     1      10.833  -6.953  -2.500  0.00  0.00    +0.000 HD
BRANCH  21  24
ATOM     24  C   UNL     1      12.021  -9.329  -2.894  0.00  0.00    +0.000 A 
ATOM     25  C   UNL     1      12.444 -10.655  -2.875  0.00  0.00    +0.000 A 
ATOM     26  S   UNL     1      13.036 -11.212  -4.372  0.00  0.00    +0.000 S 
ATOM     27  C   UNL     1      12.813  -9.680  -5.076  0.00  0.00    +0.000 A 
ATOM     28  N   UNL     1      13.307  -9.395  -6.308  0.00  0.00    +0.000 NA
ATOM     29  C   UNL     1      13.099  -8.179  -6.697  0.00  0.00    +0.000 A 
ATOM     30  N   UNL     1      12.371  -7.253  -5.989  0.00  0.00    +0.000 N 
ATOM     31  C   UNL     1      11.761  -7.535  -4.789  0.00  0.00    +0.000 A 
ATOM     32  O   UNL     1      10.955  -6.771  -4.266  0.00  0.00    +0.000 OA
ATOM     33  C   UNL     1      12.127  -8.821  -4.234  0.00  0.00    +0.000 A 
ATOM     34  H   UNL     1      12.168  -6.356  -6.390  0.00  0.00    +0.000 HD
ENDBRANCH  21  24
ENDBRANCH  19  20
ENDBRANCH   4  19
TORSDOF 6
