REMARK  Name = 
REMARK  8 active torsions:
REMARK  status: ('A' for Active; 'I' for Inactive)
REMARK    1  A    between atoms: C_1  and  C_2
REMARK    2  A    between atoms: C_7  and  C_8
REMARK    3  A    between atoms: C_8  and  C_9
REMARK    4  A    between atoms: C_8  and  C_10
REMARK    5  A    between atoms: C_8  and  C_11
REMARK    6  A    between atoms: C_11  and  N_12
REMARK    7  A    between atoms: C_16  and  C_17
REMARK    8  A    between atoms: C_26  and  C_27
REMARK                            x       y       z     vdW  Elec       q    Type
REMARK                         _______ _______ _______ _____ _____    ______ ____
ROOT
ATOM      1  C   UNL     1       1.897   4.990  -4.941  0.00  0.00    +0.000 C 
ATOM      2  C   UNL     1       3.314   5.386  -4.449  0.00  0.00    +0.000 C 
ATOM      3  C   UNL     1       1.930   4.944  -6.483  0.00  0.00    +0.000 C 
ENDROOT
BRANCH   1  10
ATOM      4  C   UNL     1       1.574  -2.271  -2.839  0.00  0.00    +0.000 C 
ATOM      5  C   UNL     1       2.622  -1.657  -1.916  0.00  0.00    +0.000 C 
ATOM      6  C   UNL     1       2.317  -0.209  -1.497  0.00  0.00    +0.000 C 
ATOM      7  N   UNL     1       2.828   0.791  -2.434  0.00  0.00    +0.000 N 
ATOM      8  C   UNL     1       1.944   1.517  -3.211  0.00  0.00    +0.000 A 
ATOM      9  C   UNL     1       2.315   2.798  -3.637  0.00  0.00    +0.000 A 
ATOM     10  C   UNL     1       1.473   3.594  -4.429  0.00  0.00    +0.000 A 
ATOM     11  C   UNL     1       0.232   3.039  -4.754  0.00  0.00    +0.000 A 
ATOM     12  C   UNL     1      -0.082   1.770  -4.285  0.00  0.00    +0.000 A 
ATOM     13  N   UNL     1       0.735   1.016  -3.517  0.00  0.00    +0.000 NA
ATOM     14  C   UNL     1       4.189   0.561  -2.929  0.00  0.00    +0.000 C 
ATOM     15  C   UNL     1       4.408  -0.897  -3.378  0.00  0.00    +0.000 C 
ATOM     16  C   UNL     1       3.880  -1.197  -4.777  0.00  0.00    +0.000 C 
ATOM     17  O   UNL     1       3.957  -1.854  -2.408  0.00  0.00    +0.000 OA
ENDBRANCH   1  10
BRANCH   1  18
ATOM     18  C   UNL     1       0.880   6.060  -4.443  0.00  0.00    +0.000 C 
BRANCH  18  19
ATOM     19  N   UNL     1       1.213   7.422  -4.868  0.00  0.00    +0.000 N 
ATOM     20  C   UNL     1       0.403   8.475  -4.471  0.00  0.00    +0.000 A 
ATOM     21  C   UNL     1      -0.286   8.522  -3.252  0.00  0.00    +0.000 A 
ATOM     22  N   UNL     1      -1.054   9.562  -2.837  0.00  0.00    +0.000 NA
ATOM     23  C   UNL     1      -1.092  10.607  -3.707  0.00  0.00    +0.000 A 
ATOM     24  C   UNL     1      -0.407  10.590  -4.911  0.00  0.00    +0.000 A 
ATOM     25  N   UNL     1       0.340   9.524  -5.317  0.00  0.00    +0.000 NA
ATOM     26  H   UNL     1       1.434   7.564  -5.852  0.00  0.00    +0.000 HD
BRANCH  23  27
ATOM     27  C   UNL     1      -1.903  11.791  -3.315  0.00  0.00    +0.000 C 
ATOM     28  N   UNL     1      -2.552  11.702  -2.112  0.00  0.00    +0.000 N 
ATOM     29  O   UNL     1      -1.984  12.784  -4.028  0.00  0.00    +0.000 OA
ATOM     30  H   UNL     1      -2.455  10.870  -1.541  0.00  0.00    +0.000 HD
ATOM     31  H   UNL     1      -3.106  12.482  -1.787  0.00  0.00    +0.000 HD
ENDBRANCH  23  27
ENDBRANCH  18  19
ENDBRANCH   1  18
TORSDOF 4
