REMARK  Name = 
REMARK  4 active torsions:
REMARK  status: ('A' for Active; 'I' for Inactive)
REMARK    1  A    between atoms: C_2  and  C_4
REMARK    2  A    between atoms: C_7  and  N_8
REMARK    3  A    between atoms: N_8  and  C_9
REMARK    4  A    between atoms: C_9  and  C_10
REMARK                            x       y       z     vdW  Elec       q    Type
REMARK                         _______ _______ _______ _____ _____    ______ ____
ROOT
ATOM      1  C   UNL     1       3.317  -0.270  -1.263  0.00  0.00    +0.000 A 
ATOM      2  C   UNL     1       3.681  -1.582  -0.987  0.00  0.00    +0.000 A 
ATOM      3  N   UNL     1       4.290  -2.387  -1.909  0.00  0.00    +0.000 NA
ATOM      4  C   UNL     1       4.510  -1.853  -3.133  0.00  0.00    +0.000 A 
ATOM      5  C   UNL     1       4.151  -0.517  -3.364  0.00  0.00    +0.000 A 
ATOM      6  N   UNL     1       3.545   0.305  -2.469  0.00  0.00    +0.000 NA
ENDROOT
BRANCH   1   8
ATOM      7  N   UNL     1       2.321   1.854  -0.580  0.00  0.00    +0.000 N 
ATOM      8  C   UNL     1       2.670   0.578  -0.224  0.00  0.00    +0.000 C 
ATOM      9  O   UNL     1       2.439   0.151   0.903  0.00  0.00    +0.000 OA
ATOM     10  H   UNL     1       1.807   2.405   0.095  0.00  0.00    +0.000 HD
ATOM     11  H   UNL     1       2.329   2.141  -1.552  0.00  0.00    +0.000 HD
ENDBRANCH   1   8
BRANCH   4  12
ATOM     12  N   UNL     1       5.149  -2.645  -4.087  0.00  0.00    +0.000 N 
ATOM     13  H   UNL     1       6.153  -2.571  -3.947  0.00  0.00    +0.000 HD
BRANCH  12  14
ATOM     14  C   UNL     1       4.802  -2.343  -5.474  0.00  0.00    +0.000 C 
BRANCH  14  15
ATOM     15  C   UNL     1       4.987  -3.568  -6.322  0.00  0.00    +0.000 A 
ATOM     16  C   UNL     1       4.264  -4.730  -6.034  0.00  0.00    +0.000 A 
ATOM     17  C   UNL     1       4.438  -5.838  -6.842  0.00  0.00    +0.000 A 
ATOM     18  N   UNL     1       5.265  -5.865  -7.909  0.00  0.00    +0.000 NA
ATOM     19  C   UNL     1       5.952  -4.733  -8.172  0.00  0.00    +0.000 A 
ATOM     20  C   UNL     1       5.848  -3.573  -7.421  0.00  0.00    +0.000 A 
ENDBRANCH  14  15
ENDBRANCH  12  14
ENDBRANCH   4  12
TORSDOF 4
