REMARK  Name = 
REMARK  6 active torsions:
REMARK  status: ('A' for Active; 'I' for Inactive)
REMARK    1  A    between atoms: N_1  and  C_2
REMARK    2  A    between atoms: C_2  and  C_3
REMARK    3  A    between atoms: C_3  and  O_4
REMARK    4  A    between atoms: O_4  and  C_5
REMARK    5  A    between atoms: N_13  and  C_14
REMARK    6  A    between atoms: C_14  and  C_15
REMARK                            x       y       z     vdW  Elec       q    Type
REMARK                         _______ _______ _______ _____ _____    ______ ____
ROOT
ATOM      1  C   UNL     1       5.041  -2.190  -1.645  0.00  0.00    +0.000 A 
ATOM      2  C   UNL     1       4.613  -2.588  -2.914  0.00  0.00    +0.000 A 
ATOM      3  N   UNL     1       5.223  -3.523  -3.680  0.00  0.00    +0.000 NA
ATOM      4  C   UNL     1       6.320  -4.078  -3.157  0.00  0.00    +0.000 A 
ATOM      5  C   UNL     1       6.844  -3.720  -1.923  0.00  0.00    +0.000 A 
ATOM      6  C   UNL     1       6.199  -2.776  -1.139  0.00  0.00    +0.000 A 
ATOM      7  C   UNL     1       8.085  -4.497  -1.651  0.00  0.00    +0.000 C 
ATOM      8  C   UNL     1       8.243  -5.318  -2.958  0.00  0.00    +0.000 C 
ATOM      9  N   UNL     1       7.031  -5.121  -3.738  0.00  0.00    +0.000 N 
ENDROOT
BRANCH   1  10
ATOM     10  O   UNL     1       4.425  -1.274  -0.836  0.00  0.00    +0.000 OA
BRANCH  10  11
ATOM     11  C   UNL     1       3.252  -0.661  -1.381  0.00  0.00    +0.000 C 
BRANCH  11  12
ATOM     12  C   UNL     1       2.690   0.338  -0.366  0.00  0.00    +0.000 C 
BRANCH  12  13
ATOM     13  N   UNL     1       1.490   1.004  -0.871  0.00  0.00    +0.000 NA
ATOM     14  H   UNL     1       1.158   1.666  -0.169  0.00  0.00    +0.000 HD
ATOM     15  H   UNL     1       0.743   0.326  -0.994  0.00  0.00    +0.000 HD
ENDBRANCH  12  13
ENDBRANCH  11  12
ENDBRANCH  10  11
ENDBRANCH   1  10
BRANCH   9  16
ATOM     16  C   UNL     1       6.879  -5.428  -5.142  0.00  0.00    +0.000 C 
BRANCH  16  17
ATOM     17  C   UNL     1       6.324  -6.826  -5.323  0.00  0.00    +0.000 A 
ATOM     18  C   UNL     1       5.081  -7.174  -4.767  0.00  0.00    +0.000 A 
ATOM     19  C   UNL     1       4.560  -8.459  -4.931  0.00  0.00    +0.000 A 
ATOM     20  C   UNL     1       5.265  -9.405  -5.671  0.00  0.00    +0.000 A 
ATOM     21  C   UNL     1       6.485  -9.065  -6.254  0.00  0.00    +0.000 A 
ATOM     22  C   UNL     1       7.012  -7.782  -6.082  0.00  0.00    +0.000 A 
ENDBRANCH  16  17
ENDBRANCH   9  16
TORSDOF 6
