REMARK  Name = 
REMARK  4 active torsions:
REMARK  status: ('A' for Active; 'I' for Inactive)
REMARK    1  A    between atoms: C_2  and  C_4
REMARK    2  A    between atoms: N_8  and  C_9
REMARK    3  A    between atoms: C_9  and  C_10
REMARK    4  A    between atoms: C_14  and  C_15
REMARK                            x       y       z     vdW  Elec       q    Type
REMARK                         _______ _______ _______ _____ _____    ______ ____
ROOT
ATOM      1  C   UNL     1       5.368  -5.609   1.253  0.00  0.00    +0.000 C 
ATOM      2  C   UNL     1       5.435  -6.261  -0.122  0.00  0.00    +0.000 C 
ATOM      3  C   UNL     1       4.214  -6.434   0.718  0.00  0.00    +0.000 C 
ENDROOT
BRANCH   1   8
ATOM      4  C   UNL     1       3.166  -1.236   3.119  0.00  0.00    +0.000 A 
ATOM      5  C   UNL     1       2.748  -2.559   3.250  0.00  0.00    +0.000 A 
ATOM      6  C   UNL     1       3.486  -3.573   2.630  0.00  0.00    +0.000 A 
ATOM      7  C   UNL     1       4.633  -3.245   1.917  0.00  0.00    +0.000 A 
ATOM      8  N   UNL     1       5.401  -4.152   1.203  0.00  0.00    +0.000 N 
ATOM      9  N   UNL     1       5.055  -1.966   1.806  0.00  0.00    +0.000 NA
ATOM     10  C   UNL     1       4.312  -0.994   2.385  0.00  0.00    +0.000 A 
ATOM     11  H   UNL     1       6.250  -3.682   0.904  0.00  0.00    +0.000 HD
BRANCH   4  13
ATOM     12  N   UNL     1       1.669  -0.319   4.795  0.00  0.00    +0.000 N 
ATOM     13  C   UNL     1       2.424  -0.090   3.679  0.00  0.00    +0.000 C 
ATOM     14  O   UNL     1       2.502   1.026   3.188  0.00  0.00    +0.000 OA
ATOM     15  H   UNL     1       1.248   0.492   5.226  0.00  0.00    +0.000 HD
ATOM     16  H   UNL     1       1.788  -1.145   5.369  0.00  0.00    +0.000 HD
ENDBRANCH   4  13
ENDBRANCH   1   8
BRANCH   1  17
ATOM     17  C   UNL     1       6.172  -6.182   2.409  0.00  0.00    +0.000 A 
ATOM     18  C   UNL     1       7.534  -6.468   2.300  0.00  0.00    +0.000 A 
ATOM     19  C   UNL     1       8.235  -6.854   3.430  0.00  0.00    +0.000 A 
ATOM     20  N   UNL     1       7.680  -6.991   4.653  0.00  0.00    +0.000 NA
ATOM     21  C   UNL     1       6.349  -6.743   4.774  0.00  0.00    +0.000 A 
ATOM     22  C   UNL     1       5.587  -6.353   3.673  0.00  0.00    +0.000 A 
BRANCH  21  23
ATOM     23  C   UNL     1       5.755  -6.893   6.123  0.00  0.00    +0.000 A 
ATOM     24  C   UNL     1       6.515  -7.280   7.226  0.00  0.00    +0.000 A 
ATOM     25  C   UNL     1       5.906  -7.417   8.472  0.00  0.00    +0.000 A 
ATOM     26  C   UNL     1       4.543  -7.175   8.594  0.00  0.00    +0.000 A 
ATOM     27  C   UNL     1       3.850  -6.790   7.461  0.00  0.00    +0.000 A 
ATOM     28  N   UNL     1       4.416  -6.642   6.242  0.00  0.00    +0.000 NA
ENDBRANCH  21  23
ENDBRANCH   1  17
TORSDOF 4
