REMARK  Name = 
REMARK  3 active torsions:
REMARK  status: ('A' for Active; 'I' for Inactive)
REMARK    1  A    between atoms: C_2  and  C_4
REMARK    2  A    between atoms: C_7  and  C_8
REMARK    3  A    between atoms: C_8  and  C_9
REMARK                            x       y       z     vdW  Elec       q    Type
REMARK                         _______ _______ _______ _____ _____    ______ ____
ROOT
ATOM      1  C   UNL     1       2.807  -0.695  -1.204  0.00  0.00    +0.000 A 
ATOM      2  C   UNL     1       4.047  -0.161  -1.515  0.00  0.00    +0.000 A 
ATOM      3  N   UNL     1       4.883  -0.742  -2.420  0.00  0.00    +0.000 NA
ATOM      4  C   UNL     1       4.446  -1.885  -3.018  0.00  0.00    +0.000 A 
ATOM      5  C   UNL     1       3.180  -2.392  -2.688  0.00  0.00    +0.000 A 
ATOM      6  N   UNL     1       2.333  -1.828  -1.788  0.00  0.00    +0.000 NA
ENDROOT
BRANCH   1   8
ATOM      7  N   UNL     1       0.766  -0.675   0.094  0.00  0.00    +0.000 N 
ATOM      8  C   UNL     1       1.944  -0.036  -0.184  0.00  0.00    +0.000 C 
ATOM      9  O   UNL     1       2.267   1.002   0.377  0.00  0.00    +0.000 OA
ATOM     10  H   UNL     1       0.147  -0.298   0.798  0.00  0.00    +0.000 HD
ATOM     11  H   UNL     1       0.538  -1.545  -0.375  0.00  0.00    +0.000 HD
ENDBRANCH   1   8
BRANCH   4  12
ATOM     12  C   UNL     1       5.331  -2.582  -4.050  0.00  0.00    +0.000 C 
ATOM     13  C   UNL     1       5.848  -1.743  -5.222  0.00  0.00    +0.000 C 
ATOM     14  C   UNL     1       4.773  -2.752  -5.466  0.00  0.00    +0.000 C 
BRANCH  12  15
ATOM     15  C   UNL     1       6.246  -3.699  -3.543  0.00  0.00    +0.000 A 
ATOM     16  C   UNL     1       5.787  -5.025  -3.427  0.00  0.00    +0.000 A 
ATOM     17  C   UNL     1       6.658  -6.074  -3.124  0.00  0.00    +0.000 A 
ATOM     18  C   UNL     1       8.010  -5.812  -2.922  0.00  0.00    +0.000 A 
ATOM     19 CL   UNL     1       9.101  -7.112  -2.646  0.00  0.00    +0.000 Cl
ATOM     20  C   UNL     1       8.483  -4.505  -2.965  0.00  0.00    +0.000 A 
ATOM     21  C   UNL     1       7.604  -3.460  -3.258  0.00  0.00    +0.000 A 
ENDBRANCH  12  15
ENDBRANCH   4  12
TORSDOF 3
