REMARK  Name = 
REMARK  7 active torsions:
REMARK  status: ('A' for Active; 'I' for Inactive)
REMARK    1  A    between atoms: C_2  and  C_3
REMARK    2  A    between atoms: C_3  and  N_4
REMARK    3  A    between atoms: C_3  and  C_22
REMARK    4  A    between atoms: C_5  and  C_7
REMARK    5  A    between atoms: C_10  and  C_11
REMARK    6  A    between atoms: C_11  and  N_12
REMARK    7  A    between atoms: C_13  and  C_15
REMARK                            x       y       z     vdW  Elec       q    Type
REMARK                         _______ _______ _______ _____ _____    ______ ____
ROOT
ATOM      1  N   UNL     1       2.246  -1.866  -0.333  0.00  0.00    +0.000 N 
ATOM      2  C   UNL     1       1.617  -0.813  -0.938  0.00  0.00    +0.000 C 
ATOM      3  O   UNL     1       2.223   0.121  -1.449  0.00  0.00    +0.000 OA
ATOM      4  H   UNL     1       1.710  -2.621   0.086  0.00  0.00    +0.000 HD
ENDROOT
BRANCH   2   5
ATOM      5  C   UNL     1       0.125  -0.840  -0.951  0.00  0.00    +0.000 A 
ATOM      6  C   UNL     1      -0.561   0.379  -0.990  0.00  0.00    +0.000 A 
ATOM      7  C   UNL     1      -1.954   0.403  -1.130  0.00  0.00    +0.000 A 
ATOM      8  C   UNL     1      -2.684  -0.792  -1.228  0.00  0.00    +0.000 A 
ATOM      9  C   UNL     1      -1.995  -2.009  -1.152  0.00  0.00    +0.000 A 
ATOM     10  C   UNL     1      -0.605  -2.032  -1.010  0.00  0.00    +0.000 A 
BRANCH   8  11
ATOM     11  C   UNL     1      -4.171  -0.771  -1.491  0.00  0.00    +0.000 C 
BRANCH  11  12
ATOM     12  N   UNL     1      -4.440  -0.785  -2.913  0.00  0.00    +0.000 N 
ATOM     13  C   UNL     1      -5.727  -0.816  -3.411  0.00  0.00    +0.000 C 
ATOM     14  O   UNL     1      -6.719  -0.894  -2.694  0.00  0.00    +0.000 OA
ATOM     15  H   UNL     1      -3.676  -0.566  -3.537  0.00  0.00    +0.000 HD
BRANCH  13  16
ATOM     16  C   UNL     1      -5.784  -0.811  -4.935  0.00  0.00    +0.000 C 
ATOM     17  C   UNL     1      -5.114   0.424  -5.534  0.00  0.00    +0.000 C 
ATOM     18  C   UNL     1      -5.699   0.569  -6.935  0.00  0.00    +0.000 C 
ATOM     19  C   UNL     1      -6.956  -0.296  -6.968  0.00  0.00    +0.000 C 
ATOM     20  C   UNL     1      -7.191  -0.741  -5.528  0.00  0.00    +0.000 C 
ENDBRANCH  13  16
ENDBRANCH  11  12
ENDBRANCH   8  11
ENDBRANCH   2   5
BRANCH   1  21
ATOM     21  C   UNL     1       3.691  -2.000  -0.280  0.00  0.00    +0.000 C 
BRANCH  21  22
ATOM     22  C   UNL     1       4.199  -2.809  -1.463  0.00  0.00    +0.000 A 
ATOM     23  C   UNL     1       5.414  -2.556  -2.088  0.00  0.00    +0.000 A 
ATOM     24  S   UNL     1       5.701  -3.544  -3.452  0.00  0.00    +0.000 S 
ATOM     25  C   UNL     1       4.222  -4.360  -3.246  0.00  0.00    +0.000 A 
ATOM     26  N   UNL     1       3.816  -5.321  -4.119  0.00  0.00    +0.000 NA
ATOM     27  C   UNL     1       2.669  -5.842  -3.840  0.00  0.00    +0.000 A 
ATOM     28  N   UNL     1       1.899  -5.508  -2.753  0.00  0.00    +0.000 N 
ATOM     29  C   UNL     1       2.321  -4.620  -1.790  0.00  0.00    +0.000 A 
ATOM     30  O   UNL     1       1.706  -4.468  -0.739  0.00  0.00    +0.000 OA
ATOM     31  C   UNL     1       3.550  -3.927  -2.118  0.00  0.00    +0.000 A 
ATOM     32  H   UNL     1       1.041  -6.004  -2.563  0.00  0.00    +0.000 HD
ENDBRANCH  21  22
BRANCH  21  34
ATOM     33  N   UNL     1       4.380  -3.102   2.020  0.00  0.00    +0.000 NA
ATOM     34  C   UNL     1       4.100  -2.623   0.993  0.00  0.00    +0.000 C 
ENDBRANCH  21  34
ENDBRANCH   1  21
TORSDOF 7
