REMARK  Name = 
REMARK  8 active torsions:
REMARK  status: ('A' for Active; 'I' for Inactive)
REMARK    1  A    between atoms: C_1  and  O_2
REMARK    2  A    between atoms: O_2  and  C_3
REMARK    3  A    between atoms: C_8  and  C_9
REMARK    4  A    between atoms: C_9  and  N_10
REMARK    5  A    between atoms: N_10  and  C_11
REMARK    6  A    between atoms: C_14  and  C_15
REMARK    7  A    between atoms: C_15  and  N_16
REMARK    8  A    between atoms: C_17  and  C_19
REMARK                            x       y       z     vdW  Elec       q    Type
REMARK                         _______ _______ _______ _____ _____    ______ ____
ROOT
ATOM      1  C   UNL     1       3.659   2.113  -2.752  0.00  0.00    +0.000 A 
ATOM      2  C   UNL     1       4.874   1.908  -3.411  0.00  0.00    +0.000 A 
ATOM      3  C   UNL     1       5.029   2.279  -4.757  0.00  0.00    +0.000 A 
ATOM      4  C   UNL     1       3.946   2.825  -5.442  0.00  0.00    +0.000 A 
ATOM      5  N   UNL     1       2.728   2.932  -4.867  0.00  0.00    +0.000 NA
ATOM      6  C   UNL     1       2.619   2.568  -3.564  0.00  0.00    +0.000 A 
ENDROOT
BRANCH   1   7
ATOM      7  N   UNL     1       3.494   1.747  -1.406  0.00  0.00    +0.000 N 
ATOM      8  H   UNL     1       4.382   1.705  -0.909  0.00  0.00    +0.000 HD
BRANCH   7   9
ATOM      9  C   UNL     1       2.485   2.493  -0.628  0.00  0.00    +0.000 C 
BRANCH   9  15
ATOM     10  C   UNL     1       2.666   2.770   1.919  0.00  0.00    +0.000 A 
ATOM     11  C   UNL     1       2.649   2.189   3.194  0.00  0.00    +0.000 A 
ATOM     12  C   UNL     1       2.347   0.835   3.357  0.00  0.00    +0.000 A 
ATOM     13  C   UNL     1       2.031   0.055   2.252  0.00  0.00    +0.000 A 
ATOM     14  C   UNL     1       2.067   0.616   0.979  0.00  0.00    +0.000 A 
ATOM     15  C   UNL     1       2.416   1.967   0.790  0.00  0.00    +0.000 A 
BRANCH  10  17
ATOM     16  C   UNL     1       3.531   4.839   2.721  0.00  0.00    +0.000 C 
ATOM     17  O   UNL     1       2.853   4.111   1.701  0.00  0.00    +0.000 OA
ENDBRANCH  10  17
ENDBRANCH   9  15
ENDBRANCH   7   9
ENDBRANCH   1   7
BRANCH   4  18
ATOM     18  C   UNL     1       4.075   3.326  -6.863  0.00  0.00    +0.000 C 
BRANCH  18  19
ATOM     19  N   UNL     1       3.783   2.295  -7.829  0.00  0.00    +0.000 N 
ATOM     20  C   UNL     1       4.345   2.282  -9.079  0.00  0.00    +0.000 C 
ATOM     21  O   UNL     1       5.169   3.116  -9.443  0.00  0.00    +0.000 OA
ATOM     22  H   UNL     1       2.899   1.814  -7.687  0.00  0.00    +0.000 HD
BRANCH  20  23
ATOM     23  C   UNL     1       3.961   1.156  -9.938  0.00  0.00    +0.000 A 
ATOM     24  C   UNL     1       4.836   0.701 -10.915  0.00  0.00    +0.000 A 
ATOM     25  S   UNL     1       4.252  -0.651 -11.777  0.00  0.00    +0.000 S 
ATOM     26  C   UNL     1       2.788  -0.642 -10.907  0.00  0.00    +0.000 A 
ATOM     27  N   UNL     1       1.806  -1.543 -11.178  0.00  0.00    +0.000 NA
ATOM     28  C   UNL     1       0.739  -1.401 -10.464  0.00  0.00    +0.000 A 
ATOM     29  N   UNL     1       0.567  -0.445  -9.488  0.00  0.00    +0.000 N 
ATOM     30  C   UNL     1       1.551   0.453  -9.153  0.00  0.00    +0.000 A 
ATOM     31  O   UNL     1       1.396   1.249  -8.232  0.00  0.00    +0.000 OA
ATOM     32  C   UNL     1       2.759   0.360  -9.954  0.00  0.00    +0.000 A 
ATOM     33  H   UNL     1      -0.277  -0.407  -8.948  0.00  0.00    +0.000 HD
ENDBRANCH  20  23
ENDBRANCH  18  19
ENDBRANCH   4  18
TORSDOF 7
