REMARK  Name = 
REMARK  10 active torsions:
REMARK  status: ('A' for Active; 'I' for Inactive)
REMARK    1  A    between atoms: C_1  and  O_2
REMARK    2  A    between atoms: O_2  and  C_3
REMARK    3  A    between atoms: C_5  and  O_6
REMARK    4  A    between atoms: C_8  and  O_9
REMARK    5  A    between atoms: O_9  and  C_10
REMARK    6  A    between atoms: C_10  and  C_11
REMARK    7  A    between atoms: C_11  and  C_12
REMARK    8  A    between atoms: C_11  and  C_13
REMARK    9  A    between atoms: C_11  and  C_14
REMARK   10  A    between atoms: C_17  and  C_18
REMARK                            x       y       z     vdW  Elec       q    Type
REMARK                         _______ _______ _______ _____ _____    ______ ____
ROOT
ATOM      1  C   UNL     1       8.931   3.097  -0.193  0.00  0.00    +0.000 C 
ATOM      2  C   UNL     1       9.295   2.275   1.067  0.00  0.00    +0.000 C 
ATOM      3  C   UNL     1       9.262   2.258  -1.447  0.00  0.00    +0.000 C 
ENDROOT
BRANCH   1   4
ATOM      4  C   UNL     1       9.752   4.398  -0.197  0.00  0.00    +0.000 A 
ATOM      5  C   UNL     1       9.170   5.673  -0.177  0.00  0.00    +0.000 A 
ATOM      6  C   UNL     1       9.962   6.819  -0.185  0.00  0.00    +0.000 A 
ATOM      7  C   UNL     1      11.337   6.666  -0.201  0.00  0.00    +0.000 A 
ATOM      8  N   UNL     1      11.961   5.456  -0.215  0.00  0.00    +0.000 NA
ATOM      9  C   UNL     1      11.153   4.368  -0.217  0.00  0.00    +0.000 A 
BRANCH   7  10
ATOM     10  C   UNL     1      12.211   7.880  -0.197  0.00  0.00    +0.000 C 
ATOM     11  N   UNL     1      13.558   7.634  -0.202  0.00  0.00    +0.000 N 
ATOM     12  O   UNL     1      11.766   9.022  -0.185  0.00  0.00    +0.000 OA
ATOM     13  H   UNL     1      13.888   6.676  -0.213  0.00  0.00    +0.000 HD
ATOM     14  H   UNL     1      14.205   8.408  -0.197  0.00  0.00    +0.000 HD
ENDBRANCH   7  10
ENDBRANCH   1   4
BRANCH   1  15
ATOM     15  C   UNL     1       7.388   3.315  -0.141  0.00  0.00    +0.000 C 
BRANCH  15  16
ATOM     16  O   UNL     1       6.915   3.977  -1.320  0.00  0.00    +0.000 OA
BRANCH  16  21
ATOM     17  C   UNL     1       3.845   5.469  -2.594  0.00  0.00    +0.000 A 
ATOM     18  C   UNL     1       2.908   5.096  -1.631  0.00  0.00    +0.000 A 
ATOM     19  C   UNL     1       3.323   4.352  -0.530  0.00  0.00    +0.000 A 
ATOM     20  C   UNL     1       4.650   3.965  -0.374  0.00  0.00    +0.000 A 
ATOM     21  C   UNL     1       5.589   4.320  -1.338  0.00  0.00    +0.000 A 
ATOM     22  C   UNL     1       5.181   5.079  -2.440  0.00  0.00    +0.000 A 
BRANCH  17  24
ATOM     23  C   UNL     1       2.234   6.592  -3.939  0.00  0.00    +0.000 C 
ATOM     24  O   UNL     1       3.585   6.202  -3.720  0.00  0.00    +0.000 OA
ENDBRANCH  17  24
BRANCH  19  25
ATOM     25  O   UNL     1       2.444   3.965   0.442  0.00  0.00    +0.000 OA
ATOM     26  H   UNL     1       1.556   4.282   0.208  0.00  0.00    +0.000 HD
ENDBRANCH  19  25
ENDBRANCH  16  21
ENDBRANCH  15  16
ENDBRANCH   1  15
TORSDOF 7
