REMARK  Name = 
REMARK  10 active torsions:
REMARK  status: ('A' for Active; 'I' for Inactive)
REMARK    1  A    between atoms: C_1  and  C_2
REMARK    2  A    between atoms: C_2  and  C_3
REMARK    3  A    between atoms: C_2  and  C_4
REMARK    4  A    between atoms: C_2  and  C_5
REMARK    5  A    between atoms: C_9  and  C_10
REMARK    6  A    between atoms: N_16  and  C_17
REMARK    7  A    between atoms: C_17  and  C_18
REMARK    8  A    between atoms: N_21  and  C_22
REMARK    9  A    between atoms: C_22  and  C_23
REMARK   10  A    between atoms: C_23  and  N_24
REMARK                            x       y       z     vdW  Elec       q    Type
REMARK                         _______ _______ _______ _____ _____    ______ ____
ROOT
ATOM      1  C   UNL     1       2.675   1.415  -0.525  0.00  0.00    +0.000 A 
ATOM      2  N   UNL     1       1.934   2.503  -0.323  0.00  0.00    +0.000 NA
ATOM      3  C   UNL     1       2.806   3.550  -0.403  0.00  0.00    +0.000 A 
ATOM      4  C   UNL     1       2.616   4.927  -0.231  0.00  0.00    +0.000 A 
ATOM      5  C   UNL     1       3.753   5.737  -0.325  0.00  0.00    +0.000 A 
ATOM      6  C   UNL     1       5.006   5.122  -0.464  0.00  0.00    +0.000 A 
ATOM      7  N   UNL     1       5.226   3.791  -0.667  0.00  0.00    +0.000 NA
ATOM      8  C   UNL     1       4.082   3.085  -0.700  0.00  0.00    +0.000 A 
ATOM      9  N   UNL     1       3.875   1.795  -1.124  0.00  0.00    +0.000 N 
ENDROOT
BRANCH   5  10
ATOM     10  C   UNL     1       3.708   7.219  -0.382  0.00  0.00    +0.000 C 
ATOM     11  N   UNL     1       2.497   7.838  -0.518  0.00  0.00    +0.000 N 
ATOM     12  O   UNL     1       4.738   7.884  -0.393  0.00  0.00    +0.000 OA
ATOM     13  H   UNL     1       1.602   7.374  -0.572  0.00  0.00    +0.000 HD
ATOM     14  H   UNL     1       2.510   8.845  -0.636  0.00  0.00    +0.000 HD
ENDBRANCH   5  10
BRANCH   1  16
ATOM     15  C   UNL     1       1.392  -0.636  -1.163  0.00  0.00    +0.000 C 
ATOM     16  C   UNL     1       2.256   0.016  -0.076  0.00  0.00    +0.000 C 
ATOM     17  C   UNL     1       1.409   0.151   1.217  0.00  0.00    +0.000 C 
ATOM     18  C   UNL     1       3.427  -0.911   0.310  0.00  0.00    +0.000 C 
ENDBRANCH   1  16
BRANCH   9  19
ATOM     19  C   UNL     1       4.784   0.958  -1.876  0.00  0.00    +0.000 C 
BRANCH  19  20
ATOM     20  C   UNL     1       5.305   1.251  -3.318  0.00  0.00    +0.000 C 
ATOM     21  C   UNL     1       6.186   2.474  -3.536  0.00  0.00    +0.000 C 
ATOM     22  C   UNL     1       5.428   3.769  -3.817  0.00  0.00    +0.000 C 
ATOM     23  N   UNL     1       4.215   3.706  -4.638  0.00  0.00    +0.000 NA
ATOM     24  C   UNL     1       3.420   2.481  -4.475  0.00  0.00    +0.000 C 
ATOM     25  C   UNL     1       4.254   1.212  -4.431  0.00  0.00    +0.000 C 
BRANCH  23  26
ATOM     26  C   UNL     1       3.334   4.863  -4.340  0.00  0.00    +0.000 C 
BRANCH  26  27
ATOM     27  C   UNL     1       3.956   6.266  -4.510  0.00  0.00    +0.000 C 
BRANCH  27  28
ATOM     28  N   UNL     1       3.046   7.339  -4.086  0.00  0.00    +0.000 NA
ATOM     29  H   UNL     1       2.082   7.014  -4.116  0.00  0.00    +0.000 HD
ATOM     30  H   UNL     1       3.244   7.583  -3.115  0.00  0.00    +0.000 HD
ENDBRANCH  27  28
ENDBRANCH  26  27
ENDBRANCH  23  26
ENDBRANCH  19  20
ENDBRANCH   9  19
TORSDOF 7
