REMARK  Name = 
REMARK  5 active torsions:
REMARK  status: ('A' for Active; 'I' for Inactive)
REMARK    1  A    between atoms: C_1  and  C_2
REMARK    2  A    between atoms: C_9  and  C_10
REMARK    3  A    between atoms: C_10  and  N_11
REMARK    4  A    between atoms: C_15  and  C_16
REMARK    5  A    between atoms: C_25  and  C_26
REMARK                            x       y       z     vdW  Elec       q    Type
REMARK                         _______ _______ _______ _____ _____    ______ ____
ROOT
ATOM      1  C   UNL     1       2.356   4.558  -4.754  0.00  0.00    +0.000 C 
ATOM      2  C   UNL     1       3.238   4.445  -5.996  0.00  0.00    +0.000 C 
ATOM      3  C   UNL     1       3.877   4.568  -4.649  0.00  0.00    +0.000 C 
ENDROOT
BRANCH   1  12
ATOM      4  C   UNL     1       3.636  -1.337  -4.566  0.00  0.00    +0.000 C 
ATOM      5  C   UNL     1       3.566  -1.516  -3.052  0.00  0.00    +0.000 C 
ATOM      6  C   UNL     1       2.287  -0.939  -2.403  0.00  0.00    +0.000 C 
ATOM      7  N   UNL     1       2.349   0.516  -2.289  0.00  0.00    +0.000 N 
ATOM      8  C   UNL     1       1.703   1.267  -3.245  0.00  0.00    +0.000 A 
ATOM      9  N   UNL     1       0.609   0.803  -3.863  0.00  0.00    +0.000 NA
ATOM     10  C   UNL     1       0.004   1.619  -4.749  0.00  0.00    +0.000 A 
ATOM     11  C   UNL     1       0.468   2.869  -5.074  0.00  0.00    +0.000 A 
ATOM     12  C   UNL     1       1.618   3.267  -4.425  0.00  0.00    +0.000 A 
ATOM     13  N   UNL     1       2.197   2.477  -3.501  0.00  0.00    +0.000 NA
ATOM     14  C   UNL     1       3.603   1.041  -1.729  0.00  0.00    +0.000 C 
ATOM     15  C   UNL     1       4.835   0.420  -2.417  0.00  0.00    +0.000 C 
ATOM     16  C   UNL     1       6.110   0.804  -1.672  0.00  0.00    +0.000 C 
ATOM     17  O   UNL     1       4.763  -1.018  -2.421  0.00  0.00    +0.000 OA
ENDBRANCH   1  12
BRANCH   1  18
ATOM     18  N   UNL     1       1.649   5.823  -4.470  0.00  0.00    +0.000 N 
ATOM     19  C   UNL     1       1.464   6.321  -3.172  0.00  0.00    +0.000 A 
ATOM     20  C   UNL     1       1.154   5.533  -2.066  0.00  0.00    +0.000 A 
ATOM     21  C   UNL     1       0.863   6.139  -0.836  0.00  0.00    +0.000 A 
ATOM     22  C   UNL     1       0.889   7.524  -0.732  0.00  0.00    +0.000 A 
ATOM     23  C   UNL     1       1.231   8.237  -1.872  0.00  0.00    +0.000 A 
ATOM     24  N   UNL     1       1.523   7.667  -3.072  0.00  0.00    +0.000 NA
ATOM     25  H   UNL     1       1.942   6.635  -5.010  0.00  0.00    +0.000 HD
BRANCH  22  26
ATOM     26  C   UNL     1       0.524   8.276   0.489  0.00  0.00    +0.000 C 
ATOM     27  N   UNL     1       0.588   7.630   1.693  0.00  0.00    +0.000 N 
ATOM     28  O   UNL     1       0.187   9.452   0.430  0.00  0.00    +0.000 OA
ATOM     29  H   UNL     1       1.037   6.737   1.820  0.00  0.00    +0.000 HD
ATOM     30  H   UNL     1       0.401   8.188   2.517  0.00  0.00    +0.000 HD
ENDBRANCH  22  26
ENDBRANCH   1  18
TORSDOF 3
