REMARK  Name = 
REMARK  4 active torsions:
REMARK  status: ('A' for Active; 'I' for Inactive)
REMARK    1  A    between atoms: C_2  and  C_4
REMARK    2  A    between atoms: C_7  and  C_8
REMARK    3  A    between atoms: C_8  and  C_9
REMARK    4  A    between atoms: C_9  and  C_10
REMARK                            x       y       z     vdW  Elec       q    Type
REMARK                         _______ _______ _______ _____ _____    ______ ____
ROOT
ATOM      1  C   UNL     1       3.990  -0.611   1.068  0.00  0.00    +0.000 A 
ATOM      2  C   UNL     1       5.272  -0.067   1.016  0.00  0.00    +0.000 A 
ATOM      3  C   UNL     1       5.693   0.794   2.033  0.00  0.00    +0.000 A 
ATOM      4  C   UNL     1       4.824   1.100   3.082  0.00  0.00    +0.000 A 
ATOM      5  N   UNL     1       3.551   0.640   3.086  0.00  0.00    +0.000 NA
ATOM      6  C   UNL     1       3.167  -0.215   2.107  0.00  0.00    +0.000 A 
ENDROOT
BRANCH   1   8
ATOM      7  N   UNL     1       4.385  -2.310  -0.626  0.00  0.00    +0.000 N 
ATOM      8  C   UNL     1       3.466  -1.567   0.071  0.00  0.00    +0.000 C 
ATOM      9  O   UNL     1       2.264  -1.718  -0.102  0.00  0.00    +0.000 OA
ATOM     10  H   UNL     1       4.007  -3.038  -1.219  0.00  0.00    +0.000 HD
ATOM     11  H   UNL     1       5.344  -2.401  -0.331  0.00  0.00    +0.000 HD
ENDBRANCH   1   8
BRANCH   4  12
ATOM     12  C   UNL     1       5.289   2.025   4.203  0.00  0.00    +0.000 C 
BRANCH  12  13
ATOM     13  C   UNL     1       4.935   1.664   5.672  0.00  0.00    +0.000 C 
ATOM     14  C   UNL     1       4.715   0.192   5.990  0.00  0.00    +0.000 C 
ATOM     15  C   UNL     1       3.546   1.134   6.011  0.00  0.00    +0.000 C 
BRANCH  13  16
ATOM     16  C   UNL     1       5.565   2.667   6.692  0.00  0.00    +0.000 C 
ATOM     17  C   UNL     1       7.099   2.609   6.747  0.00  0.00    +0.000 C 
ATOM     18  C   UNL     1       7.594   1.409   7.548  0.00  0.00    +0.000 C 
ATOM     19  N   UNL     1       7.099   1.430   8.926  0.00  0.00    +0.000 NA
ATOM     20  C   UNL     1       5.639   1.510   8.994  0.00  0.00    +0.000 C 
ATOM     21  C   UNL     1       5.057   2.644   8.149  0.00  0.00    +0.000 C 
ATOM     22  H   UNL     1       7.492   2.241   9.403  0.00  0.00    +0.000 HD
ENDBRANCH  13  16
ENDBRANCH  12  13
ENDBRANCH   4  12
TORSDOF 4
