REMARK  Name = 
REMARK  8 active torsions:
REMARK  status: ('A' for Active; 'I' for Inactive)
REMARK    1  A    between atoms: C_1  and  C_2
REMARK    2  A    between atoms: C_7  and  C_8
REMARK    3  A    between atoms: N_10  and  C_11
REMARK    4  A    between atoms: C_11  and  C_12
REMARK    5  A    between atoms: C_11  and  C_13
REMARK    6  A    between atoms: C_16  and  C_17
REMARK    7  A    between atoms: C_17  and  N_18
REMARK    8  A    between atoms: C_19  and  C_21
REMARK                            x       y       z     vdW  Elec       q    Type
REMARK                         _______ _______ _______ _____ _____    ______ ____
ROOT
ATOM      1  C   UNL     1       8.575   3.154  -0.081  0.00  0.00    +0.000 C 
ATOM      2  C   UNL     1       9.452   2.982  -1.327  0.00  0.00    +0.000 C 
ENDROOT
BRANCH   1   3
ATOM      3  C   UNL     1       8.021   4.579  -0.032  0.00  0.00    +0.000 A 
ATOM      4  C   UNL     1       8.783   5.608   0.551  0.00  0.00    +0.000 A 
ATOM      5  C   UNL     1       8.330   6.939   0.558  0.00  0.00    +0.000 A 
ATOM      6  C   UNL     1       7.094   7.275  -0.007  0.00  0.00    +0.000 A 
ATOM      7  C   UNL     1       6.337   6.258  -0.593  0.00  0.00    +0.000 A 
ATOM      8  C   UNL     1       6.797   4.939  -0.611  0.00  0.00    +0.000 A 
BRANCH   6   9
ATOM      9  C   UNL     1       6.555   8.680  -0.006  0.00  0.00    +0.000 C 
BRANCH   9  10
ATOM     10  N   UNL     1       6.909   9.422  -1.186  0.00  0.00    +0.000 N 
ATOM     11  C   UNL     1       6.468  10.712  -1.373  0.00  0.00    +0.000 C 
ATOM     12  O   UNL     1       5.717  11.284  -0.587  0.00  0.00    +0.000 OA
ATOM     13  H   UNL     1       7.519   9.031  -1.899  0.00  0.00    +0.000 HD
BRANCH  11  14
ATOM     14  C   UNL     1       6.975  11.342  -2.575  0.00  0.00    +0.000 A 
ATOM     15  N   UNL     1       7.772  10.767  -3.461  0.00  0.00    +0.000 NA
ATOM     16  C   UNL     1       8.011  11.726  -4.414  0.00  0.00    +0.000 A 
ATOM     17  C   UNL     1       7.360  12.897  -4.105  0.00  0.00    +0.000 A 
ATOM     18  N   UNL     1       6.698  12.638  -2.939  0.00  0.00    +0.000 N 
ATOM     19  H   UNL     1       6.110  13.267  -2.408  0.00  0.00    +0.000 HD
ENDBRANCH  11  14
ENDBRANCH   9  10
ENDBRANCH   6   9
ENDBRANCH   1   3
BRANCH   1  22
ATOM     20  C   UNL     1       7.725   0.877   0.506  0.00  0.00    +0.000 C 
ATOM     21  O   UNL     1       8.786   0.563   1.038  0.00  0.00    +0.000 OA
ATOM     22  N   UNL     1       7.534   2.129  -0.030  0.00  0.00    +0.000 N 
ATOM     23  H   UNL     1       6.689   2.301  -0.560  0.00  0.00    +0.000 HD
BRANCH  20  30
ATOM     24  C   UNL     1       1.298  -0.386  -1.585  0.00  0.00    +0.000 C 
ATOM     25  C   UNL     1       2.700  -0.329  -1.048  0.00  0.00    +0.000 A 
ATOM     26  N   UNL     1       3.229  -1.328  -0.413  0.00  0.00    +0.000 NA
ATOM     27  C   UNL     1       4.505  -1.121   0.012  0.00  0.00    +0.000 A 
ATOM     28  S   UNL     1       5.349  -2.326   0.866  0.00  0.00    +0.000 S 
ATOM     29  C   UNL     1       6.731  -1.335   1.012  0.00  0.00    +0.000 A 
ATOM     30  C   UNL     1       6.597  -0.081   0.427  0.00  0.00    +0.000 A 
ATOM     31  C   UNL     1       5.278   0.015  -0.172  0.00  0.00    +0.000 A 
ATOM     32  C   UNL     1       4.649   1.085  -0.915  0.00  0.00    +0.000 A 
ATOM     33  O   UNL     1       5.208   2.129  -1.226  0.00  0.00    +0.000 OA
ATOM     34  N   UNL     1       3.353   0.849  -1.294  0.00  0.00    +0.000 N 
ATOM     35  H   UNL     1       2.904   1.592  -1.814  0.00  0.00    +0.000 HD
ENDBRANCH  20  30
ENDBRANCH   1  22
TORSDOF 6
