REMARK  Name = 
REMARK  5 active torsions:
REMARK  status: ('A' for Active; 'I' for Inactive)
REMARK    1  A    between atoms: C_2  and  C_18
REMARK    2  A    between atoms: N_3  and  C_4
REMARK    3  A    between atoms: C_4  and  C_5
REMARK    4  A    between atoms: C_8  and  C_9
REMARK    5  A    between atoms: C_9  and  N_10
REMARK                            x       y       z     vdW  Elec       q    Type
REMARK                         _______ _______ _______ _____ _____    ______ ____
ROOT
ATOM      1  O   UNL     1       3.454  -0.307  -1.663  0.00  0.00    +0.000 OA
ATOM      2  C   UNL     1       2.352   0.018  -2.095  0.00  0.00    +0.000 C 
ATOM      3  N   UNL     1       1.797   1.248  -1.871  0.00  0.00    +0.000 N 
ATOM      4  H   UNL     1       0.846   1.432  -2.163  0.00  0.00    +0.000 HD
ENDROOT
BRANCH   2   5
ATOM      5  C   UNL     1       1.551  -0.893  -2.918  0.00  0.00    +0.000 A 
ATOM      6  C   UNL     1       2.167  -1.902  -3.644  0.00  0.00    +0.000 A 
ATOM      7  S   UNL     1       1.074  -2.852  -4.545  0.00  0.00    +0.000 S 
ATOM      8  C   UNL     1      -0.264  -1.982  -3.953  0.00  0.00    +0.000 A 
ATOM      9  N   UNL     1      -1.533  -2.311  -4.311  0.00  0.00    +0.000 NA
ATOM     10  C   UNL     1      -2.450  -1.597  -3.751  0.00  0.00    +0.000 A 
ATOM     11  N   UNL     1      -2.213  -0.574  -2.870  0.00  0.00    +0.000 N 
ATOM     12  C   UNL     1      -0.952  -0.159  -2.533  0.00  0.00    +0.000 A 
ATOM     13  O   UNL     1      -0.782   0.841  -1.839  0.00  0.00    +0.000 OA
ATOM     14  C   UNL     1       0.119  -0.958  -3.100  0.00  0.00    +0.000 A 
ATOM     15  H   UNL     1      -2.976  -0.036  -2.486  0.00  0.00    +0.000 HD
ENDBRANCH   2   5
BRANCH   3  16
ATOM     16  C   UNL     1       2.379   2.209  -0.981  0.00  0.00    +0.000 C 
BRANCH  16  17
ATOM     17  C   UNL     1       3.223   3.222  -1.702  0.00  0.00    +0.000 A 
ATOM     18  C   UNL     1       2.659   4.397  -2.214  0.00  0.00    +0.000 A 
ATOM     19  C   UNL     1       3.480   5.427  -2.679  0.00  0.00    +0.000 A 
ATOM     20  C   UNL     1       4.875   5.287  -2.647  0.00  0.00    +0.000 A 
ATOM     21  C   UNL     1       5.425   4.052  -2.280  0.00  0.00    +0.000 A 
ATOM     22  C   UNL     1       4.605   3.027  -1.811  0.00  0.00    +0.000 A 
BRANCH  20  23
ATOM     23  C   UNL     1       5.781   6.484  -2.860  0.00  0.00    +0.000 C 
BRANCH  23  24
ATOM     24  N   UNL     1       5.825   7.378  -1.688  0.00  0.00    +0.000 NA
ATOM     25  C   UNL     1       6.655   8.573  -1.938  0.00  0.00    +0.000 C 
ATOM     26  C   UNL     1       8.168   8.314  -1.843  0.00  0.00    +0.000 C 
ATOM     27  O   UNL     1       8.522   7.790  -0.560  0.00  0.00    +0.000 OA
ATOM     28  C   UNL     1       7.809   6.580  -0.282  0.00  0.00    +0.000 C 
ATOM     29  C   UNL     1       6.286   6.752  -0.428  0.00  0.00    +0.000 C 
ENDBRANCH  23  24
ENDBRANCH  20  23
ENDBRANCH  16  17
ENDBRANCH   3  16
TORSDOF 5
