REMARK  Name = 
REMARK  8 active torsions:
REMARK  status: ('A' for Active; 'I' for Inactive)
REMARK    1  A    between atoms: C_1  and  C_2
REMARK    2  A    between atoms: C_2  and  N_3
REMARK    3  A    between atoms: C_2  and  C_19
REMARK    4  A    between atoms: C_7  and  C_8
REMARK    5  A    between atoms: C_8  and  C_9
REMARK    6  A    between atoms: C_8  and  N_10
REMARK    7  A    between atoms: N_10  and  C_11
REMARK    8  A    between atoms: C_11  and  C_12
REMARK                            x       y       z     vdW  Elec       q    Type
REMARK                         _______ _______ _______ _____ _____    ______ ____
ROOT
ATOM      1  N   UNL     1       0.221 -15.539  -2.911  0.00  0.00    +0.000 N 
ATOM      2  C   UNL     1       0.703 -14.264  -2.619  0.00  0.00    +0.000 A 
ATOM      3  C   UNL     1       0.858 -13.852  -1.291  0.00  0.00    +0.000 A 
ATOM      4  N   UNL     1       1.095 -12.569  -0.901  0.00  0.00    +0.000 NA
ATOM      5  C   UNL     1       1.122 -11.656  -1.904  0.00  0.00    +0.000 A 
ATOM      6  C   UNL     1       1.039 -12.064  -3.231  0.00  0.00    +0.000 A 
ATOM      7  N   UNL     1       0.847 -13.356  -3.608  0.00  0.00    +0.000 NA
ATOM      8  H   UNL     1       0.310 -16.213  -2.151  0.00  0.00    +0.000 HD
ENDROOT
BRANCH   1  10
ATOM      9  C   UNL     1       1.902 -16.847  -4.091  0.00  0.00    +0.000 C 
ATOM     10  C   UNL     1       0.549 -16.131  -4.207  0.00  0.00    +0.000 C 
BRANCH  10  11
ATOM     11  C   UNL     1      -0.500 -17.082  -4.779  0.00  0.00    +0.000 A 
ATOM     12  C   UNL     1      -0.721 -17.204  -6.144  0.00  0.00    +0.000 A 
ATOM     13  S   UNL     1      -1.984 -18.281  -6.536  0.00  0.00    +0.000 S 
ATOM     14  C   UNL     1      -2.251 -18.653  -4.898  0.00  0.00    +0.000 A 
ATOM     15  N   UNL     1      -3.219 -19.533  -4.533  0.00  0.00    +0.000 NA
ATOM     16  C   UNL     1      -3.304 -19.733  -3.261  0.00  0.00    +0.000 A 
ATOM     17  N   UNL     1      -2.499 -19.142  -2.319  0.00  0.00    +0.000 N 
ATOM     18  C   UNL     1      -1.476 -18.274  -2.641  0.00  0.00    +0.000 A 
ATOM     19  O   UNL     1      -0.707 -17.848  -1.787  0.00  0.00    +0.000 OA
ATOM     20  C   UNL     1      -1.377 -17.980  -4.060  0.00  0.00    +0.000 A 
ATOM     21  H   UNL     1      -2.595 -19.377  -1.342  0.00  0.00    +0.000 HD
ENDBRANCH  10  11
ENDBRANCH   1  10
BRANCH   5  22
ATOM     22  C   UNL     1       1.161 -10.175  -1.549  0.00  0.00    +0.000 C 
ATOM     23  C   UNL     1      -0.085  -9.828  -0.721  0.00  0.00    +0.000 C 
BRANCH  22  24
ATOM     24  N   UNL     1       2.343  -9.770  -0.764  0.00  0.00    +0.000 NA
ATOM     25  H   UNL     1       2.380 -10.382   0.054  0.00  0.00    +0.000 HD
BRANCH  24  26
ATOM     26  C   UNL     1       3.588  -9.896  -1.527  0.00  0.00    +0.000 C 
BRANCH  26  27
ATOM     27  C   UNL     1       4.839  -9.421  -0.740  0.00  0.00    +0.000 C 
ATOM     28  C   UNL     1       5.111 -10.176   0.556  0.00  0.00    +0.000 C 
ATOM     29  C   UNL     1       5.799 -11.446   0.094  0.00  0.00    +0.000 C 
ATOM     30  C   UNL     1       6.483 -11.057  -1.209  0.00  0.00    +0.000 C 
ATOM     31  N   UNL     1       6.082  -9.676  -1.491  0.00  0.00    +0.000 NA
ATOM     32  H   UNL     1       5.950  -9.532  -2.490  0.00  0.00    +0.000 HD
ENDBRANCH  26  27
ENDBRANCH  24  26
ENDBRANCH  22  24
ENDBRANCH   5  22
TORSDOF 6
