REMARK  Name = 
REMARK  8 active torsions:
REMARK  status: ('A' for Active; 'I' for Inactive)
REMARK    1  A    between atoms: C_2  and  C_20
REMARK    2  A    between atoms: N_3  and  C_4
REMARK    3  A    between atoms: C_4  and  C_5
REMARK    4  A    between atoms: C_8  and  C_9
REMARK    5  A    between atoms: C_9  and  C_10
REMARK    6  A    between atoms: C_10  and  O_11
REMARK    7  A    between atoms: C_10  and  C_12
REMARK    8  A    between atoms: C_12  and  C_13
REMARK                            x       y       z     vdW  Elec       q    Type
REMARK                         _______ _______ _______ _____ _____    ______ ____
ROOT
ATOM      1  C   UNL     1       3.093   3.295   1.494  0.00  0.00    +0.000 A 
ATOM      2  C   UNL     1       2.795   4.627   1.177  0.00  0.00    +0.000 A 
ATOM      3  C   UNL     1       3.632   5.666   1.598  0.00  0.00    +0.000 A 
ATOM      4  C   UNL     1       4.794   5.391   2.327  0.00  0.00    +0.000 A 
ATOM      5  C   UNL     1       5.113   4.057   2.608  0.00  0.00    +0.000 A 
ATOM      6  C   UNL     1       4.275   3.018   2.190  0.00  0.00    +0.000 A 
ENDROOT
BRANCH   1   7
ATOM      7  C   UNL     1       2.164   2.184   1.079  0.00  0.00    +0.000 C 
BRANCH   7  10
ATOM      8  O   UNL     1       0.913   0.044  -0.164  0.00  0.00    +0.000 OA
ATOM      9  C   UNL     1       1.762   0.667  -0.795  0.00  0.00    +0.000 C 
ATOM     10  N   UNL     1       2.481   1.694  -0.237  0.00  0.00    +0.000 N 
ATOM     11  H   UNL     1       3.012   2.314  -0.838  0.00  0.00    +0.000 HD
BRANCH   9  12
ATOM     12  C   UNL     1       2.089   0.319  -2.183  0.00  0.00    +0.000 A 
ATOM     13  C   UNL     1       1.831  -0.961  -2.656  0.00  0.00    +0.000 A 
ATOM     14  S   UNL     1       2.286  -1.190  -4.284  0.00  0.00    +0.000 S 
ATOM     15  C   UNL     1       2.797   0.427  -4.427  0.00  0.00    +0.000 A 
ATOM     16  N   UNL     1       3.277   0.908  -5.606  0.00  0.00    +0.000 NA
ATOM     17  C   UNL     1       3.593   2.160  -5.581  0.00  0.00    +0.000 A 
ATOM     18  N   UNL     1       3.485   2.971  -4.483  0.00  0.00    +0.000 N 
ATOM     19  C   UNL     1       3.037   2.521  -3.264  0.00  0.00    +0.000 A 
ATOM     20  O   UNL     1       3.001   3.263  -2.288  0.00  0.00    +0.000 OA
ATOM     21  C   UNL     1       2.646   1.126  -3.244  0.00  0.00    +0.000 A 
ATOM     22  H   UNL     1       3.760   3.941  -4.524  0.00  0.00    +0.000 HD
ENDBRANCH   9  12
ENDBRANCH   7  10
ENDBRANCH   1   7
BRANCH   4  23
ATOM     23  C   UNL     1       5.669   6.512   2.849  0.00  0.00    +0.000 C 
BRANCH  23  24
ATOM     24  C   UNL     1       5.244   6.987   4.251  0.00  0.00    +0.000 C 
BRANCH  24  25
ATOM     25  O   UNL     1       5.409   5.938   5.210  0.00  0.00    +0.000 OA
ATOM     26  H   UNL     1       6.350   5.694   5.229  0.00  0.00    +0.000 HD
ENDBRANCH  24  25
BRANCH  24  27
ATOM     27  C   UNL     1       6.067   8.199   4.717  0.00  0.00    +0.000 C 
BRANCH  27  28
ATOM     28  C   UNL     1       5.671   8.661   6.125  0.00  0.00    +0.000 C 
ATOM     29  C   UNL     1       4.226   9.118   6.244  0.00  0.00    +0.000 C 
ATOM     30  C   UNL     1       4.233   9.913   7.536  0.00  0.00    +0.000 C 
ATOM     31  C   UNL     1       5.655  10.450   7.648  0.00  0.00    +0.000 C 
ATOM     32  N   UNL     1       6.406   9.867   6.531  0.00  0.00    +0.000 NA
ATOM     33  H   UNL     1       7.353   9.633   6.825  0.00  0.00    +0.000 HD
ENDBRANCH  27  28
ENDBRANCH  24  27
ENDBRANCH  23  24
ENDBRANCH   4  23
TORSDOF 8
