REMARK  Name = 
REMARK  11 active torsions:
REMARK  status: ('A' for Active; 'I' for Inactive)
REMARK    1  A    between atoms: C_1  and  O_2
REMARK    2  A    between atoms: O_2  and  C_3
REMARK    3  A    between atoms: C_10  and  C_11
REMARK    4  A    between atoms: N_13  and  C_14
REMARK    5  A    between atoms: C_14  and  C_15
REMARK    6  A    between atoms: C_18  and  O_19
REMARK    7  A    between atoms: O_19  and  C_20
REMARK    8  A    between atoms: C_20  and  C_21
REMARK    9  A    between atoms: C_21  and  C_22
REMARK   10  A    between atoms: C_21  and  C_24
REMARK   11  A    between atoms: C_22  and  O_23
REMARK                            x       y       z     vdW  Elec       q    Type
REMARK                         _______ _______ _______ _____ _____    ______ ____
ROOT
ATOM      1  C   UNL     1       1.800   1.270   3.078  0.00  0.00    +0.000 A 
ATOM      2  C   UNL     1       0.457   0.890   2.959  0.00  0.00    +0.000 A 
ATOM      3  C   UNL     1      -0.551   1.852   2.815  0.00  0.00    +0.000 A 
ATOM      4  C   UNL     1      -0.230   3.209   2.788  0.00  0.00    +0.000 A 
ATOM      5  C   UNL     1       1.112   3.589   2.839  0.00  0.00    +0.000 A 
ATOM      6  C   UNL     1       2.121   2.630   2.984  0.00  0.00    +0.000 A 
ENDROOT
BRANCH   1   7
ATOM      7  C   UNL     1       2.880   0.235   3.273  0.00  0.00    +0.000 C 
BRANCH   7  10
ATOM      8  C   UNL     1       4.341  -1.220   1.929  0.00  0.00    +0.000 C 
ATOM      9  O   UNL     1       4.796  -1.753   2.934  0.00  0.00    +0.000 OA
ATOM     10  N   UNL     1       3.396  -0.232   2.011  0.00  0.00    +0.000 N 
ATOM     11  H   UNL     1       3.083   0.242   1.176  0.00  0.00    +0.000 HD
BRANCH   8  19
ATOM     12  C   UNL     1       3.382  -0.293  -1.244  0.00  0.00    +0.000 A 
ATOM     13  N   UNL     1       3.211  -0.109  -2.569  0.00  0.00    +0.000 NA
ATOM     14  C   UNL     1       3.977  -0.816  -3.403  0.00  0.00    +0.000 A 
ATOM     15  N   UNL     1       4.911  -1.704  -3.075  0.00  0.00    +0.000 NA
ATOM     16  C   UNL     1       5.055  -1.850  -1.747  0.00  0.00    +0.000 A 
ATOM     17  S   UNL     1       6.204  -2.944  -1.143  0.00  0.00    +0.000 S 
ATOM     18  C   UNL     1       5.794  -2.568   0.463  0.00  0.00    +0.000 A 
ATOM     19  C   UNL     1       4.786  -1.612   0.577  0.00  0.00    +0.000 A 
ATOM     20  C   UNL     1       4.347  -1.188  -0.749  0.00  0.00    +0.000 A 
BRANCH  12  22
ATOM     21  C   UNL     1       1.379   0.880  -0.957  0.00  0.00    +0.000 C 
ATOM     22  O   UNL     1       2.616   0.464  -0.384  0.00  0.00    +0.000 OA
ENDBRANCH  12  22
ENDBRANCH   8  19
ENDBRANCH   7  10
ENDBRANCH   1   7
BRANCH   4  23
ATOM     23  O   UNL     1      -1.124   4.240   2.685  0.00  0.00    +0.000 OA
BRANCH  23  24
ATOM     24  C   UNL     1      -2.454   3.982   3.154  0.00  0.00    +0.000 C 
BRANCH  24  25
ATOM     25  C   UNL     1      -3.370   5.214   2.974  0.00  0.00    +0.000 C 
BRANCH  25  26
ATOM     26  C   UNL     1      -3.695   5.497   1.509  0.00  0.00    +0.000 A 
ATOM     27  C   UNL     1      -5.018   5.425   1.048  0.00  0.00    +0.000 A 
ATOM     28  C   UNL     1      -5.327   5.726  -0.283  0.00  0.00    +0.000 A 
ATOM     29  C   UNL     1      -4.320   6.098  -1.169  0.00  0.00    +0.000 A 
ATOM     30  C   UNL     1      -3.001   6.160  -0.730  0.00  0.00    +0.000 A 
ATOM     31  C   UNL     1      -2.695   5.859   0.595  0.00  0.00    +0.000 A 
ENDBRANCH  25  26
BRANCH  25  32
ATOM     32  C   UNL     1      -2.853   6.468   3.709  0.00  0.00    +0.000 C 
BRANCH  32  33
ATOM     33  O   UNL     1      -1.572   6.920   3.284  0.00  0.00    +0.000 OA
ATOM     34  H   UNL     1      -1.026   6.130   3.109  0.00  0.00    +0.000 HD
ENDBRANCH  32  33
ENDBRANCH  25  32
ENDBRANCH  24  25
ENDBRANCH  23  24
ENDBRANCH   4  23
TORSDOF 10
