REMARK  Name = 
REMARK  5 active torsions:
REMARK  status: ('A' for Active; 'I' for Inactive)
REMARK    1  A    between atoms: N_1  and  C_2
REMARK    2  A    between atoms: C_2  and  C_3
REMARK    3  A    between atoms: C_7  and  S_8
REMARK    4  A    between atoms: S_8  and  C_9
REMARK    5  A    between atoms: C_9  and  C_10
REMARK                            x       y       z     vdW  Elec       q    Type
REMARK                         _______ _______ _______ _____ _____    ______ ____
ROOT
ATOM      1  C   UNL     1       2.443   1.514   1.246  0.00  0.00    +0.000 A 
ATOM      2  N   UNL     1       2.769   2.585   0.489  0.00  0.00    +0.000 NA
ATOM      3  C   UNL     1       3.829   3.303   0.897  0.00  0.00    +0.000 A 
ATOM      4  C   UNL     1       4.567   2.997   2.015  0.00  0.00    +0.000 A 
ATOM      5  C   UNL     1       4.163   1.883   2.717  0.00  0.00    +0.000 A 
ATOM      6  N   UNL     1       3.112   1.128   2.350  0.00  0.00    +0.000 NA
ENDROOT
BRANCH   1   7
ATOM      7  C   UNL     1       1.258   0.678   0.786  0.00  0.00    +0.000 C 
BRANCH   7   8
ATOM      8  N   UNL     1       0.001   1.442   0.687  0.00  0.00    +0.000 NA
ATOM      9  H   UNL     1      -0.674   0.893   0.160  0.00  0.00    +0.000 HD
ATOM     10  H   UNL     1       0.199   2.274   0.128  0.00  0.00    +0.000 HD
ENDBRANCH   7   8
ENDBRANCH   1   7
BRANCH   5  11
ATOM     11  S   UNL     1       5.104   1.291   4.112  0.00  0.00    +0.000 S 
BRANCH  11  12
ATOM     12  C   UNL     1       4.861   2.662   5.299  0.00  0.00    +0.000 C 
BRANCH  12  13
ATOM     13  C   UNL     1       5.530   2.376   6.663  0.00  0.00    +0.000 C 
ATOM     14  C   UNL     1       4.904   1.172   7.393  0.00  0.00    +0.000 C 
ATOM     15  C   UNL     1       5.521   0.952   8.774  0.00  0.00    +0.000 C 
ATOM     16  C   UNL     1       5.429   2.204   9.636  0.00  0.00    +0.000 C 
ATOM     17  C   UNL     1       6.062   3.401   8.938  0.00  0.00    +0.000 C 
ATOM     18  C   UNL     1       5.458   3.632   7.553  0.00  0.00    +0.000 C 
ENDBRANCH  12  13
ENDBRANCH  11  12
ENDBRANCH   5  11
TORSDOF 5
