REMARK  Name = 
REMARK  5 active torsions:
REMARK  status: ('A' for Active; 'I' for Inactive)
REMARK    1  A    between atoms: N_1  and  C_2
REMARK    2  A    between atoms: C_2  and  C_3
REMARK    3  A    between atoms: C_3  and  C_4
REMARK    4  A    between atoms: N_6  and  C_7
REMARK    5  A    between atoms: C_7  and  C_8
REMARK                            x       y       z     vdW  Elec       q    Type
REMARK                         _______ _______ _______ _____ _____    ______ ____
ROOT
ATOM      1  C   UNL     1       7.862  -0.498   1.862  0.00  0.00    +0.000 C 
ENDROOT
BRANCH   1   2
ATOM      2  C   UNL     1       7.539  -1.911   2.278  0.00  0.00    +0.000 A 
ATOM      3  N   UNL     1       7.477  -2.098   3.628  0.00  0.00    +0.000 NA
ATOM      4  C   UNL     1       7.145  -3.322   4.077  0.00  0.00    +0.000 A 
ATOM      5  C   UNL     1       6.864  -4.390   3.249  0.00  0.00    +0.000 A 
ATOM      6  C   UNL     1       6.936  -4.209   1.866  0.00  0.00    +0.000 A 
ATOM      7  C   UNL     1       6.654  -5.277   0.998  0.00  0.00    +0.000 A 
ATOM      8  C   UNL     1       6.732  -5.116  -0.384  0.00  0.00    +0.000 A 
ATOM      9  C   UNL     1       7.100  -3.887  -0.916  0.00  0.00    +0.000 A 
ATOM     10  C   UNL     1       7.374  -2.812  -0.066  0.00  0.00    +0.000 A 
ATOM     11  C   UNL     1       7.292  -2.945   1.342  0.00  0.00    +0.000 A 
ENDBRANCH   1   2
BRANCH   1  14
ATOM     12  C   UNL     1       5.213   1.704   0.823  0.00  0.00    +0.000 A 
ATOM     13  C   UNL     1       6.297   0.919   0.485  0.00  0.00    +0.000 A 
ATOM     14  N   UNL     1       6.661   0.291   1.645  0.00  0.00    +0.000 N 
ATOM     15  C   UNL     1       5.772   0.668   2.613  0.00  0.00    +0.000 A 
ATOM     16  N   UNL     1       4.891   1.526   2.149  0.00  0.00    +0.000 NA
BRANCH  12  17
ATOM     17  C   UNL     1       4.459   2.677  -0.015  0.00  0.00    +0.000 C 
BRANCH  17  18
ATOM     18  C   UNL     1       5.095   4.071   0.046  0.00  0.00    +0.000 C 
BRANCH  18  19
ATOM     19  N   UNL     1       4.381   5.040  -0.788  0.00  0.00    +0.000 NA
ATOM     20  H   UNL     1       4.812   5.957  -0.670  0.00  0.00    +0.000 HD
ATOM     21  H   UNL     1       3.427   5.139  -0.439  0.00  0.00    +0.000 HD
ENDBRANCH  18  19
ENDBRANCH  17  18
ENDBRANCH  12  17
ENDBRANCH   1  14
TORSDOF 5
