REMARK  Name = 
REMARK  5 active torsions:
REMARK  status: ('A' for Active; 'I' for Inactive)
REMARK    1  A    between atoms: C_1  and  C_2
REMARK    2  A    between atoms: C_2  and  O_3
REMARK    3  A    between atoms: C_2  and  C_13
REMARK    4  A    between atoms: O_3  and  C_4
REMARK    5  A    between atoms: C_7  and  C_8
REMARK                            x       y       z     vdW  Elec       q    Type
REMARK                         _______ _______ _______ _____ _____    ______ ____
ROOT
ATOM      1  C   UNL     1       2.618   1.481   2.100  0.00  0.00    +0.000 A 
ATOM      2  C   UNL     1       1.934   0.754   3.074  0.00  0.00    +0.000 A 
ATOM      3  C   UNL     1       1.572   1.371   4.270  0.00  0.00    +0.000 A 
ATOM      4  C   UNL     1       1.921   2.701   4.460  0.00  0.00    +0.000 A 
ATOM      5  N   UNL     1       2.605   3.444   3.543  0.00  0.00    +0.000 NA
ATOM      6  C   UNL     1       2.937   2.806   2.389  0.00  0.00    +0.000 A 
ENDROOT
BRANCH   4   7
ATOM      7  C   UNL     1       1.543   3.380   5.741  0.00  0.00    +0.000 C 
ATOM      8  N   UNL     1       1.943   4.684   5.861  0.00  0.00    +0.000 N 
ATOM      9  O   UNL     1       0.915   2.815   6.630  0.00  0.00    +0.000 OA
ATOM     10  H   UNL     1       2.467   5.121   5.112  0.00  0.00    +0.000 HD
ATOM     11  H   UNL     1       1.725   5.196   6.705  0.00  0.00    +0.000 HD
ENDBRANCH   4   7
BRANCH   1  12
ATOM     12  O   UNL     1       3.042   0.966   0.898  0.00  0.00    +0.000 OA
BRANCH  12  14
ATOM     13  C   UNL     1       0.973   0.114  -0.170  0.00  0.00    +0.000 C 
ATOM     14  C   UNL     1       2.341  -0.109   0.378  0.00  0.00    +0.000 C 
BRANCH  14  15
ATOM     15  C   UNL     1       2.988  -1.423   0.372  0.00  0.00    +0.000 A 
ATOM     16  C   UNL     1       4.365  -1.558   0.149  0.00  0.00    +0.000 A 
ATOM     17  C   UNL     1       4.961  -2.824   0.127  0.00  0.00    +0.000 A 
ATOM     18  C   UNL     1       4.189  -3.964   0.347  0.00  0.00    +0.000 A 
ATOM     19  C   UNL     1       2.825  -3.835   0.587  0.00  0.00    +0.000 A 
ATOM     20 CL   UNL     1       1.868  -5.234   0.881  0.00  0.00    +0.000 Cl
ATOM     21  C   UNL     1       2.224  -2.577   0.595  0.00  0.00    +0.000 A 
ENDBRANCH  14  15
ENDBRANCH  12  14
ENDBRANCH   1  12
TORSDOF 4
