REMARK  Name = 
REMARK  5 active torsions:
REMARK  status: ('A' for Active; 'I' for Inactive)
REMARK    1  A    between atoms: C_2  and  C_4
REMARK    2  A    between atoms: C_7  and  C_8
REMARK    3  A    between atoms: C_8  and  N_9
REMARK    4  A    between atoms: C_11  and  C_12
REMARK    5  A    between atoms: C_12  and  O_13
REMARK                            x       y       z     vdW  Elec       q    Type
REMARK                         _______ _______ _______ _____ _____    ______ ____
ROOT
ATOM      1  C   UNL     1       5.023   3.882  -3.259  0.00  0.00    +0.000 C 
ENDROOT
BRANCH   1   2
ATOM      2  N   UNL     1       4.432   5.213  -3.159  0.00  0.00    +0.000 N 
ATOM      3  C   UNL     1       4.801   6.160  -2.230  0.00  0.00    +0.000 A 
ATOM      4  C   UNL     1       4.189   7.361  -2.551  0.00  0.00    +0.000 A 
ATOM      5  C   UNL     1       3.434   7.122  -3.730  0.00  0.00    +0.000 A 
ATOM      6  N   UNL     1       2.706   8.007  -4.455  0.00  0.00    +0.000 NA
ATOM      7  C   UNL     1       2.138   7.500  -5.567  0.00  0.00    +0.000 A 
ATOM      8  C   UNL     1       2.222   6.181  -5.985  0.00  0.00    +0.000 A 
ATOM      9  C   UNL     1       2.954   5.273  -5.227  0.00  0.00    +0.000 A 
ATOM     10  C   UNL     1       3.582   5.781  -4.086  0.00  0.00    +0.000 A 
BRANCH   4  11
ATOM     11  C   UNL     1       4.326   8.674  -1.864  0.00  0.00    +0.000 C 
BRANCH  11  12
ATOM     12  O   UNL     1       4.598   8.529  -0.471  0.00  0.00    +0.000 OA
ATOM     13  H   UNL     1       3.873   7.987  -0.117  0.00  0.00    +0.000 HD
ENDBRANCH  11  12
ENDBRANCH   4  11
ENDBRANCH   1   2
BRANCH   1  17
ATOM     14  C   UNL     1       2.970   0.940  -0.846  0.00  0.00    +0.000 A 
ATOM     15  C   UNL     1       2.573   1.157  -2.171  0.00  0.00    +0.000 A 
ATOM     16  C   UNL     1       3.241   2.101  -2.957  0.00  0.00    +0.000 A 
ATOM     17  C   UNL     1       4.298   2.855  -2.425  0.00  0.00    +0.000 A 
ATOM     18  C   UNL     1       4.677   2.639  -1.091  0.00  0.00    +0.000 A 
ATOM     19  C   UNL     1       4.016   1.691  -0.305  0.00  0.00    +0.000 A 
BRANCH  14  21
ATOM     20  N   UNL     1       1.742  -1.148  -0.632  0.00  0.00    +0.000 N 
ATOM     21  C   UNL     1       2.290  -0.068   0.008  0.00  0.00    +0.000 C 
ATOM     22  O   UNL     1       2.252   0.037   1.225  0.00  0.00    +0.000 OA
ATOM     23  H   UNL     1       1.369  -1.878  -0.040  0.00  0.00    +0.000 HD
ATOM     24  H   UNL     1       1.972  -1.386  -1.583  0.00  0.00    +0.000 HD
ENDBRANCH  14  21
ENDBRANCH   1  17
TORSDOF 5
