REMARK  Name = 
REMARK  4 active torsions:
REMARK  status: ('A' for Active; 'I' for Inactive)
REMARK    1  A    between atoms: C_2  and  C_3
REMARK    2  A    between atoms: N_7  and  C_8
REMARK    3  A    between atoms: C_8  and  C_9
REMARK    4  A    between atoms: C_20  and  N_21
REMARK                            x       y       z     vdW  Elec       q    Type
REMARK                         _______ _______ _______ _____ _____    ______ ____
ROOT
ATOM      1  C   UNL     1       5.803   1.625  -3.602  0.00  0.00    +0.000 A 
ATOM      2  C   UNL     1       7.050   1.049  -3.618  0.00  0.00    +0.000 A 
ATOM      3  N   UNL     1       7.615   0.457  -2.543  0.00  0.00    +0.000 NA
ATOM      4  C   UNL     1       6.902   0.457  -1.407  0.00  0.00    +0.000 A 
ATOM      5  N   UNL     1       7.346  -0.201  -0.267  0.00  0.00    +0.000 N 
ATOM      6  N   UNL     1       5.690   1.022  -1.297  0.00  0.00    +0.000 NA
ATOM      7  C   UNL     1       5.144   1.577  -2.390  0.00  0.00    +0.000 A 
ATOM      8  H   UNL     1       6.802   0.085   0.534  0.00  0.00    +0.000 HD
ENDROOT
BRANCH   5   9
ATOM      9  C   UNL     1       8.667  -0.808  -0.130  0.00  0.00    +0.000 C 
ATOM     10  C   UNL     1       9.064  -1.917  -1.084  0.00  0.00    +0.000 C 
ATOM     11  C   UNL     1       8.715  -2.259   0.328  0.00  0.00    +0.000 C 
BRANCH   9  12
ATOM     12  C   UNL     1       9.698   0.133   0.484  0.00  0.00    +0.000 A 
ATOM     13  C   UNL     1      10.702   0.748  -0.280  0.00  0.00    +0.000 A 
ATOM     14  C   UNL     1      11.544   1.724   0.269  0.00  0.00    +0.000 A 
ATOM     15  C   UNL     1      11.397   2.110   1.603  0.00  0.00    +0.000 A 
ATOM     16 CL   UNL     1      12.399   3.389   2.190  0.00  0.00    +0.000 Cl
ATOM     17  C   UNL     1      10.441   1.479   2.399  0.00  0.00    +0.000 A 
ATOM     18 CL   UNL     1      10.196   1.892   4.060  0.00  0.00    +0.000 Cl
ATOM     19  C   UNL     1       9.613   0.495   1.844  0.00  0.00    +0.000 A 
ENDBRANCH   9  12
ENDBRANCH   5   9
BRANCH   7  20
ATOM     20  N   UNL     1       3.883   2.135  -2.190  0.00  0.00    +0.000 N 
ATOM     21  H   UNL     1       3.595   1.922  -1.235  0.00  0.00    +0.000 HD
ATOM     22  H   UNL     1       3.188   1.832  -2.864  0.00  0.00    +0.000 HD
ENDBRANCH   7  20
BRANCH   1  24
ATOM     23  N   UNL     1       4.787   2.644  -5.747  0.00  0.00    +0.000 NA
ATOM     24  C   UNL     1       5.242   2.205  -4.776  0.00  0.00    +0.000 C 
ENDBRANCH   1  24
TORSDOF 4
