REMARK  Name = 
REMARK  9 active torsions:
REMARK  status: ('A' for Active; 'I' for Inactive)
REMARK    1  A    between atoms: C_1  and  C_2
REMARK    2  A    between atoms: C_2  and  N_3
REMARK    3  A    between atoms: C_2  and  C_18
REMARK    4  A    between atoms: C_4  and  C_6
REMARK    5  A    between atoms: C_9  and  C_10
REMARK    6  A    between atoms: C_10  and  C_11
REMARK    7  A    between atoms: C_11  and  O_12
REMARK    8  A    between atoms: C_11  and  C_13
REMARK    9  A    between atoms: C_13  and  O_15
REMARK                            x       y       z     vdW  Elec       q    Type
REMARK                         _______ _______ _______ _____ _____    ______ ____
ROOT
ATOM      1  N   UNL     1       0.974  -0.095  -0.020  0.00  0.00    +0.000 N 
ATOM      2  C   UNL     1       0.242  -0.931   0.801  0.00  0.00    +0.000 C 
ATOM      3  O   UNL     1       0.746  -1.608   1.688  0.00  0.00    +0.000 OA
ATOM      4  H   UNL     1       0.508   0.606  -0.588  0.00  0.00    +0.000 HD
ENDROOT
BRANCH   2   5
ATOM      5  C   UNL     1      -1.234  -0.986   0.591  0.00  0.00    +0.000 A 
ATOM      6  C   UNL     1      -1.840  -0.777  -0.653  0.00  0.00    +0.000 A 
ATOM      7  C   UNL     1      -3.236  -0.876  -0.785  0.00  0.00    +0.000 A 
ATOM      8  C   UNL     1      -4.042  -1.193   0.321  0.00  0.00    +0.000 A 
ATOM      9  C   UNL     1      -3.421  -1.421   1.556  0.00  0.00    +0.000 A 
ATOM     10  C   UNL     1      -2.033  -1.325   1.688  0.00  0.00    +0.000 A 
BRANCH   8  11
ATOM     11  C   UNL     1      -5.554  -1.236   0.231  0.00  0.00    +0.000 C 
BRANCH  11  12
ATOM     12  C   UNL     1      -6.123  -2.270  -0.747  0.00  0.00    +0.000 C 
BRANCH  12  13
ATOM     13  O   UNL     1      -5.742  -3.617  -0.406  0.00  0.00    +0.000 OA
ATOM     14  H   UNL     1      -5.731  -3.682   0.568  0.00  0.00    +0.000 HD
ENDBRANCH  12  13
BRANCH  12  15
ATOM     15  C   UNL     1      -7.654  -2.235  -0.743  0.00  0.00    +0.000 C 
ATOM     16  O   UNL     1      -8.345  -1.247  -0.552  0.00  0.00    +0.000 OA
BRANCH  15  17
ATOM     17  O   UNL     1      -8.175  -3.466  -0.995  0.00  0.00    +0.000 OA
ATOM     18  H   UNL     1      -7.429  -4.105  -1.085  0.00  0.00    +0.000 HD
ENDBRANCH  15  17
ENDBRANCH  12  15
ENDBRANCH  11  12
ENDBRANCH   8  11
ENDBRANCH   2   5
BRANCH   1  20
ATOM     19  C   UNL     1       3.116   0.172  -1.209  0.00  0.00    +0.000 C 
ATOM     20  C   UNL     1       2.412   0.032   0.140  0.00  0.00    +0.000 C 
BRANCH  20  21
ATOM     21  C   UNL     1       2.733   1.165   1.094  0.00  0.00    +0.000 A 
ATOM     22  C   UNL     1       3.492   0.988   2.241  0.00  0.00    +0.000 A 
ATOM     23  S   UNL     1       3.770   2.434   3.105  0.00  0.00    +0.000 S 
ATOM     24  C   UNL     1       2.837   3.338   2.007  0.00  0.00    +0.000 A 
ATOM     25  N   UNL     1       2.643   4.673   2.181  0.00  0.00    +0.000 NA
ATOM     26  C   UNL     1       1.890   5.220   1.286  0.00  0.00    +0.000 A 
ATOM     27  N   UNL     1       1.322   4.557   0.228  0.00  0.00    +0.000 N 
ATOM     28  C   UNL     1       1.485   3.207   0.010  0.00  0.00    +0.000 A 
ATOM     29  O   UNL     1       0.933   2.631  -0.925  0.00  0.00    +0.000 OA
ATOM     30  C   UNL     1       2.329   2.549   0.991  0.00  0.00    +0.000 A 
ATOM     31  H   UNL     1       0.730   5.048  -0.427  0.00  0.00    +0.000 HD
ENDBRANCH  20  21
ENDBRANCH   1  20
TORSDOF 8
