REMARK  Name = 
REMARK  6 active torsions:
REMARK  status: ('A' for Active; 'I' for Inactive)
REMARK    1  A    between atoms: C_1  and  C_2
REMARK    2  A    between atoms: C_2  and  N_3
REMARK    3  A    between atoms: C_2  and  C_16
REMARK    4  A    between atoms: C_4  and  C_6
REMARK    5  A    between atoms: C_19  and  C_20
REMARK    6  A    between atoms: C_20  and  N_21
REMARK                            x       y       z     vdW  Elec       q    Type
REMARK                         _______ _______ _______ _____ _____    ______ ____
ROOT
ATOM      1  C   UNL     1       1.371   1.044   0.819  0.00  0.00    +0.000 C 
ATOM      2  C   UNL     1       2.379   0.124   0.121  0.00  0.00    +0.000 C 
ENDROOT
BRANCH   2   3
ATOM      3  C   UNL     1       2.905  -0.910   1.127  0.00  0.00    +0.000 A 
ATOM      4  C   UNL     1       3.603  -0.519   2.273  0.00  0.00    +0.000 A 
ATOM      5  C   UNL     1       3.953  -1.478   3.230  0.00  0.00    +0.000 A 
ATOM      6  C   UNL     1       3.607  -2.816   3.037  0.00  0.00    +0.000 A 
ATOM      7  C   UNL     1       2.958  -3.122   1.845  0.00  0.00    +0.000 A 
ATOM      8  N   UNL     1       2.605  -2.214   0.899  0.00  0.00    +0.000 NA
BRANCH   6   9
ATOM      9  C   UNL     1       3.888  -3.879   4.066  0.00  0.00    +0.000 C 
BRANCH   9  10
ATOM     10  N   UNL     1       5.160  -4.537   3.854  0.00  0.00    +0.000 N 
ATOM     11  C   UNL     1       5.557  -5.536   4.710  0.00  0.00    +0.000 C 
ATOM     12  O   UNL     1       4.880  -5.877   5.674  0.00  0.00    +0.000 OA
ATOM     13  N   UNL     1       6.767  -6.133   4.379  0.00  0.00    +0.000 N 
ATOM     14  C   UNL     1       7.215  -7.314   5.118  0.00  0.00    +0.000 C 
ATOM     15  C   UNL     1       8.482  -7.019   5.920  0.00  0.00    +0.000 C 
ATOM     16  C   UNL     1       9.571  -6.419   5.030  0.00  0.00    +0.000 C 
ATOM     17  C   UNL     1       9.044  -5.210   4.260  0.00  0.00    +0.000 C 
ATOM     18  C   UNL     1       7.771  -5.553   3.487  0.00  0.00    +0.000 C 
ATOM     19  H   UNL     1       5.393  -4.724   2.891  0.00  0.00    +0.000 HD
ENDBRANCH   9  10
ENDBRANCH   6   9
ENDBRANCH   2   3
BRANCH   2  20
ATOM     20  N   UNL     1       3.467   0.872  -0.505  0.00  0.00    +0.000 N 
ATOM     21  C   UNL     1       3.262   1.817  -1.488  0.00  0.00    +0.000 C 
ATOM     22  O   UNL     1       2.148   2.154  -1.870  0.00  0.00    +0.000 OA
ATOM     23  H   UNL     1       4.361   0.387  -0.519  0.00  0.00    +0.000 HD
BRANCH  21  24
ATOM     24  C   UNL     1       4.469   2.467  -2.018  0.00  0.00    +0.000 A 
ATOM     25  C   UNL     1       4.399   3.758  -2.522  0.00  0.00    +0.000 A 
ATOM     26  S   UNL     1       5.898   4.360  -3.076  0.00  0.00    +0.000 S 
ATOM     27  C   UNL     1       6.683   2.896  -2.711  0.00  0.00    +0.000 A 
ATOM     28  N   UNL     1       8.002   2.717  -2.985  0.00  0.00    +0.000 NA
ATOM     29  C   UNL     1       8.456   1.546  -2.688  0.00  0.00    +0.000 A 
ATOM     30  N   UNL     1       7.712   0.540  -2.123  0.00  0.00    +0.000 N 
ATOM     31  C   UNL     1       6.392   0.696  -1.777  0.00  0.00    +0.000 A 
ATOM     32  O   UNL     1       5.780  -0.188  -1.188  0.00  0.00    +0.000 OA
ATOM     33  C   UNL     1       5.822   1.978  -2.135  0.00  0.00    +0.000 A 
ATOM     34  H   UNL     1       8.132  -0.346  -1.888  0.00  0.00    +0.000 HD
ENDBRANCH  21  24
ENDBRANCH   2  20
TORSDOF 5
