REMARK  Name = 
REMARK  9 active torsions:
REMARK  status: ('A' for Active; 'I' for Inactive)
REMARK    1  A    between atoms: C_1  and  O_2
REMARK    2  A    between atoms: O_2  and  C_3
REMARK    3  A    between atoms: C_10  and  C_11
REMARK    4  A    between atoms: N_13  and  C_14
REMARK    5  A    between atoms: C_14  and  C_15
REMARK    6  A    between atoms: C_18  and  C_19
REMARK    7  A    between atoms: C_19  and  S_20
REMARK    8  A    between atoms: S_20  and  C_21
REMARK    9  A    between atoms: C_21  and  C_22
REMARK                            x       y       z     vdW  Elec       q    Type
REMARK                         _______ _______ _______ _____ _____    ______ ____
ROOT
ATOM      1  C   UNL     1       2.501   3.220  -1.026  0.00  0.00    +0.000 C 
ENDROOT
BRANCH   1   2
ATOM      2  C   UNL     1       1.293   2.697  -1.763  0.00  0.00    +0.000 A 
ATOM      3  C   UNL     1       1.262   1.377  -2.230  0.00  0.00    +0.000 A 
ATOM      4  C   UNL     1       0.116   0.864  -2.847  0.00  0.00    +0.000 A 
ATOM      5  C   UNL     1      -1.034   1.653  -3.007  0.00  0.00    +0.000 A 
ATOM      6  C   UNL     1      -0.976   2.995  -2.604  0.00  0.00    +0.000 A 
ATOM      7  C   UNL     1       0.177   3.512  -1.994  0.00  0.00    +0.000 A 
BRANCH   5   8
ATOM      8  C   UNL     1      -2.306   1.059  -3.579  0.00  0.00    +0.000 C 
BRANCH   8   9
ATOM      9  S   UNL     1      -2.915  -0.315  -2.538  0.00  0.00    +0.000 S 
BRANCH   9  10
ATOM     10  C   UNL     1      -4.422  -0.783  -3.461  0.00  0.00    +0.000 C 
BRANCH  10  11
ATOM     11  C   UNL     1      -5.164  -1.932  -2.805  0.00  0.00    +0.000 A 
ATOM     12  C   UNL     1      -5.615  -1.831  -1.487  0.00  0.00    +0.000 A 
ATOM     13  C   UNL     1      -6.286  -2.906  -0.910  0.00  0.00    +0.000 A 
ATOM     14  C   UNL     1      -6.507  -4.051  -1.662  0.00  0.00    +0.000 A 
ATOM     15  C   UNL     1      -6.048  -4.070  -2.968  0.00  0.00    +0.000 A 
ATOM     16  N   UNL     1      -5.390  -3.042  -3.555  0.00  0.00    +0.000 NA
ENDBRANCH  10  11
ENDBRANCH   9  10
ENDBRANCH   8   9
ENDBRANCH   5   8
ENDBRANCH   1   2
BRANCH   1  19
ATOM     17  C   UNL     1       4.661   4.305  -1.492  0.00  0.00    +0.000 C 
ATOM     18  O   UNL     1       4.985   4.246  -0.307  0.00  0.00    +0.000 OA
ATOM     19  N   UNL     1       3.453   3.826  -1.922  0.00  0.00    +0.000 N 
ATOM     20  H   UNL     1       3.189   3.912  -2.892  0.00  0.00    +0.000 HD
BRANCH  17  28
ATOM     21  C   UNL     1       4.468   4.654  -4.907  0.00  0.00    +0.000 A 
ATOM     22  N   UNL     1       4.624   4.950  -6.212  0.00  0.00    +0.000 NA
ATOM     23  C   UNL     1       5.734   5.598  -6.576  0.00  0.00    +0.000 A 
ATOM     24  N   UNL     1       6.728   5.994  -5.786  0.00  0.00    +0.000 NA
ATOM     25  C   UNL     1       6.525   5.690  -4.493  0.00  0.00    +0.000 A 
ATOM     26  S   UNL     1       7.695   6.110  -3.337  0.00  0.00    +0.000 S 
ATOM     27  C   UNL     1       6.764   5.446  -2.080  0.00  0.00    +0.000 A 
ATOM     28  C   UNL     1       5.555   4.902  -2.501  0.00  0.00    +0.000 A 
ATOM     29  C   UNL     1       5.424   5.036  -3.950  0.00  0.00    +0.000 A 
BRANCH  21  31
ATOM     30  C   UNL     1       2.737   3.220  -5.564  0.00  0.00    +0.000 C 
ATOM     31  O   UNL     1       3.318   3.999  -4.523  0.00  0.00    +0.000 OA
ENDBRANCH  21  31
ENDBRANCH  17  28
ENDBRANCH   1  19
TORSDOF 8
