REMARK  Name = 
REMARK  8 active torsions:
REMARK  status: ('A' for Active; 'I' for Inactive)
REMARK    1  A    between atoms: C_1  and  C_2
REMARK    2  A    between atoms: C_2  and  N_3
REMARK    3  A    between atoms: C_2  and  C_16
REMARK    4  A    between atoms: C_4  and  C_6
REMARK    5  A    between atoms: C_19  and  C_20
REMARK    6  A    between atoms: C_20  and  N_21
REMARK    7  A    between atoms: N_21  and  C_22
REMARK    8  A    between atoms: C_22  and  C_23
REMARK                            x       y       z     vdW  Elec       q    Type
REMARK                         _______ _______ _______ _____ _____    ______ ____
ROOT
ATOM      1  C   UNL     1       1.119  -0.674  -0.630  0.00  0.00    +0.000 C 
ATOM      2  C   UNL     1       2.376  -0.039  -0.025  0.00  0.00    +0.000 C 
ENDROOT
BRANCH   2   3
ATOM      3  C   UNL     1       2.911   1.046  -0.951  0.00  0.00    +0.000 A 
ATOM      4  C   UNL     1       2.434   2.356  -0.780  0.00  0.00    +0.000 A 
ATOM      5  C   UNL     1       2.798   3.381  -1.658  0.00  0.00    +0.000 A 
ATOM      6  C   UNL     1       3.671   3.133  -2.724  0.00  0.00    +0.000 A 
ATOM      7  C   UNL     1       4.183   1.840  -2.878  0.00  0.00    +0.000 A 
ATOM      8  C   UNL     1       3.796   0.807  -2.013  0.00  0.00    +0.000 A 
BRANCH   6   9
ATOM      9  C   UNL     1       4.008   4.225  -3.715  0.00  0.00    +0.000 C 
BRANCH   9  10
ATOM     10  N   UNL     1       4.632   5.370  -3.055  0.00  0.00    +0.000 NA
ATOM     11  H   UNL     1       5.487   5.052  -2.598  0.00  0.00    +0.000 HD
BRANCH  10  12
ATOM     12  C   UNL     1       4.981   6.425  -4.014  0.00  0.00    +0.000 C 
BRANCH  12  13
ATOM     13  C   UNL     1       5.626   7.609  -3.327  0.00  0.00    +0.000 A 
ATOM     14  C   UNL     1       4.937   8.307  -2.338  0.00  0.00    +0.000 A 
ATOM     15  N   UNL     1       5.462   9.367  -1.677  0.00  0.00    +0.000 NA
ATOM     16  C   UNL     1       6.717   9.704  -2.041  0.00  0.00    +0.000 A 
ATOM     17  C   UNL     1       7.414   9.019  -3.023  0.00  0.00    +0.000 A 
ATOM     18  N   UNL     1       6.890   7.962  -3.687  0.00  0.00    +0.000 NA
ENDBRANCH  12  13
ENDBRANCH  10  12
ENDBRANCH   9  10
ENDBRANCH   6   9
ENDBRANCH   2   3
BRANCH   2  19
ATOM     19  N   UNL     1       3.357  -1.053   0.306  0.00  0.00    +0.000 N 
ATOM     20  C   UNL     1       3.322  -1.760   1.479  0.00  0.00    +0.000 C 
ATOM     21  O   UNL     1       2.484  -1.555   2.352  0.00  0.00    +0.000 OA
ATOM     22  H   UNL     1       4.140  -1.174  -0.324  0.00  0.00    +0.000 HD
BRANCH  20  23
ATOM     23  C   UNL     1       4.322  -2.826   1.619  0.00  0.00    +0.000 A 
ATOM     24  C   UNL     1       4.082  -3.896   2.473  0.00  0.00    +0.000 A 
ATOM     25  S   UNL     1       5.347  -5.041   2.502  0.00  0.00    +0.000 S 
ATOM     26  C   UNL     1       6.275  -4.125   1.410  0.00  0.00    +0.000 A 
ATOM     27  N   UNL     1       7.517  -4.530   1.030  0.00  0.00    +0.000 NA
ATOM     28  C   UNL     1       8.123  -3.717   0.230  0.00  0.00    +0.000 A 
ATOM     29  N   UNL     1       7.598  -2.544  -0.237  0.00  0.00    +0.000 N 
ATOM     30  C   UNL     1       6.322  -2.132   0.060  0.00  0.00    +0.000 A 
ATOM     31  O   UNL     1       5.839  -1.147  -0.485  0.00  0.00    +0.000 OA
ATOM     32  C   UNL     1       5.616  -2.980   1.000  0.00  0.00    +0.000 A 
ATOM     33  H   UNL     1       8.102  -1.969  -0.897  0.00  0.00    +0.000 HD
ENDBRANCH  20  23
ENDBRANCH   2  19
TORSDOF 7
