REMARK  Name = 
REMARK  4 active torsions:
REMARK  status: ('A' for Active; 'I' for Inactive)
REMARK    1  A    between atoms: C_2  and  C_3
REMARK    2  A    between atoms: N_7  and  C_8
REMARK    3  A    between atoms: C_8  and  C_9
REMARK    4  A    between atoms: C_9  and  C_11
REMARK                            x       y       z     vdW  Elec       q    Type
REMARK                         _______ _______ _______ _____ _____    ______ ____
ROOT
ATOM      1  C   UNL     1       0.313   0.151  -1.537  0.00  0.00    +0.000 A 
ATOM      2  C   UNL     1      -0.460  -0.980  -1.777  0.00  0.00    +0.000 A 
ATOM      3  C   UNL     1      -1.786  -0.995  -1.343  0.00  0.00    +0.000 A 
ATOM      4  C   UNL     1      -2.327   0.126  -0.708  0.00  0.00    +0.000 A 
ATOM      5  N   UNL     1      -3.668   0.074  -0.333  0.00  0.00    +0.000 N 
ATOM      6  N   UNL     1      -1.589   1.233  -0.495  0.00  0.00    +0.000 NA
ATOM      7  C   UNL     1      -0.295   1.221  -0.900  0.00  0.00    +0.000 A 
ATOM      8  H   UNL     1      -3.835  -0.603   0.411  0.00  0.00    +0.000 HD
ENDROOT
BRANCH   1  10
ATOM      9  N   UNL     1       2.813   0.239  -2.209  0.00  0.00    +0.000 NA
ATOM     10  C   UNL     1       1.687   0.203  -1.913  0.00  0.00    +0.000 C 
ENDBRANCH   1  10
BRANCH   5  11
ATOM     11  C   UNL     1      -4.362   1.360  -0.152  0.00  0.00    +0.000 C 
BRANCH  11  12
ATOM     12  C   UNL     1      -5.885   1.160  -0.258  0.00  0.00    +0.000 C 
ATOM     13  F   UNL     1      -6.276   0.323   0.761  0.00  0.00    +0.000 F 
BRANCH  12  14
ATOM     14  C   UNL     1      -6.624   2.484  -0.242  0.00  0.00    +0.000 A 
ATOM     15  C   UNL     1      -7.567   2.745   0.749  0.00  0.00    +0.000 A 
ATOM     16  C   UNL     1      -8.242   3.962   0.741  0.00  0.00    +0.000 A 
ATOM     17  C   UNL     1      -7.962   4.891  -0.255  0.00  0.00    +0.000 A 
ATOM     18  C   UNL     1      -7.015   4.559  -1.205  0.00  0.00    +0.000 A 
ATOM     19  N   UNL     1      -6.350   3.382  -1.227  0.00  0.00    +0.000 NA
ENDBRANCH  12  14
ENDBRANCH  11  12
ENDBRANCH   5  11
TORSDOF 4
