REMARK  Name = 
REMARK  9 active torsions:
REMARK  status: ('A' for Active; 'I' for Inactive)
REMARK    1  A    between atoms: C_1  and  C_2
REMARK    2  A    between atoms: C_2  and  C_3
REMARK    3  A    between atoms: C_2  and  C_4
REMARK    4  A    between atoms: C_2  and  C_17
REMARK    5  A    between atoms: C_4  and  O_5
REMARK    6  A    between atoms: O_5  and  C_6
REMARK    7  A    between atoms: C_10  and  O_11
REMARK    8  A    between atoms: O_11  and  C_12
REMARK    9  A    between atoms: C_20  and  C_21
REMARK                            x       y       z     vdW  Elec       q    Type
REMARK                         _______ _______ _______ _____ _____    ______ ____
ROOT
ATOM      1  C   UNL     1       0.934  -0.083  -0.058  0.00  0.00    +0.000 C 
ATOM      2  C   UNL     1       2.478  -0.116  -0.009  0.00  0.00    +0.000 C 
ATOM      3  C   UNL     1       3.026  -0.255  -1.449  0.00  0.00    +0.000 C 
ENDROOT
BRANCH   2   4
ATOM      4  C   UNL     1       2.943  -1.316   0.831  0.00  0.00    +0.000 A 
ATOM      5  C   UNL     1       3.749  -1.194   1.974  0.00  0.00    +0.000 A 
ATOM      6  C   UNL     1       4.075  -2.313   2.737  0.00  0.00    +0.000 A 
ATOM      7  C   UNL     1       3.598  -3.546   2.328  0.00  0.00    +0.000 A 
ATOM      8  N   UNL     1       2.850  -3.731   1.208  0.00  0.00    +0.000 NA
ATOM      9  C   UNL     1       2.550  -2.617   0.499  0.00  0.00    +0.000 A 
BRANCH   7  10
ATOM     10  C   UNL     1       3.874  -4.761   3.157  0.00  0.00    +0.000 C 
ATOM     11  N   UNL     1       3.348  -5.928   2.672  0.00  0.00    +0.000 N 
ATOM     12  O   UNL     1       4.509  -4.723   4.203  0.00  0.00    +0.000 OA
ATOM     13  H   UNL     1       2.800  -5.907   1.819  0.00  0.00    +0.000 HD
ATOM     14  H   UNL     1       3.455  -6.782   3.198  0.00  0.00    +0.000 HD
ENDBRANCH   7  10
ENDBRANCH   2   4
BRANCH   2  15
ATOM     15  C   UNL     1       2.976   1.258   0.514  0.00  0.00    +0.000 C 
BRANCH  15  16
ATOM     16  O   UNL     1       2.433   1.560   1.809  0.00  0.00    +0.000 OA
BRANCH  16  17
ATOM     17  C   UNL     1       2.961   2.726   2.331  0.00  0.00    +0.000 A 
ATOM     18  C   UNL     1       2.564   3.088   3.607  0.00  0.00    +0.000 A 
ATOM     19  C   UNL     1       3.072   4.272   4.138  0.00  0.00    +0.000 A 
ATOM     20  C   UNL     1       3.949   5.041   3.375  0.00  0.00    +0.000 A 
ATOM     21  C   UNL     1       4.299   4.573   2.121  0.00  0.00    +0.000 A 
ATOM     22  N   UNL     1       3.825   3.438   1.584  0.00  0.00    +0.000 NA
BRANCH  21  23
ATOM     23  O   UNL     1       5.182   5.317   1.368  0.00  0.00    +0.000 OA
BRANCH  23  24
ATOM     24  C   UNL     1       5.967   4.549   0.421  0.00  0.00    +0.000 C 
ATOM     25  C   UNL     1       6.837   5.366  -0.540  0.00  0.00    +0.000 C 
ATOM     26  O   UNL     1       6.362   4.612  -1.684  0.00  0.00    +0.000 OA
ATOM     27  C   UNL     1       5.306   4.041  -0.870  0.00  0.00    +0.000 C 
ENDBRANCH  23  24
ENDBRANCH  21  23
ENDBRANCH  16  17
ENDBRANCH  15  16
ENDBRANCH   2  15
TORSDOF 7
