REMARK  Name = 
REMARK  6 active torsions:
REMARK  status: ('A' for Active; 'I' for Inactive)
REMARK    1  A    between atoms: N_1  and  C_2
REMARK    2  A    between atoms: C_2  and  C_3
REMARK    3  A    between atoms: C_3  and  C_4
REMARK    4  A    between atoms: C_7  and  C_8
REMARK    5  A    between atoms: C_8  and  N_9
REMARK    6  A    between atoms: C_14  and  C_15
REMARK                            x       y       z     vdW  Elec       q    Type
REMARK                         _______ _______ _______ _____ _____    ______ ____
ROOT
ATOM      1  N   UNL     1       9.490   1.990   1.333  0.00  0.00    +0.000 N 
ATOM      2  N   UNL     1       9.809   2.386   2.585  0.00  0.00    +0.000 NA
ATOM      3  N   UNL     1       9.687   3.704   2.618  0.00  0.00    +0.000 NA
ATOM      4  C   UNL     1       9.413   4.135   1.348  0.00  0.00    +0.000 A 
ATOM      5  C   UNL     1       9.083   5.404   0.865  0.00  0.00    +0.000 A 
ATOM      6  C   UNL     1       8.871   5.577  -0.514  0.00  0.00    +0.000 A 
ATOM      7  C   UNL     1       9.049   4.491  -1.392  0.00  0.00    +0.000 A 
ATOM      8  C   UNL     1       9.334   3.200  -0.917  0.00  0.00    +0.000 A 
ATOM      9  C   UNL     1       9.457   3.062   0.469  0.00  0.00    +0.000 A 
ENDROOT
BRANCH   6  10
ATOM     10  C   UNL     1       8.418   6.929  -0.955  0.00  0.00    +0.000 C 
ATOM     11  N   UNL     1       8.237   7.160  -2.293  0.00  0.00    +0.000 N 
ATOM     12  O   UNL     1       8.191   7.822  -0.150  0.00  0.00    +0.000 OA
ATOM     13  H   UNL     1       8.420   6.507  -3.034  0.00  0.00    +0.000 HD
ATOM     14  H   UNL     1       7.918   8.090  -2.542  0.00  0.00    +0.000 HD
ENDBRANCH   6  10
BRANCH   1  15
ATOM     15  C   UNL     1       8.807   0.716   1.154  0.00  0.00    +0.000 C 
BRANCH  15  19
ATOM     16  C   UNL     1       4.532   1.474   1.390  0.00  0.00    +0.000 A 
ATOM     17  C   UNL     1       5.157   1.303   0.149  0.00  0.00    +0.000 A 
ATOM     18  C   UNL     1       6.528   1.028   0.069  0.00  0.00    +0.000 A 
ATOM     19  C   UNL     1       7.304   0.911   1.231  0.00  0.00    +0.000 A 
ATOM     20  C   UNL     1       6.672   1.075   2.474  0.00  0.00    +0.000 A 
ATOM     21  C   UNL     1       5.302   1.346   2.552  0.00  0.00    +0.000 A 
BRANCH  16  22
ATOM     22  C   UNL     1       3.060   1.810   1.477  0.00  0.00    +0.000 C 
BRANCH  22  23
ATOM     23  C   UNL     1       2.170   0.562   1.538  0.00  0.00    +0.000 C 
BRANCH  23  24
ATOM     24  N   UNL     1       0.753   0.926   1.610  0.00  0.00    +0.000 NA
ATOM     25  H   UNL     1       0.189   0.078   1.653  0.00  0.00    +0.000 HD
ATOM     26  H   UNL     1       0.476   1.409   0.756  0.00  0.00    +0.000 HD
ENDBRANCH  23  24
ENDBRANCH  22  23
ENDBRANCH  16  22
ENDBRANCH  15  19
ENDBRANCH   1  15
TORSDOF 6
