REMARK  Name = 
REMARK  8 active torsions:
REMARK  status: ('A' for Active; 'I' for Inactive)
REMARK    1  A    between atoms: N_1  and  C_2
REMARK    2  A    between atoms: C_2  and  C_3
REMARK    3  A    between atoms: C_3  and  N_4
REMARK    4  A    between atoms: C_3  and  C_13
REMARK    5  A    between atoms: C_5  and  C_7
REMARK    6  A    between atoms: C_16  and  C_17
REMARK    7  A    between atoms: C_17  and  N_18
REMARK    8  A    between atoms: C_19  and  C_21
REMARK                            x       y       z     vdW  Elec       q    Type
REMARK                         _______ _______ _______ _____ _____    ______ ____
ROOT
ATOM      1  C   UNL     1       4.523  -0.951   0.979  0.00  0.00    +0.000 A 
ATOM      2  C   UNL     1       5.210  -2.176   0.966  0.00  0.00    +0.000 A 
ATOM      3  C   UNL     1       6.608  -2.213   0.961  0.00  0.00    +0.000 A 
ATOM      4  C   UNL     1       7.350  -1.026   0.976  0.00  0.00    +0.000 A 
ATOM      5  C   UNL     1       6.667   0.197   0.988  0.00  0.00    +0.000 A 
ATOM      6  C   UNL     1       5.271   0.235   0.996  0.00  0.00    +0.000 A 
ENDROOT
BRANCH   1   7
ATOM      7  C   UNL     1       3.000  -0.938   0.986  0.00  0.00    +0.000 C 
BRANCH   7   8
ATOM      8  N   UNL     1       2.502  -0.322  -0.248  0.00  0.00    +0.000 N 
ATOM      9  C   UNL     1       1.317  -0.731  -0.817  0.00  0.00    +0.000 C 
ATOM     10  O   UNL     1       0.650  -1.640  -0.337  0.00  0.00    +0.000 OA
ATOM     11  H   UNL     1       2.960   0.511  -0.587  0.00  0.00    +0.000 HD
BRANCH   9  12
ATOM     12  C   UNL     1       0.859   0.063  -2.050  0.00  0.00    +0.000 C 
ATOM     13  C   UNL     1      -0.466  -0.533  -2.563  0.00  0.00    +0.000 C 
ATOM     14  C   UNL     1      -0.953   0.102  -3.860  0.00  0.00    +0.000 C 
ATOM     15  C   UNL     1       0.119   0.042  -4.938  0.00  0.00    +0.000 C 
ATOM     16  C   UNL     1       1.403   0.710  -4.460  0.00  0.00    +0.000 C 
ATOM     17  C   UNL     1       1.921   0.089  -3.160  0.00  0.00    +0.000 C 
ENDBRANCH   9  12
ENDBRANCH   7   8
BRANCH   7  18
ATOM     18  C   UNL     1       2.415  -0.227   2.245  0.00  0.00    +0.000 C 
BRANCH  18  19
ATOM     19  N   UNL     1       2.828  -0.810   3.529  0.00  0.00    +0.000 NA
ATOM     20  H   UNL     1       2.642  -0.145   4.278  0.00  0.00    +0.000 HD
ATOM     21  H   UNL     1       3.837  -0.966   3.529  0.00  0.00    +0.000 HD
ENDBRANCH  18  19
ENDBRANCH   7  18
ENDBRANCH   1   7
BRANCH   4  22
ATOM     22  C   UNL     1       8.854  -1.052   0.901  0.00  0.00    +0.000 C 
BRANCH  22  23
ATOM     23  N   UNL     1       9.292  -1.026  -0.473  0.00  0.00    +0.000 N 
ATOM     24  C   UNL     1      10.617  -1.130  -0.802  0.00  0.00    +0.000 C 
ATOM     25  O   UNL     1      11.488  -1.279   0.052  0.00  0.00    +0.000 OA
ATOM     26  H   UNL     1       8.624  -0.703  -1.166  0.00  0.00    +0.000 HD
BRANCH  24  27
ATOM     27  C   UNL     1      10.943  -1.118  -2.234  0.00  0.00    +0.000 A 
ATOM     28  C   UNL     1      12.143  -1.667  -2.666  0.00  0.00    +0.000 A 
ATOM     29  S   UNL     1      12.346  -1.627  -4.358  0.00  0.00    +0.000 S 
ATOM     30  C   UNL     1      10.860  -0.827  -4.571  0.00  0.00    +0.000 A 
ATOM     31  N   UNL     1      10.433  -0.469  -5.812  0.00  0.00    +0.000 NA
ATOM     32  C   UNL     1       9.307   0.162  -5.827  0.00  0.00    +0.000 A 
ATOM     33  N   UNL     1       8.567   0.464  -4.714  0.00  0.00    +0.000 N 
ATOM     34  C   UNL     1       8.944   0.098  -3.443  0.00  0.00    +0.000 A 
ATOM     35  O   UNL     1       8.238   0.352  -2.472  0.00  0.00    +0.000 OA
ATOM     36  C   UNL     1      10.211  -0.606  -3.369  0.00  0.00    +0.000 A 
ATOM     37  H   UNL     1       7.690   0.957  -4.795  0.00  0.00    +0.000 HD
ENDBRANCH  24  27
ENDBRANCH  22  23
ENDBRANCH   4  22
TORSDOF 8
