REMARK  Name = 
REMARK  6 active torsions:
REMARK  status: ('A' for Active; 'I' for Inactive)
REMARK    1  A    between atoms: C_2  and  C_25
REMARK    2  A    between atoms: N_3  and  C_4
REMARK    3  A    between atoms: C_4  and  C_5
REMARK    4  A    between atoms: C_8  and  C_9
REMARK    5  A    between atoms: C_9  and  N_10
REMARK    6  A    between atoms: C_11  and  C_13
REMARK                            x       y       z     vdW  Elec       q    Type
REMARK                         _______ _______ _______ _____ _____    ______ ____
ROOT
ATOM      1  C   UNL     1       3.119   1.801   3.111  0.00  0.00    +0.000 A 
ATOM      2  C   UNL     1       3.142   3.196   3.245  0.00  0.00    +0.000 A 
ATOM      3  C   UNL     1       3.935   3.811   4.224  0.00  0.00    +0.000 A 
ATOM      4  C   UNL     1       4.741   3.044   5.077  0.00  0.00    +0.000 A 
ATOM      5  C   UNL     1       4.719   1.649   4.938  0.00  0.00    +0.000 A 
ATOM      6  C   UNL     1       3.929   1.035   3.960  0.00  0.00    +0.000 A 
ENDROOT
BRANCH   1   7
ATOM      7  C   UNL     1       2.202   1.142   2.115  0.00  0.00    +0.000 C 
BRANCH   7  10
ATOM      8  O   UNL     1       0.892  -0.034  -0.009  0.00  0.00    +0.000 OA
ATOM      9  C   UNL     1       2.035   0.378  -0.203  0.00  0.00    +0.000 C 
ATOM     10  N   UNL     1       2.783   0.972   0.808  0.00  0.00    +0.000 N 
ATOM     11  H   UNL     1       3.703   1.336   0.582  0.00  0.00    +0.000 HD
BRANCH   9  12
ATOM     12  C   UNL     1       2.706   0.274  -1.553  0.00  0.00    +0.000 A 
ATOM     13  N   UNL     1       1.979  -0.239  -2.568  0.00  0.00    +0.000 NA
ATOM     14  C   UNL     1       2.598  -0.315  -3.757  0.00  0.00    +0.000 A 
ATOM     15  C   UNL     1       3.897   0.090  -3.959  0.00  0.00    +0.000 A 
ATOM     16  C   UNL     1       4.550   0.594  -2.855  0.00  0.00    +0.000 A 
ATOM     17  N   UNL     1       3.986   0.707  -1.637  0.00  0.00    +0.000 NA
ENDBRANCH   9  12
ENDBRANCH   7  10
ENDBRANCH   1   7
BRANCH   4  18
ATOM     18  C   UNL     1       5.603   3.686   6.139  0.00  0.00    +0.000 C 
BRANCH  18  19
ATOM     19  N   UNL     1       4.909   3.811   7.394  0.00  0.00    +0.000 N 
ATOM     20  C   UNL     1       5.497   4.401   8.487  0.00  0.00    +0.000 C 
ATOM     21  O   UNL     1       6.631   4.872   8.445  0.00  0.00    +0.000 OA
ATOM     22  H   UNL     1       4.121   3.186   7.546  0.00  0.00    +0.000 HD
BRANCH  20  23
ATOM     23  C   UNL     1       4.671   4.498   9.698  0.00  0.00    +0.000 A 
ATOM     24  C   UNL     1       4.907   5.504  10.624  0.00  0.00    +0.000 A 
ATOM     25  S   UNL     1       3.816   5.495  11.939  0.00  0.00    +0.000 S 
ATOM     26  C   UNL     1       3.027   4.109  11.344  0.00  0.00    +0.000 A 
ATOM     27  N   UNL     1       1.993   3.544  12.026  0.00  0.00    +0.000 NA
ATOM     28  C   UNL     1       1.510   2.481  11.476  0.00  0.00    +0.000 A 
ATOM     29  N   UNL     1       1.961   1.935  10.302  0.00  0.00    +0.000 N 
ATOM     30  C   UNL     1       2.975   2.492   9.562  0.00  0.00    +0.000 A 
ATOM     31  O   UNL     1       3.317   2.013   8.485  0.00  0.00    +0.000 OA
ATOM     32  C   UNL     1       3.568   3.680  10.145  0.00  0.00    +0.000 A 
ATOM     33  H   UNL     1       1.531   1.108   9.915  0.00  0.00    +0.000 HD
ENDBRANCH  20  23
ENDBRANCH  18  19
ENDBRANCH   4  18
TORSDOF 6
