REMARK  Name = 
REMARK  6 active torsions:
REMARK  status: ('A' for Active; 'I' for Inactive)
REMARK    1  A    between atoms: C_1  and  C_2
REMARK    2  A    between atoms: C_7  and  C_8
REMARK    3  A    between atoms: N_10  and  C_11
REMARK    4  A    between atoms: C_11  and  C_12
REMARK    5  A    between atoms: C_15  and  C_16
REMARK    6  A    between atoms: C_16  and  N_17
REMARK                            x       y       z     vdW  Elec       q    Type
REMARK                         _______ _______ _______ _____ _____    ______ ____
ROOT
ATOM      1  C   UNL     1       7.143   1.408   1.194  0.00  0.00    +0.000 C 
ATOM      2  O   UNL     1       7.506   1.709   2.326  0.00  0.00    +0.000 OA
ATOM      3  N   UNL     1       7.687   1.987   0.070  0.00  0.00    +0.000 N 
ATOM      4  H   UNL     1       7.366   1.703  -0.849  0.00  0.00    +0.000 HD
ENDROOT
BRANCH   1  11
ATOM      5  C   UNL     1       3.284  -2.364  -3.031  0.00  0.00    +0.000 C 
ATOM      6  C   UNL     1       4.043  -1.631  -1.962  0.00  0.00    +0.000 A 
ATOM      7  N   UNL     1       3.817  -1.844  -0.698  0.00  0.00    +0.000 NA
ATOM      8  C   UNL     1       4.592  -1.088   0.117  0.00  0.00    +0.000 A 
ATOM      9  N   UNL     1       4.528  -1.142   1.477  0.00  0.00    +0.000 N 
ATOM     10  C   UNL     1       5.438  -0.257   2.001  0.00  0.00    +0.000 A 
ATOM     11  C   UNL     1       6.106   0.393   0.965  0.00  0.00    +0.000 A 
ATOM     12  C   UNL     1       5.554  -0.162  -0.231  0.00  0.00    +0.000 A 
ATOM     13  C   UNL     1       5.783   0.037  -1.642  0.00  0.00    +0.000 A 
ATOM     14  O   UNL     1       6.618   0.811  -2.100  0.00  0.00    +0.000 OA
ATOM     15  N   UNL     1       4.978  -0.735  -2.448  0.00  0.00    +0.000 N 
ATOM     16  H   UNL     1       3.906  -1.742   2.001  0.00  0.00    +0.000 HD
ATOM     17  H   UNL     1       5.115  -0.617  -3.439  0.00  0.00    +0.000 HD
ENDBRANCH   1  11
BRANCH   3  18
ATOM     18  C   UNL     1       8.748   2.962   0.126  0.00  0.00    +0.000 C 
BRANCH  18  19
ATOM     19  C   UNL     1       8.240   4.383   0.108  0.00  0.00    +0.000 A 
ATOM     20  C   UNL     1       7.991   5.063   1.308  0.00  0.00    +0.000 A 
ATOM     21  C   UNL     1       7.543   6.390   1.301  0.00  0.00    +0.000 A 
ATOM     22  C   UNL     1       7.316   7.060   0.092  0.00  0.00    +0.000 A 
ATOM     23  C   UNL     1       7.567   6.380  -1.109  0.00  0.00    +0.000 A 
ATOM     24  C   UNL     1       8.015   5.055  -1.102  0.00  0.00    +0.000 A 
BRANCH  22  25
ATOM     25  C   UNL     1       6.788   8.477   0.070  0.00  0.00    +0.000 C 
BRANCH  25  26
ATOM     26  N   UNL     1       7.890   9.435   0.046  0.00  0.00    +0.000 N 
ATOM     27  C   UNL     1       7.447  10.768  -0.108  0.00  0.00    +0.000 A 
ATOM     28  C   UNL     1       8.391  11.787  -0.144  0.00  0.00    +0.000 A 
ATOM     29  C   UNL     1       7.974  13.105  -0.309  0.00  0.00    +0.000 A 
ATOM     30  C   UNL     1       6.623  13.350  -0.428  0.00  0.00    +0.000 A 
ATOM     31  N   UNL     1       5.711  12.365  -0.373  0.00  0.00    +0.000 NA
ATOM     32  N   UNL     1       6.133  11.072  -0.199  0.00  0.00    +0.000 NA
ATOM     33  H   UNL     1       8.554   9.222  -0.693  0.00  0.00    +0.000 HD
ENDBRANCH  25  26
ENDBRANCH  22  25
ENDBRANCH  18  19
ENDBRANCH   3  18
TORSDOF 5
