REMARK  Name = 
REMARK  11 active torsions:
REMARK  status: ('A' for Active; 'I' for Inactive)
REMARK    1  A    between atoms: C_1  and  O_2
REMARK    2  A    between atoms: O_2  and  C_3
REMARK    3  A    between atoms: C_3  and  C_4
REMARK    4  A    between atoms: C_4  and  N_5
REMARK    5  A    between atoms: C_4  and  C_28
REMARK    6  A    between atoms: N_5  and  C_6
REMARK    7  A    between atoms: C_6  and  C_7
REMARK    8  A    between atoms: C_10  and  C_11
REMARK    9  A    between atoms: C_11  and  N_12
REMARK   10  A    between atoms: C_13  and  C_15
REMARK   11  A    between atoms: C_16  and  C_17
REMARK                            x       y       z     vdW  Elec       q    Type
REMARK                         _______ _______ _______ _____ _____    ______ ____
ROOT
ATOM      1  C   UNL     1       4.959   0.820  -2.700  0.00  0.00    +0.000 A 
ATOM      2  C   UNL     1       4.833   2.163  -3.084  0.00  0.00    +0.000 A 
ATOM      3  C   UNL     1       5.237   2.583  -4.353  0.00  0.00    +0.000 A 
ATOM      4  C   UNL     1       5.780   1.669  -5.264  0.00  0.00    +0.000 A 
ATOM      5  C   UNL     1       5.957   0.338  -4.863  0.00  0.00    +0.000 A 
ATOM      6  C   UNL     1       5.544  -0.084  -3.597  0.00  0.00    +0.000 A 
ENDROOT
BRANCH   1   7
ATOM      7  C   UNL     1       4.480   0.355  -1.341  0.00  0.00    +0.000 C 
BRANCH   7   8
ATOM      8  N   UNL     1       3.031   0.520  -1.210  0.00  0.00    +0.000 NA
ATOM      9  H   UNL     1       2.818   1.513  -1.308  0.00  0.00    +0.000 HD
BRANCH   8  10
ATOM     10  C   UNL     1       2.492   0.103   0.102  0.00  0.00    +0.000 C 
BRANCH  10  11
ATOM     11  C   UNL     1       2.645  -1.395   0.365  0.00  0.00    +0.000 A 
ATOM     12  C   UNL     1       3.301  -1.898   1.505  0.00  0.00    +0.000 A 
ATOM     13  C   UNL     1       3.383  -3.265   1.749  0.00  0.00    +0.000 A 
ATOM     14  C   UNL     1       2.820  -4.167   0.855  0.00  0.00    +0.000 A 
ATOM     15  C   UNL     1       2.185  -3.697  -0.293  0.00  0.00    +0.000 A 
ATOM     16  C   UNL     1       2.097  -2.323  -0.536  0.00  0.00    +0.000 A 
ENDBRANCH  10  11
BRANCH  10  17
ATOM     17  C   UNL     1       2.992   0.975   1.284  0.00  0.00    +0.000 C 
BRANCH  17  19
ATOM     18  C   UNL     1       3.251   3.091   2.229  0.00  0.00    +0.000 C 
ATOM     19  O   UNL     1       2.811   2.379   1.071  0.00  0.00    +0.000 OA
ENDBRANCH  17  19
ENDBRANCH  10  17
ENDBRANCH   8  10
ENDBRANCH   7   8
ENDBRANCH   1   7
BRANCH   4  20
ATOM     20  C   UNL     1       6.198   2.113  -6.638  0.00  0.00    +0.000 C 
BRANCH  20  21
ATOM     21  N   UNL     1       7.550   2.609  -6.633  0.00  0.00    +0.000 N 
ATOM     22  C   UNL     1       8.179   2.966  -7.795  0.00  0.00    +0.000 C 
ATOM     23  O   UNL     1       7.602   2.950  -8.879  0.00  0.00    +0.000 OA
ATOM     24  H   UNL     1       8.067   2.562  -5.766  0.00  0.00    +0.000 HD
BRANCH  22  25
ATOM     25  C   UNL     1       9.562   3.425  -7.648  0.00  0.00    +0.000 A 
ATOM     26  C   UNL     1      10.134   4.404  -8.470  0.00  0.00    +0.000 A 
ATOM     27  C   UNL     1       9.593   5.198  -9.609  0.00  0.00    +0.000 C 
ATOM     28  N   UNL     1      11.426   4.603  -8.054  0.00  0.00    +0.000 N 
ATOM     29  C   UNL     1      11.711   3.796  -7.002  0.00  0.00    +0.000 A 
ATOM     30  N   UNL     1      12.897   3.782  -6.380  0.00  0.00    +0.000 NA
ATOM     31  C   UNL     1      12.944   2.881  -5.388  0.00  0.00    +0.000 A 
ATOM     32  N   UNL     1      11.973   2.044  -5.010  0.00  0.00    +0.000 NA
ATOM     33  C   UNL     1      10.812   2.113  -5.683  0.00  0.00    +0.000 A 
ATOM     34 CL   UNL     1       9.632   0.988  -5.220  0.00  0.00    +0.000 Cl
ATOM     35  C   UNL     1      10.593   3.021  -6.714  0.00  0.00    +0.000 A 
ATOM     36  H   UNL     1      12.088   5.251  -8.462  0.00  0.00    +0.000 HD
ENDBRANCH  22  25
ENDBRANCH  20  21
ENDBRANCH   4  20
TORSDOF 9
