REMARK  Name = 
REMARK  9 active torsions:
REMARK  status: ('A' for Active; 'I' for Inactive)
REMARK    1  A    between atoms: C_1  and  C_2
REMARK    2  A    between atoms: C_2  and  C_3
REMARK    3  A    between atoms: C_3  and  N_4
REMARK    4  A    between atoms: C_3  and  C_26
REMARK    5  A    between atoms: N_4  and  C_5
REMARK    6  A    between atoms: C_5  and  C_6
REMARK    7  A    between atoms: C_9  and  C_10
REMARK    8  A    between atoms: C_10  and  N_11
REMARK    9  A    between atoms: C_12  and  C_14
REMARK                            x       y       z     vdW  Elec       q    Type
REMARK                         _______ _______ _______ _____ _____    ______ ____
ROOT
ATOM      1  C   UNL     1       0.588  -3.119  -2.237  0.00  0.00    +0.000 A 
ATOM      2  C   UNL     1       0.819  -4.497  -2.266  0.00  0.00    +0.000 A 
ATOM      3  C   UNL     1       0.456  -5.238  -3.386  0.00  0.00    +0.000 A 
ATOM      4  C   UNL     1      -0.154  -4.584  -4.452  0.00  0.00    +0.000 A 
ATOM      5  N   UNL     1      -0.373  -3.245  -4.460  0.00  0.00    +0.000 NA
ATOM      6  C   UNL     1       0.006  -2.551  -3.363  0.00  0.00    +0.000 A 
ENDROOT
BRANCH   1   7
ATOM      7  C   UNL     1       1.010  -2.284  -1.058  0.00  0.00    +0.000 C 
BRANCH   7   8
ATOM      8  N   UNL     1      -0.122  -1.577  -0.452  0.00  0.00    +0.000 NA
ATOM      9  H   UNL     1      -0.533  -0.949  -1.137  0.00  0.00    +0.000 HD
BRANCH   8  10
ATOM     10  C   UNL     1       0.260  -0.790   0.740  0.00  0.00    +0.000 C 
BRANCH  10  11
ATOM     11  C   UNL     1       0.764  -1.669   1.890  0.00  0.00    +0.000 A 
ATOM     12  C   UNL     1      -0.142  -2.340   2.712  0.00  0.00    +0.000 A 
ATOM     13  C   UNL     1       0.348  -3.165   3.721  0.00  0.00    +0.000 A 
ATOM     14  C   UNL     1       1.721  -3.316   3.878  0.00  0.00    +0.000 A 
ATOM     15  C   UNL     1       2.554  -2.632   3.010  0.00  0.00    +0.000 A 
ATOM     16  N   UNL     1       2.109  -1.821   2.029  0.00  0.00    +0.000 NA
ENDBRANCH  10  11
BRANCH  10  18
ATOM     17  C   UNL     1       0.802   1.350  -0.615  0.00  0.00    +0.000 C 
ATOM     18  C   UNL     1       1.247   0.372   0.462  0.00  0.00    +0.000 C 
ENDBRANCH  10  18
ENDBRANCH   8  10
ENDBRANCH   7   8
ENDBRANCH   1   7
BRANCH   4  19
ATOM     19  C   UNL     1      -0.565  -5.353  -5.681  0.00  0.00    +0.000 C 
BRANCH  19  20
ATOM     20  N   UNL     1       0.465  -5.339  -6.693  0.00  0.00    +0.000 N 
ATOM     21  C   UNL     1       1.371  -6.355  -6.831  0.00  0.00    +0.000 C 
ATOM     22  O   UNL     1       1.348  -7.354  -6.118  0.00  0.00    +0.000 OA
ATOM     23  H   UNL     1       0.665  -4.428  -7.095  0.00  0.00    +0.000 HD
BRANCH  21  24
ATOM     24  C   UNL     1       2.328  -6.225  -7.938  0.00  0.00    +0.000 A 
ATOM     25  C   UNL     1       2.910  -7.365  -8.476  0.00  0.00    +0.000 A 
ATOM     26  S   UNL     1       3.960  -7.045  -9.780  0.00  0.00    +0.000 S 
ATOM     27  C   UNL     1       3.707  -5.368  -9.644  0.00  0.00    +0.000 A 
ATOM     28  N   UNL     1       4.348  -4.495 -10.468  0.00  0.00    +0.000 NA
ATOM     29  C   UNL     1       4.084  -3.253 -10.236  0.00  0.00    +0.000 A 
ATOM     30  N   UNL     1       3.235  -2.803  -9.259  0.00  0.00    +0.000 N 
ATOM     31  C   UNL     1       2.527  -3.648  -8.437  0.00  0.00    +0.000 A 
ATOM     32  O   UNL     1       1.709  -3.217  -7.638  0.00  0.00    +0.000 OA
ATOM     33  C   UNL     1       2.813  -5.058  -8.634  0.00  0.00    +0.000 A 
ATOM     34  H   UNL     1       3.050  -1.818  -9.144  0.00  0.00    +0.000 HD
ENDBRANCH  21  24
ENDBRANCH  19  20
ENDBRANCH   4  19
TORSDOF 8
