REMARK  Name = 
REMARK  5 active torsions:
REMARK  status: ('A' for Active; 'I' for Inactive)
REMARK    1  A    between atoms: N_1  and  C_2
REMARK    2  A    between atoms: C_2  and  C_3
REMARK    3  A    between atoms: C_6  and  O_7
REMARK    4  A    between atoms: O_7  and  C_8
REMARK    5  A    between atoms: C_8  and  C_9
REMARK                            x       y       z     vdW  Elec       q    Type
REMARK                         _______ _______ _______ _____ _____    ______ ____
ROOT
ATOM      1  C   UNL     1       2.957  -0.712   1.224  0.00  0.00    +0.000 A 
ATOM      2  C   UNL     1       2.794  -2.089   1.366  0.00  0.00    +0.000 A 
ATOM      3  C   UNL     1       3.192  -2.698   2.553  0.00  0.00    +0.000 A 
ATOM      4  C   UNL     1       3.758  -1.931   3.566  0.00  0.00    +0.000 A 
ATOM      5  C   UNL     1       3.869  -0.560   3.344  0.00  0.00    +0.000 A 
ATOM      6  F   UNL     1       4.374   0.230   4.306  0.00  0.00    +0.000 F 
ATOM      7  N   UNL     1       3.488   0.062   2.203  0.00  0.00    +0.000 NA
ENDROOT
BRANCH   1   8
ATOM      8  C   UNL     1       2.501  -0.022  -0.045  0.00  0.00    +0.000 C 
BRANCH   8   9
ATOM      9  N   UNL     1       1.058  -0.158  -0.264  0.00  0.00    +0.000 NA
ATOM     10  H   UNL     1       0.794   0.417  -1.062  0.00  0.00    +0.000 HD
ATOM     11  H   UNL     1       0.579   0.247   0.541  0.00  0.00    +0.000 HD
ENDBRANCH   8   9
ENDBRANCH   1   8
BRANCH   4  12
ATOM     12  O   UNL     1       4.115  -2.623   4.688  0.00  0.00    +0.000 OA
BRANCH  12  13
ATOM     13  C   UNL     1       5.184  -2.063   5.458  0.00  0.00    +0.000 C 
BRANCH  13  14
ATOM     14  C   UNL     1       5.901  -3.184   6.175  0.00  0.00    +0.000 A 
ATOM     15  N   UNL     1       5.962  -3.147   7.535  0.00  0.00    +0.000 NA
ATOM     16  C   UNL     1       6.632  -4.158   8.146  0.00  0.00    +0.000 A 
ATOM     17  C   UNL     1       7.249  -5.200   7.468  0.00  0.00    +0.000 A 
ATOM     18 CL   UNL     1       8.091  -6.431   8.318  0.00  0.00    +0.000 Cl
ATOM     19  C   UNL     1       7.181  -5.224   6.082  0.00  0.00    +0.000 A 
ATOM     20  C   UNL     1       6.502  -4.201   5.433  0.00  0.00    +0.000 A 
ATOM     21  F   UNL     1       6.445  -4.202   4.094  0.00  0.00    +0.000 F 
ENDBRANCH  13  14
ENDBRANCH  12  13
ENDBRANCH   4  12
TORSDOF 5
