REMARK  Name = 
REMARK  5 active torsions:
REMARK  status: ('A' for Active; 'I' for Inactive)
REMARK    1  A    between atoms: C_2  and  C_4
REMARK    2  A    between atoms: C_8  and  S_9
REMARK    3  A    between atoms: S_9  and  C_10
REMARK    4  A    between atoms: C_10  and  C_11
REMARK    5  A    between atoms: C_15  and  C_16
REMARK                            x       y       z     vdW  Elec       q    Type
REMARK                         _______ _______ _______ _____ _____    ______ ____
ROOT
ATOM      1  C   UNL     1       6.754  -0.852  -2.878  0.00  0.00    +0.000 C 
ENDROOT
BRANCH   1   2
ATOM      2  C   UNL     1       7.963  -1.418  -3.585  0.00  0.00    +0.000 A 
ATOM      3  C   UNL     1       8.106  -2.789  -3.802  0.00  0.00    +0.000 A 
ATOM      4  C   UNL     1       9.236  -3.243  -4.461  0.00  0.00    +0.000 A 
ATOM      5  N   UNL     1      10.219  -2.437  -4.919  0.00  0.00    +0.000 NA
ATOM      6  C   UNL     1      10.091  -1.098  -4.712  0.00  0.00    +0.000 A 
ATOM      7  C   UNL     1       8.971  -0.569  -4.061  0.00  0.00    +0.000 A 
BRANCH   6   8
ATOM      8  C   UNL     1      11.214  -0.239  -5.165  0.00  0.00    +0.000 A 
ATOM      9  C   UNL     1      12.349  -0.763  -5.796  0.00  0.00    +0.000 A 
ATOM     10  C   UNL     1      13.408   0.082  -6.130  0.00  0.00    +0.000 A 
ATOM     11  C   UNL     1      13.307   1.429  -5.834  0.00  0.00    +0.000 A 
ATOM     12  F   UNL     1      14.312   2.265  -6.120  0.00  0.00    +0.000 F 
ATOM     13  C   UNL     1      12.154   1.891  -5.230  0.00  0.00    +0.000 A 
ATOM     14  N   UNL     1      11.110   1.096  -4.895  0.00  0.00    +0.000 NA
ENDBRANCH   6   8
ENDBRANCH   1   2
BRANCH   1  15
ATOM     15  S   UNL     1       6.638  -1.410  -1.143  0.00  0.00    +0.000 S 
BRANCH  15  20
ATOM     16  C   UNL     1       3.425  -0.205   0.984  0.00  0.00    +0.000 A 
ATOM     17  C   UNL     1       2.771   0.621   0.072  0.00  0.00    +0.000 A 
ATOM     18  C   UNL     1       3.343   0.774  -1.174  0.00  0.00    +0.000 A 
ATOM     19  N   UNL     1       4.487   0.168  -1.554  0.00  0.00    +0.000 NA
ATOM     20  C   UNL     1       5.119  -0.614  -0.651  0.00  0.00    +0.000 A 
ATOM     21  C   UNL     1       4.627  -0.820   0.628  0.00  0.00    +0.000 A 
BRANCH  16  23
ATOM     22  N   UNL     1       1.531  -0.343   2.507  0.00  0.00    +0.000 N 
ATOM     23  C   UNL     1       2.885  -0.430   2.346  0.00  0.00    +0.000 C 
ATOM     24  O   UNL     1       3.617  -0.718   3.284  0.00  0.00    +0.000 OA
ATOM     25  H   UNL     1       1.173  -0.606   3.417  0.00  0.00    +0.000 HD
ATOM     26  H   UNL     1       0.884  -0.364   1.731  0.00  0.00    +0.000 HD
ENDBRANCH  16  23
ENDBRANCH  15  20
ENDBRANCH   1  15
TORSDOF 5
