REMARK  Name = 
REMARK  5 active torsions:
REMARK  status: ('A' for Active; 'I' for Inactive)
REMARK    1  A    between atoms: C_2  and  C_4
REMARK    2  A    between atoms: C_7  and  C_8
REMARK    3  A    between atoms: C_8  and  O_9
REMARK    4  A    between atoms: O_9  and  C_10
REMARK    5  A    between atoms: C_14  and  C_15
REMARK                            x       y       z     vdW  Elec       q    Type
REMARK                         _______ _______ _______ _____ _____    ______ ____
ROOT
ATOM      1  O   UNL     1       5.154   1.833   5.408  0.00  0.00    +0.000 OA
ENDROOT
BRANCH   1   2
ATOM      2  C   UNL     1       5.581   2.469   6.538  0.00  0.00    +0.000 A 
ATOM      3  C   UNL     1       6.105   3.756   6.615  0.00  0.00    +0.000 A 
ATOM      4  C   UNL     1       6.508   4.268   7.851  0.00  0.00    +0.000 A 
ATOM      5  C   UNL     1       6.368   3.507   9.014  0.00  0.00    +0.000 A 
ATOM      6  C   UNL     1       5.825   2.218   8.957  0.00  0.00    +0.000 A 
ATOM      7  C   UNL     1       5.457   1.707   7.703  0.00  0.00    +0.000 A 
BRANCH   6   8
ATOM      8  C   UNL     1       5.593   1.421  10.227  0.00  0.00    +0.000 C 
ATOM      9  C   UNL     1       6.395   0.111  10.260  0.00  0.00    +0.000 C 
ATOM     10  C   UNL     1       6.029  -0.708  11.492  0.00  0.00    +0.000 C 
ATOM     11  O   UNL     1       4.623  -0.949  11.543  0.00  0.00    +0.000 OA
ATOM     12  C   UNL     1       3.873   0.260  11.653  0.00  0.00    +0.000 C 
ATOM     13  C   UNL     1       4.095   1.139  10.433  0.00  0.00    +0.000 C 
ENDBRANCH   6   8
ENDBRANCH   1   2
BRANCH   1  14
ATOM     14  C   UNL     1       5.060   2.608   4.212  0.00  0.00    +0.000 C 
BRANCH  14  18
ATOM     15  C   UNL     1       3.458   0.253   1.022  0.00  0.00    +0.000 A 
ATOM     16  C   UNL     1       3.016   0.004   2.321  0.00  0.00    +0.000 A 
ATOM     17  C   UNL     1       3.521   0.772   3.368  0.00  0.00    +0.000 A 
ATOM     18  C   UNL     1       4.471   1.760   3.101  0.00  0.00    +0.000 A 
ATOM     19  N   UNL     1       4.894   2.027   1.837  0.00  0.00    +0.000 NA
ATOM     20  C   UNL     1       4.392   1.260   0.836  0.00  0.00    +0.000 A 
BRANCH  15  22
ATOM     21  N   UNL     1       1.788  -1.145  -0.064  0.00  0.00    +0.000 N 
ATOM     22  C   UNL     1       3.005  -0.526  -0.149  0.00  0.00    +0.000 C 
ATOM     23  O   UNL     1       3.677  -0.598  -1.169  0.00  0.00    +0.000 OA
ATOM     24  H   UNL     1       1.456  -1.601  -0.903  0.00  0.00    +0.000 HD
ATOM     25  H   UNL     1       1.107  -0.924   0.649  0.00  0.00    +0.000 HD
ENDBRANCH  15  22
ENDBRANCH  14  18
ENDBRANCH   1  14
TORSDOF 5
