REMARK  Name = 
REMARK  10 active torsions:
REMARK  status: ('A' for Active; 'I' for Inactive)
REMARK    1  A    between atoms: C_1  and  C_2
REMARK    2  A    between atoms: C_2  and  C_3
REMARK    3  A    between atoms: C_5  and  O_6
REMARK    4  A    between atoms: O_6  and  C_7
REMARK    5  A    between atoms: C_9  and  C_10
REMARK    6  A    between atoms: C_10  and  C_11
REMARK    7  A    between atoms: C_10  and  C_12
REMARK    8  A    between atoms: C_10  and  C_13
REMARK    9  A    between atoms: C_13  and  N_14
REMARK   10  A    between atoms: C_18  and  C_19
REMARK                            x       y       z     vdW  Elec       q    Type
REMARK                         _______ _______ _______ _____ _____    ______ ____
ROOT
ATOM      1  C   UNL     1      -3.877   0.710   0.904  0.00  0.00    +0.000 A 
ATOM      2  C   UNL     1      -3.687   0.684   2.293  0.00  0.00    +0.000 A 
ATOM      3  C   UNL     1      -4.748   0.452   3.191  0.00  0.00    +0.000 A 
ATOM      4  C   UNL     1      -6.004   0.181   2.629  0.00  0.00    +0.000 A 
ATOM      5  C   UNL     1      -6.197   0.209   1.245  0.00  0.00    +0.000 A 
ATOM      6  F   UNL     1      -7.435  -0.009   0.777  0.00  0.00    +0.000 F 
ATOM      7  C   UNL     1      -5.144   0.469   0.374  0.00  0.00    +0.000 A 
ATOM      8 CL   UNL     1      -5.433   0.506  -1.327  0.00  0.00    +0.000 Cl
ENDROOT
BRANCH   3   9
ATOM      9  C   UNL     1      -4.479   0.493   4.711  0.00  0.00    +0.000 C 
ATOM     10  C   UNL     1      -3.470  -0.633   5.055  0.00  0.00    +0.000 C 
ATOM     11  C   UNL     1      -3.839   1.848   5.105  0.00  0.00    +0.000 C 
BRANCH   9  12
ATOM     12  C   UNL     1      -5.732   0.254   5.615  0.00  0.00    +0.000 C 
BRANCH  12  13
ATOM     13  N   UNL     1      -6.727   1.333   5.521  0.00  0.00    +0.000 N 
ATOM     14  C   UNL     1      -7.920   1.072   6.213  0.00  0.00    +0.000 A 
ATOM     15  C   UNL     1      -8.992   1.968   6.123  0.00  0.00    +0.000 A 
ATOM     16  N   UNL     1     -10.159   1.833   6.805  0.00  0.00    +0.000 NA
ATOM     17  C   UNL     1     -10.221   0.755   7.622  0.00  0.00    +0.000 A 
ATOM     18  C   UNL     1      -9.172  -0.142   7.725  0.00  0.00    +0.000 A 
ATOM     19  N   UNL     1      -8.015   0.000   7.031  0.00  0.00    +0.000 NA
ATOM     20  H   UNL     1      -6.925   1.626   4.569  0.00  0.00    +0.000 HD
BRANCH  17  21
ATOM     21  C   UNL     1     -11.413   0.583   8.395  0.00  0.00    +0.000 C 
ATOM     22  N   UNL     1     -12.360   0.407   9.049  0.00  0.00    +0.000 NA
ENDBRANCH  17  21
ENDBRANCH  12  13
ENDBRANCH   9  12
ENDBRANCH   3   9
BRANCH   1  23
ATOM     23  O   UNL     1      -2.838   0.961   0.037  0.00  0.00    +0.000 OA
BRANCH  23  28
ATOM     24  C   UNL     1       0.161   4.160   1.001  0.00  0.00    +0.000 C 
ATOM     25  C   UNL     1      -1.043   3.871   0.105  0.00  0.00    +0.000 C 
ATOM     26  C   UNL     1      -1.379   5.055  -0.795  0.00  0.00    +0.000 C 
ATOM     27  C   UNL     1      -2.263   3.306   0.873  0.00  0.00    +0.000 C 
ATOM     28  C   UNL     1      -1.810   1.875   0.479  0.00  0.00    +0.000 C 
ATOM     29  C   UNL     1      -0.972   2.516  -0.650  0.00  0.00    +0.000 C 
ENDBRANCH  23  28
ENDBRANCH   1  23
TORSDOF 6
