REMARK  Name = 
REMARK  7 active torsions:
REMARK  status: ('A' for Active; 'I' for Inactive)
REMARK    1  A    between atoms: C_1  and  C_2
REMARK    2  A    between atoms: C_2  and  C_3
REMARK    3  A    between atoms: C_2  and  C_4
REMARK    4  A    between atoms: C_2  and  O_5
REMARK    5  A    between atoms: O_5  and  C_6
REMARK    6  A    between atoms: N_14  and  C_15
REMARK    7  A    between atoms: C_15  and  C_16
REMARK                            x       y       z     vdW  Elec       q    Type
REMARK                         _______ _______ _______ _____ _____    ______ ____
ROOT
ATOM      1  C   UNL     1       4.543   1.240  -1.030  0.00  0.00    +0.000 C 
ATOM      2  O   UNL     1       5.017   0.129  -1.219  0.00  0.00    +0.000 OA
ATOM      3  N   UNL     1       4.932   2.334  -1.775  0.00  0.00    +0.000 N 
ATOM      4  C   UNL     1       4.398   3.701  -1.614  0.00  0.00    +0.000 C 
ATOM      5  C   UNL     1       5.461   4.660  -1.038  0.00  0.00    +0.000 C 
ATOM      6  C   UNL     1       6.756   4.408  -1.723  0.00  0.00    +0.000 A 
ATOM      7  N   UNL     1       7.836   5.242  -1.721  0.00  0.00    +0.000 NA
ATOM      8  C   UNL     1       8.756   4.599  -2.410  0.00  0.00    +0.000 A 
ATOM      9  N   UNL     1       8.317   3.370  -2.838  0.00  0.00    +0.000 N 
ATOM     10  C   UNL     1       7.013   3.261  -2.440  0.00  0.00    +0.000 A 
ATOM     11  C   UNL     1       6.060   2.158  -2.694  0.00  0.00    +0.000 C 
ENDROOT
BRANCH   1  12
ATOM     12  O   UNL     1       3.602   1.523  -0.081  0.00  0.00    +0.000 OA
BRANCH  12  14
ATOM     13  C   UNL     1       4.296  -0.114   1.632  0.00  0.00    +0.000 C 
ATOM     14  C   UNL     1       3.146   0.438   0.776  0.00  0.00    +0.000 C 
ATOM     15  C   UNL     1       2.449  -0.652  -0.052  0.00  0.00    +0.000 C 
ATOM     16  C   UNL     1       2.104   1.034   1.740  0.00  0.00    +0.000 C 
ENDBRANCH  12  14
ENDBRANCH   1  12
BRANCH   9  17
ATOM     17  C   UNL     1       9.084   2.423  -3.633  0.00  0.00    +0.000 C 
BRANCH  17  18
ATOM     18  C   UNL     1       9.825   1.423  -2.789  0.00  0.00    +0.000 A 
ATOM     19  C   UNL     1       9.553   0.053  -2.867  0.00  0.00    +0.000 A 
ATOM     20  C   UNL     1      10.270  -0.846  -2.080  0.00  0.00    +0.000 A 
ATOM     21  C   UNL     1      11.251  -0.346  -1.241  0.00  0.00    +0.000 A 
ATOM     22  N   UNL     1      11.560   0.963  -1.152  0.00  0.00    +0.000 NA
ATOM     23  C   UNL     1      10.842   1.814  -1.921  0.00  0.00    +0.000 A 
ENDBRANCH  17  18
ENDBRANCH   9  17
TORSDOF 4
