REMARK  Name = 
REMARK  7 active torsions:
REMARK  status: ('A' for Active; 'I' for Inactive)
REMARK    1  A    between atoms: C_1  and  C_2
REMARK    2  A    between atoms: C_7  and  C_8
REMARK    3  A    between atoms: C_12  and  C_13
REMARK    4  A    between atoms: C_13  and  C_14
REMARK    5  A    between atoms: C_14  and  N_15
REMARK    6  A    between atoms: N_15  and  C_16
REMARK    7  A    between atoms: C_19  and  C_20
REMARK                            x       y       z     vdW  Elec       q    Type
REMARK                         _______ _______ _______ _____ _____    ______ ____
ROOT
ATOM      1  C   UNL     1       1.633   5.503   2.125  0.00  0.00    +0.000 C 
ENDROOT
BRANCH   1   6
ATOM      2  C   UNL     1       1.184   2.531  -0.045  0.00  0.00    +0.000 A 
ATOM      3  C   UNL     1       2.005   2.811  -1.138  0.00  0.00    +0.000 A 
ATOM      4  C   UNL     1       2.764   3.979  -1.147  0.00  0.00    +0.000 A 
ATOM      5  C   UNL     1       2.675   4.861  -0.079  0.00  0.00    +0.000 A 
ATOM      6  C   UNL     1       1.825   4.545   0.973  0.00  0.00    +0.000 A 
ATOM      7  N   UNL     1       1.095   3.402   0.994  0.00  0.00    +0.000 NA
BRANCH   2  14
ATOM      8  C   UNL     1      -1.516   2.333   1.414  0.00  0.00    +0.000 C 
ATOM      9  C   UNL     1      -0.828   1.167   0.762  0.00  0.00    +0.000 A 
ATOM     10  C   UNL     1      -1.441  -0.086   0.840  0.00  0.00    +0.000 A 
ATOM     11  N   UNL     1      -0.962  -1.218   0.284  0.00  0.00    +0.000 NA
ATOM     12  C   UNL     1       0.201  -1.107  -0.377  0.00  0.00    +0.000 A 
ATOM     13  C   UNL     1       0.903   0.082  -0.501  0.00  0.00    +0.000 A 
ATOM     14  C   UNL     1       0.404   1.269   0.074  0.00  0.00    +0.000 A 
ENDBRANCH   2  14
ENDBRANCH   1   6
BRANCH   1  15
ATOM     15  C   UNL     1       0.499   6.486   1.822  0.00  0.00    +0.000 C 
BRANCH  15  16
ATOM     16  N   UNL     1       0.312   7.458   2.912  0.00  0.00    +0.000 N 
ATOM     17  H   UNL     1       1.188   7.871   3.230  0.00  0.00    +0.000 HD
BRANCH  16  18
ATOM     18  C   UNL     1      -0.695   8.425   2.752  0.00  0.00    +0.000 A 
ATOM     19  C   UNL     1      -1.861   8.198   2.017  0.00  0.00    +0.000 A 
ATOM     20  C   UNL     1      -2.861   9.167   1.943  0.00  0.00    +0.000 A 
ATOM     21  C   UNL     1      -2.686  10.352   2.638  0.00  0.00    +0.000 A 
ATOM     22  N   UNL     1      -1.595  10.618   3.406  0.00  0.00    +0.000 NA
ATOM     23  C   UNL     1      -0.651   9.639   3.453  0.00  0.00    +0.000 A 
BRANCH  21  24
ATOM     24  C   UNL     1      -3.749  11.405   2.565  0.00  0.00    +0.000 C 
ATOM     25  N   UNL     1      -3.508  12.542   3.286  0.00  0.00    +0.000 N 
ATOM     26  O   UNL     1      -4.772  11.267   1.904  0.00  0.00    +0.000 OA
ATOM     27  H   UNL     1      -2.661  12.616   3.832  0.00  0.00    +0.000 HD
ATOM     28  H   UNL     1      -4.198  13.279   3.292  0.00  0.00    +0.000 HD
ENDBRANCH  21  24
ENDBRANCH  16  18
ENDBRANCH  15  16
ENDBRANCH   1  15
TORSDOF 6
