REMARK  Name = 
REMARK  8 active torsions:
REMARK  status: ('A' for Active; 'I' for Inactive)
REMARK    1  A    between atoms: C_1  and  O_2
REMARK    2  A    between atoms: O_2  and  C_3
REMARK    3  A    between atoms: C_6  and  C_7
REMARK    4  A    between atoms: C_7  and  C_8
REMARK    5  A    between atoms: C_7  and  N_9
REMARK    6  A    between atoms: N_9  and  C_10
REMARK    7  A    between atoms: C_13  and  C_14
REMARK    8  A    between atoms: C_14  and  O_16
REMARK                            x       y       z     vdW  Elec       q    Type
REMARK                         _______ _______ _______ _____ _____    ______ ____
ROOT
ATOM      1  N   UNL     1       4.747   4.317   3.876  0.00  0.00    +0.000 N 
ATOM      2  H   UNL     1       3.866   4.810   3.713  0.00  0.00    +0.000 HD
ENDROOT
BRANCH   1   3
ATOM      3  C   UNL     1       5.427   4.821   4.979  0.00  0.00    +0.000 A 
ATOM      4  C   UNL     1       6.820   4.927   5.069  0.00  0.00    +0.000 A 
ATOM      5  C   UNL     1       7.449   5.332   6.254  0.00  0.00    +0.000 A 
ATOM      6  C   UNL     1       6.687   5.595   7.395  0.00  0.00    +0.000 A 
ATOM      7  C   UNL     1       5.296   5.511   7.325  0.00  0.00    +0.000 A 
ATOM      8  C   UNL     1       4.681   5.122   6.130  0.00  0.00    +0.000 A 
BRANCH   6   9
ATOM      9  C   UNL     1       7.310   5.977   8.686  0.00  0.00    +0.000 C 
ATOM     10  O   UNL     1       6.777   6.721   9.490  0.00  0.00    +0.000 OA
BRANCH   9  11
ATOM     11  O   UNL     1       8.501   5.380   8.909  0.00  0.00    +0.000 OA
ATOM     12  H   UNL     1       8.718   4.658   8.292  0.00  0.00    +0.000 HD
ENDBRANCH   9  11
ENDBRANCH   6   9
ENDBRANCH   1   3
BRANCH   1  13
ATOM     13  C   UNL     1       5.391   3.978   2.602  0.00  0.00    +0.000 C 
ATOM     14  C   UNL     1       4.521   2.937   1.891  0.00  0.00    +0.000 C 
BRANCH  13  18
ATOM     15  C   UNL     1       5.942   7.549   0.283  0.00  0.00    +0.000 A 
ATOM     16  C   UNL     1       7.044   6.771   0.612  0.00  0.00    +0.000 A 
ATOM     17  C   UNL     1       6.865   5.594   1.341  0.00  0.00    +0.000 A 
ATOM     18  C   UNL     1       5.579   5.218   1.733  0.00  0.00    +0.000 A 
ATOM     19  N   UNL     1       4.483   5.948   1.399  0.00  0.00    +0.000 NA
ATOM     20  C   UNL     1       4.694   7.084   0.681  0.00  0.00    +0.000 A 
BRANCH  15  22
ATOM     21  C   UNL     1       7.250   9.307  -0.625  0.00  0.00    +0.000 C 
ATOM     22  O   UNL     1       5.967   8.731  -0.399  0.00  0.00    +0.000 OA
ENDBRANCH  15  22
ENDBRANCH  13  18
ENDBRANCH   1  13
TORSDOF 6
