REMARK  Name = 
REMARK  6 active torsions:
REMARK  status: ('A' for Active; 'I' for Inactive)
REMARK    1  A    between atoms: C_1  and  C_2
REMARK    2  A    between atoms: C_4  and  O_5
REMARK    3  A    between atoms: O_5  and  C_6
REMARK    4  A    between atoms: C_6  and  C_7
REMARK    5  A    between atoms: C_12  and  C_13
REMARK    6  A    between atoms: C_22  and  C_23
REMARK                            x       y       z     vdW  Elec       q    Type
REMARK                         _______ _______ _______ _____ _____    ______ ____
ROOT
ATOM      1  C   UNL     1       5.245   4.929   0.350  0.00  0.00    +0.000 A 
ATOM      2  C   UNL     1       4.831   6.251   0.164  0.00  0.00    +0.000 A 
ATOM      3  C   UNL     1       5.758   7.291   0.260  0.00  0.00    +0.000 A 
ATOM      4  C   UNL     1       7.107   7.005   0.461  0.00  0.00    +0.000 A 
ATOM      5  F   UNL     1       7.978   8.025   0.501  0.00  0.00    +0.000 F 
ATOM      6  C   UNL     1       7.565   5.688   0.591  0.00  0.00    +0.000 A 
ATOM      7  C   UNL     1       6.595   4.679   0.638  0.00  0.00    +0.000 A 
ENDROOT
BRANCH   6   8
ATOM      8  C   UNL     1       9.062   5.390   0.579  0.00  0.00    +0.000 C 
ATOM      9  C   UNL     1       9.706   5.811  -0.760  0.00  0.00    +0.000 C 
ATOM     10  C   UNL     1       9.329   4.860  -1.899  0.00  0.00    +0.000 C 
ATOM     11  N   UNL     1       9.713   3.474  -1.625  0.00  0.00    +0.000 NA
ATOM     12  C   UNL     1       9.180   2.989  -0.355  0.00  0.00    +0.000 C 
ATOM     13  C   UNL     1       9.469   3.922   0.833  0.00  0.00    +0.000 C 
ATOM     14  H   UNL     1      10.729   3.399  -1.615  0.00  0.00    +0.000 HD
ENDBRANCH   6   8
BRANCH   1  15
ATOM     15  C   UNL     1       4.301   3.751   0.206  0.00  0.00    +0.000 C 
BRANCH  15  16
ATOM     16  O   UNL     1       4.809   2.902  -0.833  0.00  0.00    +0.000 OA
BRANCH  16  20
ATOM     17  C   UNL     1       0.970   0.246   0.235  0.00  0.00    +0.000 C 
ATOM     18  C   UNL     1       2.218   0.427  -0.583  0.00  0.00    +0.000 A 
ATOM     19  N   UNL     1       2.944   1.548  -0.313  0.00  0.00    +0.000 NA
ATOM     20  C   UNL     1       4.052   1.771  -1.051  0.00  0.00    +0.000 A 
ATOM     21  C   UNL     1       4.483   0.916  -2.053  0.00  0.00    +0.000 A 
ATOM     22  C   UNL     1       3.736  -0.233  -2.316  0.00  0.00    +0.000 A 
ATOM     23  C   UNL     1       2.581  -0.489  -1.575  0.00  0.00    +0.000 A 
BRANCH  23  24
ATOM     24  C   UNL     1       1.797  -1.661  -1.853  0.00  0.00    +0.000 C 
ATOM     25  N   UNL     1       1.167  -2.606  -2.079  0.00  0.00    +0.000 NA
ENDBRANCH  23  24
ENDBRANCH  16  20
ENDBRANCH  15  16
ENDBRANCH   1  15
TORSDOF 5
