REMARK  Name = 
REMARK  5 active torsions:
REMARK  status: ('A' for Active; 'I' for Inactive)
REMARK    1  A    between atoms: N_1  and  C_2
REMARK    2  A    between atoms: C_2  and  C_3
REMARK    3  A    between atoms: C_3  and  N_4
REMARK    4  A    between atoms: N_7  and  C_8
REMARK    5  A    between atoms: C_8  and  C_9
REMARK                            x       y       z     vdW  Elec       q    Type
REMARK                         _______ _______ _______ _____ _____    ______ ____
ROOT
ATOM      1  N   UNL     1       4.193  -0.299   1.283  0.00  0.00    +0.000 NA
ATOM      2  C   UNL     1       4.616  -1.547   1.963  0.00  0.00    +0.000 C 
ATOM      3  C   UNL     1       4.397  -1.532   3.494  0.00  0.00    +0.000 C 
ATOM      4  N   UNL     1       5.066  -0.409   4.188  0.00  0.00    +0.000 NA
ATOM      5  C   UNL     1       4.651   0.850   3.530  0.00  0.00    +0.000 C 
ATOM      6  C   UNL     1       4.793   0.855   1.985  0.00  0.00    +0.000 C 
ENDROOT
BRANCH   1   7
ATOM      7  C   UNL     1       2.719  -0.255   1.208  0.00  0.00    +0.000 C 
BRANCH   7   8
ATOM      8  C   UNL     1       2.137   0.932   0.415  0.00  0.00    +0.000 C 
BRANCH   8   9
ATOM      9  N   UNL     1       0.674   0.863   0.365  0.00  0.00    +0.000 NA
ATOM     10  H   UNL     1       0.317   1.701  -0.092  0.00  0.00    +0.000 HD
ATOM     11  H   UNL     1       0.300   0.875   1.314  0.00  0.00    +0.000 HD
ENDBRANCH   8   9
ENDBRANCH   7   8
ENDBRANCH   1   7
BRANCH   4  12
ATOM     12  C   UNL     1       6.539  -0.536   4.199  0.00  0.00    +0.000 C 
BRANCH  12  13
ATOM     13  C   UNL     1       6.945  -1.806   4.890  0.00  0.00    +0.000 A 
ATOM     14  C   UNL     1       6.690  -2.131   6.213  0.00  0.00    +0.000 A 
ATOM     15  N   UNL     1       7.090  -3.419   6.426  0.00  0.00    +0.000 N 
ATOM     16  C   UNL     1       7.620  -3.948   5.274  0.00  0.00    +0.000 A 
ATOM     17  C   UNL     1       8.103  -5.223   5.009  0.00  0.00    +0.000 A 
ATOM     18  N   UNL     1       8.593  -5.501   3.781  0.00  0.00    +0.000 NA
ATOM     19  C   UNL     1       8.601  -4.527   2.846  0.00  0.00    +0.000 A 
ATOM     20  C   UNL     1       8.119  -3.239   3.037  0.00  0.00    +0.000 A 
ATOM     21  C   UNL     1       7.595  -2.944   4.306  0.00  0.00    +0.000 A 
ATOM     22  H   UNL     1       6.983  -3.923   7.296  0.00  0.00    +0.000 HD
ENDBRANCH  12  13
ENDBRANCH   4  12
TORSDOF 5
