REMARK  Name = 
REMARK  6 active torsions:
REMARK  status: ('A' for Active; 'I' for Inactive)
REMARK    1  A    between atoms: C_1  and  C_2
REMARK    2  A    between atoms: C_9  and  C_10
REMARK    3  A    between atoms: C_10  and  N_11
REMARK    4  A    between atoms: N_11  and  C_12
REMARK    5  A    between atoms: C_15  and  C_16
REMARK    6  A    between atoms: C_25  and  C_26
REMARK                            x       y       z     vdW  Elec       q    Type
REMARK                         _______ _______ _______ _____ _____    ______ ____
ROOT
ATOM      1  C   UNL     1       2.402   4.660  -4.761  0.00  0.00    +0.000 C 
ATOM      2  C   UNL     1       2.765   4.855  -6.218  0.00  0.00    +0.000 C 
ATOM      3  C   UNL     1       3.830   4.429  -5.267  0.00  0.00    +0.000 C 
ENDROOT
BRANCH   1  12
ATOM      4  C   UNL     1       3.591  -1.151  -4.592  0.00  0.00    +0.000 C 
ATOM      5  C   UNL     1       3.646  -1.331  -3.076  0.00  0.00    +0.000 C 
ATOM      6  C   UNL     1       2.418  -0.766  -2.324  0.00  0.00    +0.000 C 
ATOM      7  N   UNL     1       2.475   0.691  -2.208  0.00  0.00    +0.000 N 
ATOM      8  C   UNL     1       1.780   1.433  -3.138  0.00  0.00    +0.000 A 
ATOM      9  N   UNL     1       0.672   0.946  -3.715  0.00  0.00    +0.000 NA
ATOM     10  C   UNL     1       0.032   1.736  -4.597  0.00  0.00    +0.000 A 
ATOM     11  C   UNL     1       0.479   2.982  -4.963  0.00  0.00    +0.000 A 
ATOM     12  C   UNL     1       1.649   3.394  -4.368  0.00  0.00    +0.000 A 
ATOM     13  N   UNL     1       2.255   2.643  -3.430  0.00  0.00    +0.000 NA
ATOM     14  C   UNL     1       3.768   1.216  -1.740  0.00  0.00    +0.000 C 
ATOM     15  C   UNL     1       4.944   0.615  -2.536  0.00  0.00    +0.000 C 
ATOM     16  C   UNL     1       6.275   1.008  -1.902  0.00  0.00    +0.000 C 
ATOM     17  O   UNL     1       4.886  -0.824  -2.544  0.00  0.00    +0.000 OA
ENDBRANCH   1  12
BRANCH   1  18
ATOM     18  N   UNL     1       2.331   5.738  -3.751  0.00  0.00    +0.000 N 
ATOM     19  H   UNL     1       2.501   5.412  -2.798  0.00  0.00    +0.000 HD
BRANCH  18  20
ATOM     20  C   UNL     1       1.419   6.802  -3.799  0.00  0.00    +0.000 A 
ATOM     21  C   UNL     1       1.391   7.723  -2.743  0.00  0.00    +0.000 A 
ATOM     22  C   UNL     1       0.575   8.851  -2.812  0.00  0.00    +0.000 A 
ATOM     23  C   UNL     1      -0.188   9.033  -3.955  0.00  0.00    +0.000 A 
ATOM     24  N   UNL     1      -0.182   8.176  -5.015  0.00  0.00    +0.000 NA
ATOM     25  C   UNL     1       0.629   7.100  -4.906  0.00  0.00    +0.000 A 
BRANCH  23  26
ATOM     26  C   UNL     1      -1.080  10.227  -4.095  0.00  0.00    +0.000 C 
ATOM     27  N   UNL     1      -1.769  10.280  -5.275  0.00  0.00    +0.000 N 
ATOM     28  O   UNL     1      -1.195  11.088  -3.229  0.00  0.00    +0.000 OA
ATOM     29  H   UNL     1      -1.639   9.539  -5.960  0.00  0.00    +0.000 HD
ATOM     30  H   UNL     1      -2.401  11.046  -5.465  0.00  0.00    +0.000 HD
ENDBRANCH  23  26
ENDBRANCH  18  20
ENDBRANCH   1  18
TORSDOF 4
