REMARK  Name = 
REMARK  4 active torsions:
REMARK  status: ('A' for Active; 'I' for Inactive)
REMARK    1  A    between atoms: C_2  and  C_4
REMARK    2  A    between atoms: C_7  and  C_8
REMARK    3  A    between atoms: C_8  and  C_9
REMARK    4  A    between atoms: C_9  and  C_10
REMARK                            x       y       z     vdW  Elec       q    Type
REMARK                         _______ _______ _______ _____ _____    ______ ____
ROOT
ATOM      1  C   UNL     1       2.427   0.336  -2.135  0.00  0.00    +0.000 A 
ATOM      2  C   UNL     1       3.767   0.085  -1.967  0.00  0.00    +0.000 A 
ATOM      3  N   UNL     1       4.729   0.987  -2.239  0.00  0.00    +0.000 NA
ATOM      4  C   UNL     1       4.334   2.160  -2.766  0.00  0.00    +0.000 A 
ATOM      5  N   UNL     1       3.043   2.501  -2.963  0.00  0.00    +0.000 NA
ATOM      6  C   UNL     1       2.113   1.573  -2.645  0.00  0.00    +0.000 A 
ENDROOT
BRANCH   1   8
ATOM      7  N   UNL     1       1.660  -1.603  -0.895  0.00  0.00    +0.000 N 
ATOM      8  C   UNL     1       1.376  -0.640  -1.824  0.00  0.00    +0.000 C 
ATOM      9  O   UNL     1       0.278  -0.576  -2.356  0.00  0.00    +0.000 OA
ATOM     10  H   UNL     1       0.894  -2.212  -0.633  0.00  0.00    +0.000 HD
ATOM     11  H   UNL     1       2.443  -1.551  -0.258  0.00  0.00    +0.000 HD
ENDBRANCH   1   8
BRANCH   4  12
ATOM     12  C   UNL     1       5.359   3.234  -3.029  0.00  0.00    +0.000 C 
BRANCH  12  13
ATOM     13  C   UNL     1       6.692   2.862  -3.688  0.00  0.00    +0.000 C 
ATOM     14  C   UNL     1       6.780   1.685  -4.648  0.00  0.00    +0.000 C 
ATOM     15  C   UNL     1       7.478   1.609  -3.320  0.00  0.00    +0.000 C 
BRANCH  13  16
ATOM     16  C   UNL     1       7.504   4.123  -3.970  0.00  0.00    +0.000 A 
ATOM     17  C   UNL     1       7.455   4.760  -5.222  0.00  0.00    +0.000 A 
ATOM     18  C   UNL     1       8.008   6.028  -5.414  0.00  0.00    +0.000 A 
ATOM     19  C   UNL     1       8.626   6.682  -4.351  0.00  0.00    +0.000 A 
ATOM     20  C   UNL     1       8.722   6.045  -3.122  0.00  0.00    +0.000 A 
ATOM     21  F   UNL     1       9.297   6.679  -2.092  0.00  0.00    +0.000 F 
ATOM     22  C   UNL     1       8.184   4.779  -2.929  0.00  0.00    +0.000 A 
ENDBRANCH  13  16
ENDBRANCH  12  13
ENDBRANCH   4  12
TORSDOF 4
