REMARK  Name = 
REMARK  7 active torsions:
REMARK  status: ('A' for Active; 'I' for Inactive)
REMARK    1  A    between atoms: N_1  and  C_2
REMARK    2  A    between atoms: C_2  and  C_3
REMARK    3  A    between atoms: C_2  and  C_19
REMARK    4  A    between atoms: C_3  and  C_4
REMARK    5  A    between atoms: C_7  and  C_8
REMARK    6  A    between atoms: C_8  and  N_9
REMARK    7  A    between atoms: C_10  and  C_12
REMARK                            x       y       z     vdW  Elec       q    Type
REMARK                         _______ _______ _______ _____ _____    ______ ____
ROOT
ATOM      1  C   UNL     1       2.523   0.936   2.349  0.00  0.00    +0.000 A 
ATOM      2  C   UNL     1       1.782   0.624   3.485  0.00  0.00    +0.000 A 
ATOM      3  C   UNL     1       1.427   1.649   4.362  0.00  0.00    +0.000 A 
ATOM      4  C   UNL     1       1.809   2.963   4.085  0.00  0.00    +0.000 A 
ATOM      5  C   UNL     1       2.557   3.178   2.936  0.00  0.00    +0.000 A 
ATOM      6  N   UNL     1       2.924   2.203   2.072  0.00  0.00    +0.000 NA
ENDROOT
BRANCH   1   7
ATOM      7  C   UNL     1       2.910  -0.136   1.355  0.00  0.00    +0.000 C 
BRANCH   7   8
ATOM      8  C   UNL     1       2.337   0.079  -0.066  0.00  0.00    +0.000 C 
BRANCH   8   9
ATOM      9  C   UNL     1       0.820   0.125  -0.087  0.00  0.00    +0.000 A 
ATOM     10  C   UNL     1       0.050   1.276   0.006  0.00  0.00    +0.000 A 
ATOM     11  S   UNL     1      -1.629   0.980  -0.034  0.00  0.00    +0.000 S 
ATOM     12  C   UNL     1      -1.387  -0.697  -0.170  0.00  0.00    +0.000 A 
ATOM     13  N   UNL     1      -2.440  -1.555  -0.250  0.00  0.00    +0.000 NA
ATOM     14  C   UNL     1      -2.103  -2.797  -0.350  0.00  0.00    +0.000 A 
ATOM     15  N   UNL     1      -0.810  -3.263  -0.365  0.00  0.00    +0.000 N 
ATOM     16  C   UNL     1       0.286  -2.440  -0.245  0.00  0.00    +0.000 A 
ATOM     17  O   UNL     1       1.426  -2.887  -0.180  0.00  0.00    +0.000 OA
ATOM     18  C   UNL     1      -0.045  -1.027  -0.172  0.00  0.00    +0.000 A 
ATOM     19  H   UNL     1      -0.620  -4.252  -0.420  0.00  0.00    +0.000 HD
ENDBRANCH   8   9
BRANCH   8  20
ATOM     20  N   UNL     1       2.861   1.292  -0.720  0.00  0.00    +0.000 NA
ATOM     21  H   UNL     1       3.877   1.223  -0.757  0.00  0.00    +0.000 HD
ATOM     22  H   UNL     1       2.714   2.065  -0.058  0.00  0.00    +0.000 HD
ENDBRANCH   8  20
ENDBRANCH   7   8
ENDBRANCH   1   7
BRANCH   4  23
ATOM     23  C   UNL     1       1.430   4.107   4.975  0.00  0.00    +0.000 C 
BRANCH  23  24
ATOM     24  N   UNL     1       2.411   4.375   5.993  0.00  0.00    +0.000 N 
ATOM     25  C   UNL     1       2.226   5.410   6.881  0.00  0.00    +0.000 C 
ATOM     26  O   UNL     1       1.250   6.151   6.859  0.00  0.00    +0.000 OA
ATOM     27  H   UNL     1       3.259   3.827   6.087  0.00  0.00    +0.000 HD
BRANCH  25  28
ATOM     28  C   UNL     1       3.309   5.549   7.857  0.00  0.00    +0.000 A 
ATOM     29  C   UNL     1       3.390   6.498   8.858  0.00  0.00    +0.000 A 
ATOM     30  N   UNL     1       4.561   6.243   9.513  0.00  0.00    +0.000 N 
ATOM     31  C   UNL     1       5.148   5.169   8.903  0.00  0.00    +0.000 A 
ATOM     32  N   UNL     1       4.423   4.722   7.903  0.00  0.00    +0.000 NA
ATOM     33  H   UNL     1       4.931   6.754  10.303  0.00  0.00    +0.000 HD
ENDBRANCH  25  28
ENDBRANCH  23  24
ENDBRANCH   4  23
TORSDOF 7
