REMARK  Name = 
REMARK  7 active torsions:
REMARK  status: ('A' for Active; 'I' for Inactive)
REMARK    1  A    between atoms: C_1  and  C_2
REMARK    2  A    between atoms: C_2  and  N_3
REMARK    3  A    between atoms: C_2  and  C_16
REMARK    4  A    between atoms: C_4  and  C_6
REMARK    5  A    between atoms: C_19  and  O_20
REMARK    6  A    between atoms: O_20  and  C_21
REMARK    7  A    between atoms: C_21  and  C_22
REMARK                            x       y       z     vdW  Elec       q    Type
REMARK                         _______ _______ _______ _____ _____    ______ ____
ROOT
ATOM      1  C   UNL     1       2.895  -1.264   0.885  0.00  0.00    +0.000 C 
ATOM      2  C   UNL     1       2.401  -0.107   0.009  0.00  0.00    +0.000 C 
ENDROOT
BRANCH   2   3
ATOM      3  C   UNL     1       2.912  -0.168  -1.419  0.00  0.00    +0.000 A 
ATOM      4  C   UNL     1       3.232   1.020  -2.097  0.00  0.00    +0.000 A 
ATOM      5  C   UNL     1       3.811   0.983  -3.370  0.00  0.00    +0.000 A 
ATOM      6  C   UNL     1       4.081  -0.240  -3.980  0.00  0.00    +0.000 A 
ATOM      7  C   UNL     1       3.673  -1.419  -3.358  0.00  0.00    +0.000 A 
ATOM      8  C   UNL     1       3.094  -1.383  -2.090  0.00  0.00    +0.000 A 
BRANCH   6   9
ATOM      9  O   UNL     1       4.755  -0.184  -5.171  0.00  0.00    +0.000 OA
BRANCH   9  10
ATOM     10  C   UNL     1       5.470  -1.380  -5.503  0.00  0.00    +0.000 C 
BRANCH  10  11
ATOM     11  C   UNL     1       6.561  -1.082  -6.501  0.00  0.00    +0.000 A 
ATOM     12  C   UNL     1       7.533  -0.143  -6.204  0.00  0.00    +0.000 A 
ATOM     13  C   UNL     1       8.525   0.023  -7.143  0.00  0.00    +0.000 A 
ATOM     14  N   UNL     1       8.584  -0.674  -8.291  0.00  0.00    +0.000 NA
ATOM     15  C   UNL     1       7.597  -1.562  -8.482  0.00  0.00    +0.000 A 
ATOM     16  N   UNL     1       6.584  -1.812  -7.639  0.00  0.00    +0.000 NA
ENDBRANCH  10  11
ENDBRANCH   9  10
ENDBRANCH   6   9
ENDBRANCH   2   3
BRANCH   2  17
ATOM     17  N   UNL     1       0.953  -0.028   0.032  0.00  0.00    +0.000 N 
ATOM     18  C   UNL     1       0.305   0.639   1.042  0.00  0.00    +0.000 C 
ATOM     19  O   UNL     1       0.918   1.245   1.917  0.00  0.00    +0.000 OA
ATOM     20  H   UNL     1       0.434  -0.661  -0.569  0.00  0.00    +0.000 HD
BRANCH  18  21
ATOM     21  C   UNL     1      -1.160   0.648   1.011  0.00  0.00    +0.000 A 
ATOM     22  C   UNL     1      -1.840   1.694   1.620  0.00  0.00    +0.000 A 
ATOM     23  S   UNL     1      -3.535   1.553   1.534  0.00  0.00    +0.000 S 
ATOM     24  C   UNL     1      -3.419   0.066   0.709  0.00  0.00    +0.000 A 
ATOM     25  N   UNL     1      -4.540  -0.629   0.377  0.00  0.00    +0.000 NA
ATOM     26  C   UNL     1      -4.308  -1.757  -0.206  0.00  0.00    +0.000 A 
ATOM     27  N   UNL     1      -3.059  -2.241  -0.506  0.00  0.00    +0.000 N 
ATOM     28  C   UNL     1      -1.902  -1.546  -0.233  0.00  0.00    +0.000 A 
ATOM     29  O   UNL     1      -0.803  -1.964  -0.586  0.00  0.00    +0.000 OA
ATOM     30  C   UNL     1      -2.105  -0.294   0.467  0.00  0.00    +0.000 A 
ATOM     31  H   UNL     1      -2.952  -3.119  -0.990  0.00  0.00    +0.000 HD
ENDBRANCH  18  21
ENDBRANCH   2  17
TORSDOF 6
