REMARK  Name = 
REMARK  9 active torsions:
REMARK  status: ('A' for Active; 'I' for Inactive)
REMARK    1  A    between atoms: C_1  and  O_2
REMARK    2  A    between atoms: O_2  and  C_3
REMARK    3  A    between atoms: C_10  and  C_11
REMARK    4  A    between atoms: N_13  and  C_14
REMARK    5  A    between atoms: C_14  and  C_15
REMARK    6  A    between atoms: C_18  and  C_19
REMARK    7  A    between atoms: C_19  and  N_20
REMARK    8  A    between atoms: N_20  and  C_21
REMARK    9  A    between atoms: C_21  and  C_22
REMARK                            x       y       z     vdW  Elec       q    Type
REMARK                         _______ _______ _______ _____ _____    ______ ____
ROOT
ATOM      1  C   UNL     1       2.904  -1.046  -3.254  0.00  0.00    +0.000 C 
ENDROOT
BRANCH   1   2
ATOM      2  C   UNL     1       1.717  -1.871  -2.828  0.00  0.00    +0.000 A 
ATOM      3  C   UNL     1       1.795  -3.269  -2.783  0.00  0.00    +0.000 A 
ATOM      4  C   UNL     1       0.709  -4.028  -2.335  0.00  0.00    +0.000 A 
ATOM      5  C   UNL     1      -0.482  -3.407  -1.928  0.00  0.00    +0.000 A 
ATOM      6  C   UNL     1      -0.575  -2.012  -2.025  0.00  0.00    +0.000 A 
ATOM      7  C   UNL     1       0.511  -1.253  -2.475  0.00  0.00    +0.000 A 
BRANCH   5   8
ATOM      8  C   UNL     1      -1.638  -4.226  -1.395  0.00  0.00    +0.000 C 
BRANCH   8   9
ATOM      9  N   UNL     1      -1.258  -4.960  -0.187  0.00  0.00    +0.000 NA
ATOM     10  H   UNL     1      -0.927  -4.296   0.512  0.00  0.00    +0.000 HD
BRANCH   9  11
ATOM     11  C   UNL     1      -2.388  -5.708   0.362  0.00  0.00    +0.000 C 
BRANCH  11  12
ATOM     12  C   UNL     1      -1.994  -6.450   1.617  0.00  0.00    +0.000 A 
ATOM     13  C   UNL     1      -2.622  -6.190   2.838  0.00  0.00    +0.000 A 
ATOM     14  C   UNL     1      -2.227  -6.909   3.958  0.00  0.00    +0.000 A 
ATOM     15  N   UNL     1      -1.265  -7.855   3.946  0.00  0.00    +0.000 NA
ATOM     16  C   UNL     1      -0.667  -8.092   2.757  0.00  0.00    +0.000 A 
ATOM     17  C   UNL     1      -0.995  -7.429   1.585  0.00  0.00    +0.000 A 
ENDBRANCH  11  12
ENDBRANCH   9  11
ENDBRANCH   8   9
ENDBRANCH   5   8
ENDBRANCH   1   2
BRANCH   1  20
ATOM     18  C   UNL     1       3.944  -0.153  -5.287  0.00  0.00    +0.000 C 
ATOM     19  O   UNL     1       4.861   0.335  -4.629  0.00  0.00    +0.000 OA
ATOM     20  N   UNL     1       2.928  -0.842  -4.680  0.00  0.00    +0.000 N 
ATOM     21  H   UNL     1       2.153  -1.197  -5.223  0.00  0.00    +0.000 HD
BRANCH  18  29
ATOM     22  C   UNL     1       1.770  -1.286  -7.717  0.00  0.00    +0.000 A 
ATOM     23  N   UNL     1       1.152  -1.659  -8.857  0.00  0.00    +0.000 NA
ATOM     24  C   UNL     1       1.695  -1.290 -10.019  0.00  0.00    +0.000 A 
ATOM     25  N   UNL     1       2.798  -0.570 -10.194  0.00  0.00    +0.000 NA
ATOM     26  C   UNL     1       3.392  -0.230  -9.038  0.00  0.00    +0.000 A 
ATOM     27  S   UNL     1       4.810   0.702  -9.073  0.00  0.00    +0.000 S 
ATOM     28  C   UNL     1       4.926   0.677  -7.380  0.00  0.00    +0.000 A 
ATOM     29  C   UNL     1       3.906  -0.032  -6.754  0.00  0.00    +0.000 A 
ATOM     30  C   UNL     1       2.970  -0.551  -7.750  0.00  0.00    +0.000 A 
BRANCH  22  32
ATOM     31  C   UNL     1      -0.056  -2.315  -6.652  0.00  0.00    +0.000 C 
ATOM     32  O   UNL     1       1.182  -1.619  -6.513  0.00  0.00    +0.000 OA
ENDBRANCH  22  32
ENDBRANCH  18  29
ENDBRANCH   1  20
TORSDOF 8
