REMARK  Name = 
REMARK  5 active torsions:
REMARK  status: ('A' for Active; 'I' for Inactive)
REMARK    1  A    between atoms: C_2  and  C_4
REMARK    2  A    between atoms: C_7  and  N_8
REMARK    3  A    between atoms: N_8  and  C_9
REMARK    4  A    between atoms: C_9  and  C_10
REMARK    5  A    between atoms: C_14  and  O_15
REMARK                            x       y       z     vdW  Elec       q    Type
REMARK                         _______ _______ _______ _____ _____    ______ ____
ROOT
ATOM      1  C   UNL     1       2.871   0.569   1.202  0.00  0.00    +0.000 A 
ATOM      2  C   UNL     1       2.323   1.279   2.273  0.00  0.00    +0.000 A 
ATOM      3  C   UNL     1       3.140   1.685   3.333  0.00  0.00    +0.000 A 
ATOM      4  C   UNL     1       4.504   1.379   3.339  0.00  0.00    +0.000 A 
ATOM      5  C   UNL     1       5.056   0.761   2.210  0.00  0.00    +0.000 A 
ATOM      6  C   UNL     1       4.246   0.336   1.154  0.00  0.00    +0.000 A 
ENDROOT
BRANCH   1   8
ATOM      7  N   UNL     1       0.858   0.634  -0.118  0.00  0.00    +0.000 NA
ATOM      8  C   UNL     1       1.975   0.036   0.139  0.00  0.00    +0.000 C 
ATOM      9  N   UNL     1       2.315  -1.104  -0.532  0.00  0.00    +0.000 N 
ATOM     10  H   UNL     1       0.381   0.159  -0.884  0.00  0.00    +0.000 HD
ATOM     11  H   UNL     1       1.539  -1.608  -0.946  0.00  0.00    +0.000 HD
ATOM     12  H   UNL     1       2.931  -1.734  -0.027  0.00  0.00    +0.000 HD
ENDBRANCH   1   8
BRANCH   4  13
ATOM     13  N   UNL     1       5.369   1.707   4.381  0.00  0.00    +0.000 N 
ATOM     14  H   UNL     1       5.924   2.532   4.158  0.00  0.00    +0.000 HD
BRANCH  13  15
ATOM     15  C   UNL     1       4.832   1.765   5.737  0.00  0.00    +0.000 C 
BRANCH  15  16
ATOM     16  C   UNL     1       5.951   1.469   6.705  0.00  0.00    +0.000 A 
ATOM     17  C   UNL     1       6.630   0.239   6.639  0.00  0.00    +0.000 A 
ATOM     18  C   UNL     1       7.677  -0.047   7.517  0.00  0.00    +0.000 A 
ATOM     19  C   UNL     1       8.058   0.894   8.472  0.00  0.00    +0.000 A 
ATOM     20  C   UNL     1       7.381   2.109   8.543  0.00  0.00    +0.000 A 
ATOM     21  C   UNL     1       6.330   2.399   7.679  0.00  0.00    +0.000 A 
BRANCH  20  22
ATOM     22  O   UNL     1       7.731   3.062   9.453  0.00  0.00    +0.000 OA
ATOM     23  H   UNL     1       8.537   2.769   9.909  0.00  0.00    +0.000 HD
ENDBRANCH  20  22
ENDBRANCH  15  16
ENDBRANCH  13  15
ENDBRANCH   4  13
TORSDOF 5
