REMARK  Name = 
REMARK  5 active torsions:
REMARK  status: ('A' for Active; 'I' for Inactive)
REMARK    1  A    between atoms: C_2  and  C_4
REMARK    2  A    between atoms: C_7  and  O_8
REMARK    3  A    between atoms: O_8  and  C_9
REMARK    4  A    between atoms: C_9  and  C_10
REMARK    5  A    between atoms: C_15  and  C_16
REMARK                            x       y       z     vdW  Elec       q    Type
REMARK                         _______ _______ _______ _____ _____    ______ ____
ROOT
ATOM      1  C   UNL     1       6.502  -3.349  -3.625  0.00  0.00    +0.000 C 
ENDROOT
BRANCH   1   2
ATOM      2  C   UNL     1       7.007  -3.992  -4.891  0.00  0.00    +0.000 A 
ATOM      3  C   UNL     1       7.635  -3.234  -5.880  0.00  0.00    +0.000 A 
ATOM      4  C   UNL     1       8.079  -3.854  -7.040  0.00  0.00    +0.000 A 
ATOM      5  F   UNL     1       8.678  -3.120  -7.987  0.00  0.00    +0.000 F 
ATOM      6  C   UNL     1       7.912  -5.222  -7.239  0.00  0.00    +0.000 A 
ATOM      7  C   UNL     1       7.277  -6.019  -6.273  0.00  0.00    +0.000 A 
ATOM      8  C   UNL     1       6.831  -5.373  -5.102  0.00  0.00    +0.000 A 
BRANCH   7   9
ATOM      9  C   UNL     1       7.077  -7.472  -6.472  0.00  0.00    +0.000 A 
ATOM     10  C   UNL     1       7.062  -8.381  -5.403  0.00  0.00    +0.000 A 
ATOM     11  C   UNL     1       6.853  -9.742  -5.623  0.00  0.00    +0.000 A 
ATOM     12  C   UNL     1       6.673 -10.177  -6.922  0.00  0.00    +0.000 A 
ATOM     13  N   UNL     1       6.682  -9.354  -7.988  0.00  0.00    +0.000 NA
ATOM     14  C   UNL     1       6.878  -8.034  -7.737  0.00  0.00    +0.000 A 
ENDBRANCH   7   9
ENDBRANCH   1   2
BRANCH   1  15
ATOM     15  O   UNL     1       7.179  -3.937  -2.513  0.00  0.00    +0.000 OA
BRANCH  15  19
ATOM     16  C   UNL     1       6.307  -2.737   1.274  0.00  0.00    +0.000 A 
ATOM     17  N   UNL     1       5.613  -2.112   0.292  0.00  0.00    +0.000 NA
ATOM     18  C   UNL     1       5.904  -2.507  -0.966  0.00  0.00    +0.000 A 
ATOM     19  C   UNL     1       6.833  -3.479  -1.281  0.00  0.00    +0.000 A 
ATOM     20  C   UNL     1       7.473  -4.038  -0.192  0.00  0.00    +0.000 A 
ATOM     21  N   UNL     1       7.237  -3.694   1.091  0.00  0.00    +0.000 NA
BRANCH  16  23
ATOM     22  N   UNL     1       5.016  -1.355   2.825  0.00  0.00    +0.000 N 
ATOM     23  C   UNL     1       5.990  -2.320   2.692  0.00  0.00    +0.000 C 
ATOM     24  O   UNL     1       6.535  -2.789   3.684  0.00  0.00    +0.000 OA
ATOM     25  H   UNL     1       4.758  -1.046   3.750  0.00  0.00    +0.000 HD
ATOM     26  H   UNL     1       4.559  -0.973   2.005  0.00  0.00    +0.000 HD
ENDBRANCH  16  23
ENDBRANCH  15  19
ENDBRANCH   1  15
TORSDOF 5
