REMARK  Name = 
REMARK  7 active torsions:
REMARK  status: ('A' for Active; 'I' for Inactive)
REMARK    1  A    between atoms: C_1  and  C_2
REMARK    2  A    between atoms: C_2  and  C_3
REMARK    3  A    between atoms: C_2  and  C_17
REMARK    4  A    between atoms: C_3  and  N_4
REMARK    5  A    between atoms: N_10  and  C_11
REMARK    6  A    between atoms: C_13  and  O_14
REMARK    7  A    between atoms: C_20  and  C_21
REMARK                            x       y       z     vdW  Elec       q    Type
REMARK                         _______ _______ _______ _____ _____    ______ ____
ROOT
ATOM      1  N   UNL     1       2.566   2.539  -0.130  0.00  0.00    +0.000 N 
ATOM      2  C   UNL     1       2.999   3.755   0.439  0.00  0.00    +0.000 A 
ATOM      3  C   UNL     1       2.740   4.932  -0.230  0.00  0.00    +0.000 A 
ATOM      4  C   UNL     1       3.151   6.081   0.398  0.00  0.00    +0.000 A 
ATOM      5  N   UNL     1       3.765   6.094   1.598  0.00  0.00    +0.000 NA
ATOM      6  C   UNL     1       4.009   4.904   2.162  0.00  0.00    +0.000 A 
ATOM      7  N   UNL     1       4.628   4.900   3.421  0.00  0.00    +0.000 N 
ATOM      8  N   UNL     1       3.657   3.740   1.609  0.00  0.00    +0.000 NA
ATOM      9  H   UNL     1       1.564   2.609  -0.289  0.00  0.00    +0.000 HD
ATOM     10  H   UNL     1       4.842   5.861   3.662  0.00  0.00    +0.000 HD
ENDROOT
BRANCH   7  11
ATOM     11  C   UNL     1       5.538   3.895   3.872  0.00  0.00    +0.000 C 
ATOM     12  C   UNL     1       4.892   2.513   4.095  0.00  0.00    +0.000 C 
ATOM     13  C   UNL     1       5.523   2.461   5.497  0.00  0.00    +0.000 C 
ATOM     14  C   UNL     1       5.824   3.969   5.391  0.00  0.00    +0.000 C 
BRANCH  13  15
ATOM     15  O   UNL     1       6.660   1.589   5.659  0.00  0.00    +0.000 OA
ATOM     16  H   UNL     1       7.279   1.825   4.947  0.00  0.00    +0.000 HD
ENDBRANCH  13  15
ENDBRANCH   7  11
BRANCH   1  17
ATOM     17  C   UNL     1       2.899   1.359   0.687  0.00  0.00    +0.000 C 
BRANCH  17  19
ATOM     18  C   UNL     1       3.080  -0.173  -1.320  0.00  0.00    +0.000 C 
ATOM     19  C   UNL     1       2.398   0.044   0.037  0.00  0.00    +0.000 C 
BRANCH  19  20
ATOM     20  C   UNL     1       0.877  -0.067  -0.061  0.00  0.00    +0.000 A 
ATOM     21  C   UNL     1       0.222  -0.317  -1.280  0.00  0.00    +0.000 A 
ATOM     22  C   UNL     1      -1.158  -0.512  -1.338  0.00  0.00    +0.000 A 
ATOM     23  C   UNL     1      -1.914  -0.456  -0.164  0.00  0.00    +0.000 A 
ATOM     24  C   UNL     1      -1.288  -0.180   1.048  0.00  0.00    +0.000 A 
ATOM     25  C   UNL     1       0.096   0.017   1.100  0.00  0.00    +0.000 A 
BRANCH  23  26
ATOM     26  C   UNL     1      -3.319  -0.714  -0.217  0.00  0.00    +0.000 C 
ATOM     27  N   UNL     1      -4.468  -0.933  -0.259  0.00  0.00    +0.000 NA
ENDBRANCH  23  26
ENDBRANCH  19  20
ENDBRANCH  17  19
ENDBRANCH   1  17
TORSDOF 6
