REMARK  Name = 
REMARK  10 active torsions:
REMARK  status: ('A' for Active; 'I' for Inactive)
REMARK    1  A    between atoms: C_1  and  C_2
REMARK    2  A    between atoms: C_5  and  N_6
REMARK    3  A    between atoms: N_6  and  C_7
REMARK    4  A    between atoms: C_7  and  C_8
REMARK    5  A    between atoms: C_8  and  C_9
REMARK    6  A    between atoms: C_8  and  C_10
REMARK    7  A    between atoms: C_8  and  C_11
REMARK    8  A    between atoms: C_15  and  C_16
REMARK    9  A    between atoms: C_16  and  C_17
REMARK   10  A    between atoms: C_22  and  C_23
REMARK                            x       y       z     vdW  Elec       q    Type
REMARK                         _______ _______ _______ _____ _____    ______ ____
ROOT
ATOM      1  C   UNL     1       3.968  -3.754  -0.108  0.00  0.00    +0.000 C 
ATOM      2  C   UNL     1       4.599  -3.251  -1.430  0.00  0.00    +0.000 C 
ATOM      3  C   UNL     1       4.786  -3.147   1.059  0.00  0.00    +0.000 C 
ENDROOT
BRANCH   1   4
ATOM      4  C   UNL     1       4.044  -5.297  -0.077  0.00  0.00    +0.000 A 
ATOM      5  C   UNL     1       5.287  -5.953  -0.102  0.00  0.00    +0.000 A 
ATOM      6  C   UNL     1       5.374  -7.350  -0.054  0.00  0.00    +0.000 A 
ATOM      7  C   UNL     1       4.220  -8.125   0.053  0.00  0.00    +0.000 A 
ATOM      8  C   UNL     1       2.969  -7.509   0.101  0.00  0.00    +0.000 A 
ATOM      9  C   UNL     1       2.897  -6.110  -0.011  0.00  0.00    +0.000 A 
BRANCH   8  10
ATOM     10  C   UNL     1       1.696  -8.301   0.326  0.00  0.00    +0.000 C 
BRANCH  10  11
ATOM     11  C   UNL     1       1.028  -8.778  -0.936  0.00  0.00    +0.000 C 
ATOM     12  C   UNL     1      -0.263  -8.580  -1.548  0.00  0.00    +0.000 C 
ATOM     13  N   UNL     1       0.110  -9.449  -2.496  0.00  0.00    +0.000 N 
ATOM     14  C   UNL     1       1.319  -9.522  -2.022  0.00  0.00    +0.000 C 
ATOM     15  H   UNL     1      -0.283  -9.499  -3.426  0.00  0.00    +0.000 HD
ENDBRANCH  10  11
ENDBRANCH   8  10
ENDBRANCH   1   4
BRANCH   1  16
ATOM     16  C   UNL     1       2.513  -3.167  -0.047  0.00  0.00    +0.000 C 
BRANCH  16  17
ATOM     17  N   UNL     1       1.814  -3.553   1.178  0.00  0.00    +0.000 N 
ATOM     18  H   UNL     1       2.388  -3.624   2.010  0.00  0.00    +0.000 HD
BRANCH  17  23
ATOM     19  C   UNL     1      -3.690  -2.767   2.267  0.00  0.00    +0.000 C 
ATOM     20  C   UNL     1      -2.243  -2.957   1.934  0.00  0.00    +0.000 A 
ATOM     21  C   UNL     1      -1.694  -2.409   0.787  0.00  0.00    +0.000 A 
ATOM     22  C   UNL     1      -0.336  -2.603   0.532  0.00  0.00    +0.000 A 
ATOM     23  C   UNL     1       0.470  -3.314   1.425  0.00  0.00    +0.000 A 
ATOM     24  C   UNL     1      -0.190  -3.880   2.534  0.00  0.00    +0.000 A 
ATOM     25  C   UNL     1       0.500  -4.783   3.519  0.00  0.00    +0.000 C 
ATOM     26  N   UNL     1      -1.512  -3.693   2.799  0.00  0.00    +0.000 NA
ENDBRANCH  17  23
ENDBRANCH  16  17
ENDBRANCH   1  16
TORSDOF 6
