REMARK  Name = 
REMARK  8 active torsions:
REMARK  status: ('A' for Active; 'I' for Inactive)
REMARK    1  A    between atoms: C_1  and  C_2
REMARK    2  A    between atoms: C_7  and  C_8
REMARK    3  A    between atoms: C_13  and  C_14
REMARK    4  A    between atoms: C_14  and  C_15
REMARK    5  A    between atoms: C_15  and  N_16
REMARK    6  A    between atoms: N_16  and  C_17
REMARK    7  A    between atoms: C_21  and  C_22
REMARK    8  A    between atoms: C_27  and  C_28
REMARK                            x       y       z     vdW  Elec       q    Type
REMARK                         _______ _______ _______ _____ _____    ______ ____
ROOT
ATOM      1  C   UNL     1       1.545  -2.257  -2.852  0.00  0.00    +0.000 C 
ATOM      2  C   UNL     1       2.506  -1.628  -1.850  0.00  0.00    +0.000 C 
ATOM      3  C   UNL     1       2.153  -0.178  -1.472  0.00  0.00    +0.000 C 
ATOM      4  N   UNL     1       2.692   0.794  -2.414  0.00  0.00    +0.000 N 
ATOM      5  C   UNL     1       1.849   1.560  -3.196  0.00  0.00    +0.000 A 
ATOM      6  C   UNL     1       2.280   2.827  -3.576  0.00  0.00    +0.000 A 
ATOM      7  C   UNL     1       1.459   3.644  -4.342  0.00  0.00    +0.000 A 
ATOM      8  C   UNL     1       0.204   3.171  -4.699  0.00  0.00    +0.000 A 
ATOM      9  C   UNL     1      -0.197   1.896  -4.304  0.00  0.00    +0.000 A 
ATOM     10  N   UNL     1       0.622   1.105  -3.558  0.00  0.00    +0.000 NA
ATOM     11  C   UNL     1       4.094   0.606  -2.798  0.00  0.00    +0.000 C 
ATOM     12  C   UNL     1       4.379  -0.854  -3.198  0.00  0.00    +0.000 C 
ATOM     13  C   UNL     1       3.940  -1.180  -4.620  0.00  0.00    +0.000 C 
ATOM     14  O   UNL     1       3.880  -1.801  -2.239  0.00  0.00    +0.000 OA
ENDROOT
BRANCH   7  15
ATOM     15  C   UNL     1       1.913   4.992  -4.824  0.00  0.00    +0.000 C 
ATOM     16  F   UNL     1       3.165   5.314  -4.408  0.00  0.00    +0.000 F 
ATOM     17  F   UNL     1       1.936   5.062  -6.184  0.00  0.00    +0.000 F 
ATOM     18  F   UNL     1       1.100   6.003  -4.413  0.00  0.00    +0.000 F 
ENDBRANCH   7  15
BRANCH   9  19
ATOM     19  C   UNL     1      -1.575   1.356  -4.667  0.00  0.00    +0.000 C 
BRANCH  19  20
ATOM     20  C   UNL     1      -2.451   2.326  -5.474  0.00  0.00    +0.000 C 
BRANCH  20  21
ATOM     21  N   UNL     1      -3.775   1.789  -5.811  0.00  0.00    +0.000 N 
ATOM     22  H   UNL     1      -4.262   1.412  -4.997  0.00  0.00    +0.000 HD
BRANCH  21  23
ATOM     23  C   UNL     1      -4.601   2.674  -6.539  0.00  0.00    +0.000 A 
ATOM     24  C   UNL     1      -5.996   2.617  -6.444  0.00  0.00    +0.000 A 
ATOM     25  N   UNL     1      -6.857   3.405  -7.136  0.00  0.00    +0.000 NA
ATOM     26  C   UNL     1      -6.310   4.279  -8.010  0.00  0.00    +0.000 A 
ATOM     27  C   UNL     1      -4.946   4.406  -8.214  0.00  0.00    +0.000 A 
ATOM     28  C   UNL     1      -4.093   3.581  -7.478  0.00  0.00    +0.000 A 
BRANCH  27  29
ATOM     29  C   UNL     1      -4.435   5.350  -9.167  0.00  0.00    +0.000 C 
ATOM     30  N   UNL     1      -4.023   6.104  -9.932  0.00  0.00    +0.000 NA
ENDBRANCH  27  29
ENDBRANCH  21  23
ENDBRANCH  20  21
ENDBRANCH  19  20
ENDBRANCH   9  19
TORSDOF 6
