REMARK  Name = 
REMARK  7 active torsions:
REMARK  status: ('A' for Active; 'I' for Inactive)
REMARK    1  A    between atoms: C_2  and  C_4
REMARK    2  A    between atoms: C_7  and  O_8
REMARK    3  A    between atoms: O_8  and  C_9
REMARK    4  A    between atoms: C_9  and  C_10
REMARK    5  A    between atoms: C_15  and  C_16
REMARK    6  A    between atoms: CA_20  and  C_21
REMARK    7  A    between atoms: C_21  and  O_22
REMARK                            x       y       z     vdW  Elec       q    Type
REMARK                         _______ _______ _______ _____ _____    ______ ____
ROOT
ATOM      1  C   UNL     1       6.269   4.547   4.461  0.00  0.00    +0.000 A 
ATOM      2  C   UNL     1       5.496   5.281   5.368  0.00  0.00    +0.000 A 
ATOM      3  C   UNL     1       5.860   5.349   6.706  0.00  0.00    +0.000 A 
ATOM      4  F   UNL     1       5.096   6.042   7.560  0.00  0.00    +0.000 F 
ATOM      5  C   UNL     1       6.995   4.698   7.183  0.00  0.00    +0.000 A 
ATOM      6  C   UNL     1       7.812   3.959   6.317  0.00  0.00    +0.000 A 
ATOM      7  C   UNL     1       7.431   3.918   4.960  0.00  0.00    +0.000 A 
ENDROOT
BRANCH   6   8
ATOM      8  C   UNL     1       9.004   3.223   6.801  0.00  0.00    +0.000 A 
ATOM      9  C   UNL     1       9.024   2.611   8.063  0.00  0.00    +0.000 A 
ATOM     10  C   UNL     1      10.146   1.902   8.458  0.00  0.00    +0.000 A 
ATOM     11  N   UNL     1      11.253   1.750   7.700  0.00  0.00    +0.000 NA
ATOM     12  CA  UNL     1      11.253   2.359   6.492  0.00  0.00    +0.000 A 
ATOM     13  C   UNL     1      10.159   3.082   6.013  0.00  0.00    +0.000 A 
BRANCH  12  14
ATOM     14  C   UNL     1      12.480   2.175   5.631  0.00  0.00    +0.000 C 
BRANCH  14  15
ATOM     15  O   UNL     1      12.385   0.974   4.872  0.00  0.00    +0.000 OA
ATOM     16  H   UNL     1      12.159   0.278   5.517  0.00  0.00    +0.000 HD
ENDBRANCH  14  15
ENDBRANCH  12  14
ENDBRANCH   6   8
BRANCH   1  17
ATOM     17  C   UNL     1       5.864   4.421   3.003  0.00  0.00    +0.000 C 
ATOM     18  C   UNL     1       5.997   3.054   2.330  0.00  0.00    +0.000 C 
ATOM     19  C   UNL     1       4.646   3.590   2.654  0.00  0.00    +0.000 C 
BRANCH  17  20
ATOM     20  O   UNL     1       6.343   5.462   2.126  0.00  0.00    +0.000 OA
BRANCH  20  24
ATOM     21  C   UNL     1       4.182   8.586   0.751  0.00  0.00    +0.000 A 
ATOM     22  C   UNL     1       5.511   8.693   1.085  0.00  0.00    +0.000 A 
ATOM     23  N   UNL     1       6.217   7.692   1.650  0.00  0.00    +0.000 NA
ATOM     24  C   UNL     1       5.538   6.563   1.925  0.00  0.00    +0.000 A 
ATOM     25  N   UNL     1       4.220   6.387   1.723  0.00  0.00    +0.000 NA
ATOM     26  C   UNL     1       3.563   7.419   1.142  0.00  0.00    +0.000 A 
BRANCH  21  28
ATOM     27  N   UNL     1       4.187  10.334  -0.923  0.00  0.00    +0.000 N 
ATOM     28  C   UNL     1       3.459   9.600  -0.025  0.00  0.00    +0.000 C 
ATOM     29  O   UNL     1       2.247   9.732   0.076  0.00  0.00    +0.000 OA
ATOM     30  H   UNL     1       3.657  10.919  -1.557  0.00  0.00    +0.000 HD
ATOM     31  H   UNL     1       5.120  10.076  -1.220  0.00  0.00    +0.000 HD
ENDBRANCH  21  28
ENDBRANCH  20  24
ENDBRANCH  17  20
ENDBRANCH   1  17
TORSDOF 7
