REMARK  Name = 
REMARK  3 active torsions:
REMARK  status: ('A' for Active; 'I' for Inactive)
REMARK    1  A    between atoms: C_2  and  C_4
REMARK    2  A    between atoms: N_8  and  C_9
REMARK    3  A    between atoms: C_9  and  C_10
REMARK                            x       y       z     vdW  Elec       q    Type
REMARK                         _______ _______ _______ _____ _____    ______ ____
ROOT
ATOM      1  C   UNL     1       4.130   2.891   1.550  0.00  0.00    +0.000 A 
ATOM      2  C   UNL     1       3.530   3.919   0.868  0.00  0.00    +0.000 A 
ATOM      3  N   UNL     1       3.885   4.288  -0.384  0.00  0.00    +0.000 NA
ATOM      4  C   UNL     1       4.904   3.623  -0.959  0.00  0.00    +0.000 A 
ATOM      5  N   UNL     1       5.161   3.964  -2.288  0.00  0.00    +0.000 N 
ATOM      6  N   UNL     1       5.592   2.649  -0.346  0.00  0.00    +0.000 NA
ATOM      7  C   UNL     1       5.185   2.297   0.897  0.00  0.00    +0.000 A 
ATOM      8  H   UNL     1       4.608   4.796  -2.466  0.00  0.00    +0.000 HD
ENDROOT
BRANCH   1  10
ATOM      9  N   UNL     1       2.404   2.587   3.233  0.00  0.00    +0.000 N 
ATOM     10  C   UNL     1       3.716   2.422   2.880  0.00  0.00    +0.000 C 
ATOM     11  O   UNL     1       4.505   1.859   3.621  0.00  0.00    +0.000 OA
ATOM     12  H   UNL     1       2.123   2.136   4.097  0.00  0.00    +0.000 HD
ATOM     13  H   UNL     1       1.671   2.793   2.570  0.00  0.00    +0.000 HD
ENDBRANCH   1  10
BRANCH   5  14
ATOM     14  C   UNL     1       6.521   3.937  -2.852  0.00  0.00    +0.000 C 
ATOM     15  C   UNL     1       6.621   3.282  -4.225  0.00  0.00    +0.000 C 
ATOM     16  C   UNL     1       7.308   2.659  -3.056  0.00  0.00    +0.000 C 
BRANCH  14  17
ATOM     17  C   UNL     1       7.286   5.228  -2.604  0.00  0.00    +0.000 A 
ATOM     18  C   UNL     1       7.228   6.311  -3.493  0.00  0.00    +0.000 A 
ATOM     19  C   UNL     1       7.843   7.521  -3.181  0.00  0.00    +0.000 A 
ATOM     20  C   UNL     1       8.517   7.621  -1.979  0.00  0.00    +0.000 A 
ATOM     21  F   UNL     1       9.074   8.795  -1.654  0.00  0.00    +0.000 F 
ATOM     22  N   UNL     1       8.634   6.609  -1.097  0.00  0.00    +0.000 NA
ATOM     23  C   UNL     1       8.017   5.446  -1.432  0.00  0.00    +0.000 A 
ENDBRANCH  14  17
ENDBRANCH   5  14
TORSDOF 3
