REMARK  Name = 
REMARK  7 active torsions:
REMARK  status: ('A' for Active; 'I' for Inactive)
REMARK    1  A    between atoms: C_2  and  C_3
REMARK    2  A    between atoms: C_2  and  C_13
REMARK    3  A    between atoms: C_3  and  N_4
REMARK    4  A    between atoms: C_5  and  C_7
REMARK    5  A    between atoms: C_16  and  C_17
REMARK    6  A    between atoms: C_17  and  N_18
REMARK    7  A    between atoms: C_19  and  C_21
REMARK                            x       y       z     vdW  Elec       q    Type
REMARK                         _______ _______ _______ _____ _____    ______ ____
ROOT
ATOM      1  C   UNL     1       3.134  -0.783   0.952  0.00  0.00    +0.000 A 
ATOM      2  C   UNL     1       2.683  -2.031   1.348  0.00  0.00    +0.000 A 
ATOM      3  C   UNL     1       3.443  -2.750   2.274  0.00  0.00    +0.000 A 
ATOM      4  C   UNL     1       4.635  -2.216   2.778  0.00  0.00    +0.000 A 
ATOM      5  C   UNL     1       4.992  -0.951   2.322  0.00  0.00    +0.000 A 
ATOM      6  N   UNL     1       4.283  -0.232   1.415  0.00  0.00    +0.000 NA
ENDROOT
BRANCH   1   8
ATOM      7  O   UNL     1       1.325  -0.472  -0.545  0.00  0.00    +0.000 OA
ATOM      8  C   UNL     1       2.357  -0.009  -0.062  0.00  0.00    +0.000 C 
BRANCH   8   9
ATOM      9  C   UNL     1       2.967   1.298  -0.540  0.00  0.00    +0.000 C 
BRANCH   9  10
ATOM     10  N   UNL     1       3.861   1.087  -1.663  0.00  0.00    +0.000 N 
ATOM     11  C   UNL     1       4.497   2.161  -2.243  0.00  0.00    +0.000 C 
ATOM     12  O   UNL     1       4.347   3.305  -1.834  0.00  0.00    +0.000 OA
ATOM     13  H   UNL     1       4.161   0.144  -1.874  0.00  0.00    +0.000 HD
BRANCH  11  14
ATOM     14  C   UNL     1       5.418   1.804  -3.414  0.00  0.00    +0.000 C 
ATOM     15  C   UNL     1       6.106   3.051  -3.994  0.00  0.00    +0.000 C 
ATOM     16  C   UNL     1       5.158   3.905  -4.838  0.00  0.00    +0.000 C 
ATOM     17  N   UNL     1       4.509   3.116  -5.887  0.00  0.00    +0.000 NA
ATOM     18  C   UNL     1       3.751   2.007  -5.310  0.00  0.00    +0.000 C 
ATOM     19  C   UNL     1       4.652   1.063  -4.516  0.00  0.00    +0.000 C 
ATOM     20  H   UNL     1       5.219   2.752  -6.521  0.00  0.00    +0.000 HD
ENDBRANCH  11  14
ENDBRANCH   9  10
ENDBRANCH   8   9
ENDBRANCH   1   8
BRANCH   4  21
ATOM     21  C   UNL     1       5.514  -2.956   3.756  0.00  0.00    +0.000 C 
BRANCH  21  22
ATOM     22  N   UNL     1       5.182  -2.686   5.130  0.00  0.00    +0.000 N 
ATOM     23  C   UNL     1       5.897  -3.238   6.175  0.00  0.00    +0.000 C 
ATOM     24  O   UNL     1       6.867  -3.961   6.002  0.00  0.00    +0.000 OA
ATOM     25  H   UNL     1       4.216  -2.436   5.317  0.00  0.00    +0.000 HD
BRANCH  23  26
ATOM     26  C   UNL     1       5.443  -2.844   7.519  0.00  0.00    +0.000 A 
ATOM     27  C   UNL     1       6.339  -2.799   8.581  0.00  0.00    +0.000 A 
ATOM     28  S   UNL     1       5.625  -2.285  10.047  0.00  0.00    +0.000 S 
ATOM     29  C   UNL     1       4.092  -2.161   9.328  0.00  0.00    +0.000 A 
ATOM     30  N   UNL     1       2.996  -1.796  10.050  0.00  0.00    +0.000 NA
ATOM     31  C   UNL     1       1.893  -1.779   9.382  0.00  0.00    +0.000 A 
ATOM     32  N   UNL     1       1.783  -2.079   8.047  0.00  0.00    +0.000 N 
ATOM     33  C   UNL     1       2.866  -2.381   7.265  0.00  0.00    +0.000 A 
ATOM     34  O   UNL     1       2.754  -2.541   6.052  0.00  0.00    +0.000 OA
ATOM     35  C   UNL     1       4.125  -2.465   7.976  0.00  0.00    +0.000 A 
ATOM     36  H   UNL     1       0.892  -2.019   7.575  0.00  0.00    +0.000 HD
ENDBRANCH  23  26
ENDBRANCH  21  22
ENDBRANCH   4  21
TORSDOF 7
