REMARK  Name = 
REMARK  8 active torsions:
REMARK  status: ('A' for Active; 'I' for Inactive)
REMARK    1  A    between atoms: C_1  and  C_2
REMARK    2  A    between atoms: C_2  and  C_3
REMARK    3  A    between atoms: C_2  and  C_13
REMARK    4  A    between atoms: C_7  and  S_8
REMARK    5  A    between atoms: S_8  and  C_9
REMARK    6  A    between atoms: C_13  and  C_14
REMARK    7  A    between atoms: C_13  and  N_15
REMARK    8  A    between atoms: C_16  and  C_18
REMARK                            x       y       z     vdW  Elec       q    Type
REMARK                         _______ _______ _______ _____ _____    ______ ____
ROOT
ATOM      1  N   UNL     1       4.517   1.291   0.682  0.00  0.00    +0.000 N 
ATOM      2  C   UNL     1       5.174   2.030  -0.269  0.00  0.00    +0.000 C 
ATOM      3  O   UNL     1       4.579   2.665  -1.142  0.00  0.00    +0.000 OA
ATOM      4  H   UNL     1       5.043   0.583   1.188  0.00  0.00    +0.000 HD
ENDROOT
BRANCH   2   5
ATOM      5  C   UNL     1       6.629   2.072  -0.176  0.00  0.00    +0.000 A 
ATOM      6  C   UNL     1       7.335   3.177  -0.627  0.00  0.00    +0.000 A 
ATOM      7  S   UNL     1       9.027   3.018  -0.441  0.00  0.00    +0.000 S 
ATOM      8  C   UNL     1       8.861   1.456   0.213  0.00  0.00    +0.000 A 
ATOM      9  N   UNL     1       9.948   0.713   0.559  0.00  0.00    +0.000 NA
ATOM     10  C   UNL     1       9.670  -0.461   1.012  0.00  0.00    +0.000 A 
ATOM     11  N   UNL     1       8.399  -0.964   1.164  0.00  0.00    +0.000 N 
ATOM     12  C   UNL     1       7.276  -0.244   0.854  0.00  0.00    +0.000 A 
ATOM     13  O   UNL     1       6.148  -0.702   1.047  0.00  0.00    +0.000 OA
ATOM     14  C   UNL     1       7.538   1.073   0.319  0.00  0.00    +0.000 A 
ATOM     15  H   UNL     1       8.248  -1.886   1.538  0.00  0.00    +0.000 HD
ENDBRANCH   2   5
BRANCH   1  16
ATOM     16  C   UNL     1       3.057   1.211   0.737  0.00  0.00    +0.000 C 
ATOM     17  C   UNL     1       2.614   1.123   2.205  0.00  0.00    +0.000 C 
BRANCH  16  19
ATOM     18  C   UNL     1       2.977  -0.039  -1.540  0.00  0.00    +0.000 C 
ATOM     19  C   UNL     1       2.482   0.016  -0.083  0.00  0.00    +0.000 C 
BRANCH  19  20
ATOM     20  C   UNL     1       0.954  -0.002  -0.103  0.00  0.00    +0.000 A 
ATOM     21  C   UNL     1       0.234   1.088  -0.621  0.00  0.00    +0.000 A 
ATOM     22  C   UNL     1      -1.155   1.033  -0.759  0.00  0.00    +0.000 A 
ATOM     23  C   UNL     1      -1.845  -0.131  -0.429  0.00  0.00    +0.000 A 
ATOM     24  C   UNL     1      -1.134  -1.221   0.075  0.00  0.00    +0.000 A 
ATOM     25  C   UNL     1       0.244  -1.139   0.308  0.00  0.00    +0.000 A 
BRANCH  24  26
ATOM     26  S   UNL     1      -1.958  -2.775   0.331  0.00  0.00    +0.000 S 
ATOM     27  C   UNL     1      -1.699  -3.624  -1.211  0.00  0.00    +0.000 C 
ATOM     28  O   UNL     1      -1.230  -3.488   1.368  0.00  0.00    +0.000 OA
ATOM     29  O   UNL     1      -3.376  -2.515   0.462  0.00  0.00    +0.000 OA
ENDBRANCH  24  26
ENDBRANCH  19  20
ENDBRANCH  16  19
ENDBRANCH   1  16
TORSDOF 5
