REMARK  Name = 
REMARK  5 active torsions:
REMARK  status: ('A' for Active; 'I' for Inactive)
REMARK    1  A    between atoms: C_2  and  C_18
REMARK    2  A    between atoms: N_3  and  C_4
REMARK    3  A    between atoms: C_4  and  C_5
REMARK    4  A    between atoms: C_8  and  C_9
REMARK    5  A    between atoms: C_9  and  N_10
REMARK                            x       y       z     vdW  Elec       q    Type
REMARK                         _______ _______ _______ _____ _____    ______ ____
ROOT
ATOM      1  O   UNL     1       1.007  -0.494  -0.336  0.00  0.00    +0.000 OA
ATOM      2  C   UNL     1       2.215  -0.310  -0.206  0.00  0.00    +0.000 C 
ATOM      3  N   UNL     1       2.861  -0.566   0.979  0.00  0.00    +0.000 N 
ATOM      4  H   UNL     1       3.803  -0.210   1.116  0.00  0.00    +0.000 HD
ENDROOT
BRANCH   2   5
ATOM      5  C   UNL     1       3.036   0.166  -1.325  0.00  0.00    +0.000 A 
ATOM      6  C   UNL     1       2.604  -0.035  -2.629  0.00  0.00    +0.000 A 
ATOM      7  S   UNL     1       3.660   0.603  -3.806  0.00  0.00    +0.000 S 
ATOM      8  C   UNL     1       4.707   1.211  -2.613  0.00  0.00    +0.000 A 
ATOM      9  N   UNL     1       5.814   1.938  -2.956  0.00  0.00    +0.000 NA
ATOM     10  C   UNL     1       6.498   2.367  -1.946  0.00  0.00    +0.000 A 
ATOM     11  N   UNL     1       6.191   2.121  -0.636  0.00  0.00    +0.000 N 
ATOM     12  C   UNL     1       5.110   1.370  -0.245  0.00  0.00    +0.000 A 
ATOM     13  O   UNL     1       4.887   1.134   0.938  0.00  0.00    +0.000 OA
ATOM     14  C   UNL     1       4.284   0.892  -1.337  0.00  0.00    +0.000 A 
ATOM     15  H   UNL     1       6.788   2.467   0.106  0.00  0.00    +0.000 HD
ENDBRANCH   2   5
BRANCH   3  16
ATOM     16  C   UNL     1       2.109  -0.938   2.153  0.00  0.00    +0.000 C 
BRANCH  16  17
ATOM     17  C   UNL     1       2.998  -1.151   3.341  0.00  0.00    +0.000 A 
ATOM     18  C   UNL     1       3.325  -0.089   4.182  0.00  0.00    +0.000 A 
ATOM     19  C   UNL     1       4.174  -0.295   5.264  0.00  0.00    +0.000 A 
ATOM     20  C   UNL     1       4.722  -1.559   5.470  0.00  0.00    +0.000 A 
ATOM     21  N   UNL     1       4.401  -2.616   4.679  0.00  0.00    +0.000 NA
ATOM     22  C   UNL     1       3.556  -2.389   3.640  0.00  0.00    +0.000 A 
BRANCH  20  23
ATOM     23  C   UNL     1       5.672  -1.780   6.636  0.00  0.00    +0.000 C 
BRANCH  23  24
ATOM     24  N   UNL     1       7.112  -1.518   6.464  0.00  0.00    +0.000 NA
ATOM     25  C   UNL     1       7.495  -0.191   5.980  0.00  0.00    +0.000 C 
ATOM     26  C   UNL     1       7.677  -0.018   4.448  0.00  0.00    +0.000 C 
ATOM     27  N   UNL     1       8.270  -1.136   3.698  0.00  0.00    +0.000 NA
ATOM     28  C   UNL     1       7.829  -2.442   4.214  0.00  0.00    +0.000 C 
ATOM     29  C   UNL     1       7.842  -2.566   5.749  0.00  0.00    +0.000 C 
ATOM     30  H   UNL     1       9.283  -1.087   3.767  0.00  0.00    +0.000 HD
ENDBRANCH  23  24
ENDBRANCH  20  23
ENDBRANCH  16  17
ENDBRANCH   3  16
TORSDOF 5
