REMARK  Name = 
REMARK  12 active torsions:
REMARK  status: ('A' for Active; 'I' for Inactive)
REMARK    1  A    between atoms: C_1  and  C_2
REMARK    2  A    between atoms: C_2  and  N_3
REMARK    3  A    between atoms: C_2  and  C_15
REMARK    4  A    between atoms: N_3  and  C_4
REMARK    5  A    between atoms: C_4  and  C_5
REMARK    6  A    between atoms: C_8  and  C_9
REMARK    7  A    between atoms: C_9  and  O_10
REMARK    8  A    between atoms: C_9  and  C_11
REMARK    9  A    between atoms: C_11  and  O_12
REMARK   10  A    between atoms: C_18  and  C_19
REMARK   11  A    between atoms: C_19  and  N_20
REMARK   12  A    between atoms: C_21  and  C_23
REMARK                            x       y       z     vdW  Elec       q    Type
REMARK                         _______ _______ _______ _____ _____    ______ ____
ROOT
ATOM      1  C   UNL     1       3.274   1.259   0.575  0.00  0.00    +0.000 A 
ATOM      2  C   UNL     1       3.661   1.282   1.916  0.00  0.00    +0.000 A 
ATOM      3  C   UNL     1       4.388   2.375   2.397  0.00  0.00    +0.000 A 
ATOM      4  C   UNL     1       4.696   3.438   1.546  0.00  0.00    +0.000 A 
ATOM      5  C   UNL     1       4.224   3.356   0.243  0.00  0.00    +0.000 A 
ATOM      6  N   UNL     1       3.523   2.308  -0.251  0.00  0.00    +0.000 NA
ENDROOT
BRANCH   1   8
ATOM      7  C   UNL     1       3.226  -0.217  -1.449  0.00  0.00    +0.000 C 
ATOM      8  C   UNL     1       2.674  -0.023  -0.026  0.00  0.00    +0.000 C 
BRANCH   8   9
ATOM      9  N   UNL     1       1.191  -0.068   0.028  0.00  0.00    +0.000 NA
ATOM     10  H   UNL     1       0.900   0.041   0.998  0.00  0.00    +0.000 HD
BRANCH   9  11
ATOM     11  C   UNL     1       0.670  -1.341  -0.492  0.00  0.00    +0.000 C 
BRANCH  11  12
ATOM     12  C   UNL     1      -0.820  -1.527  -0.358  0.00  0.00    +0.000 A 
ATOM     13  C   UNL     1      -1.739  -0.485  -0.483  0.00  0.00    +0.000 A 
ATOM     14  C   UNL     1      -3.108  -0.757  -0.471  0.00  0.00    +0.000 A 
ATOM     15  C   UNL     1      -3.535  -2.077  -0.350  0.00  0.00    +0.000 A 
ATOM     16  N   UNL     1      -2.665  -3.114  -0.248  0.00  0.00    +0.000 NA
ATOM     17  C   UNL     1      -1.344  -2.815  -0.257  0.00  0.00    +0.000 A 
BRANCH  15  18
ATOM     18  C   UNL     1      -5.014  -2.424  -0.367  0.00  0.00    +0.000 C 
BRANCH  18  19
ATOM     19  O   UNL     1      -5.260  -3.371  -1.415  0.00  0.00    +0.000 OA
ATOM     20  H   UNL     1      -4.427  -3.875  -1.508  0.00  0.00    +0.000 HD
ENDBRANCH  18  19
BRANCH  18  21
ATOM     21  C   UNL     1      -5.453  -3.042   0.970  0.00  0.00    +0.000 C 
BRANCH  21  22
ATOM     22  O   UNL     1      -5.324  -2.129   2.059  0.00  0.00    +0.000 OA
ATOM     23  H   UNL     1      -4.368  -2.012   2.210  0.00  0.00    +0.000 HD
ENDBRANCH  21  22
ENDBRANCH  18  21
ENDBRANCH  15  18
ENDBRANCH  11  12
ENDBRANCH   9  11
ENDBRANCH   8   9
ENDBRANCH   1   8
BRANCH   4  24
ATOM     24  C   UNL     1       5.551   4.590   1.989  0.00  0.00    +0.000 C 
BRANCH  24  25
ATOM     25  N   UNL     1       6.957   4.313   1.798  0.00  0.00    +0.000 N 
ATOM     26  C   UNL     1       7.917   5.186   2.247  0.00  0.00    +0.000 C 
ATOM     27  O   UNL     1       7.622   6.205   2.867  0.00  0.00    +0.000 OA
ATOM     28  H   UNL     1       7.210   3.604   1.116  0.00  0.00    +0.000 HD
BRANCH  26  29
ATOM     29  C   UNL     1       9.321   4.820   2.005  0.00  0.00    +0.000 A 
ATOM     30  C   UNL     1      10.318   5.376   2.797  0.00  0.00    +0.000 A 
ATOM     31  S   UNL     1      11.885   4.825   2.416  0.00  0.00    +0.000 S 
ATOM     32  C   UNL     1      11.296   3.866   1.141  0.00  0.00    +0.000 A 
ATOM     33  N   UNL     1      12.144   3.141   0.362  0.00  0.00    +0.000 NA
ATOM     34  C   UNL     1      11.565   2.487  -0.589  0.00  0.00    +0.000 A 
ATOM     35  N   UNL     1      10.216   2.481  -0.826  0.00  0.00    +0.000 N 
ATOM     36  C   UNL     1       9.319   3.167  -0.042  0.00  0.00    +0.000 A 
ATOM     37  O   UNL     1       8.111   3.091  -0.240  0.00  0.00    +0.000 OA
ATOM     38  C   UNL     1       9.919   3.941   1.027  0.00  0.00    +0.000 A 
ATOM     39  H   UNL     1       9.829   1.939  -1.582  0.00  0.00    +0.000 HD
ENDBRANCH  26  29
ENDBRANCH  24  25
ENDBRANCH   4  24
TORSDOF 11
