REMARK  Name = 
REMARK  9 active torsions:
REMARK  status: ('A' for Active; 'I' for Inactive)
REMARK    1  A    between atoms: C_1  and  O_2
REMARK    2  A    between atoms: O_2  and  C_3
REMARK    3  A    between atoms: C_10  and  C_11
REMARK    4  A    between atoms: N_13  and  C_14
REMARK    5  A    between atoms: C_14  and  C_15
REMARK    6  A    between atoms: C_18  and  C_19
REMARK    7  A    between atoms: C_19  and  C_20
REMARK    8  A    between atoms: C_20  and  N_21
REMARK    9  A    between atoms: N_21  and  C_22
REMARK                            x       y       z     vdW  Elec       q    Type
REMARK                         _______ _______ _______ _____ _____    ______ ____
ROOT
ATOM      1  C   UNL     1       2.817   2.678   2.136  0.00  0.00    +0.000 C 
ENDROOT
BRANCH   1   2
ATOM      2  C   UNL     1       1.625   3.146   1.357  0.00  0.00    +0.000 A 
ATOM      3  C   UNL     1       0.586   2.274   1.045  0.00  0.00    +0.000 A 
ATOM      4  C   UNL     1      -0.474   2.712   0.255  0.00  0.00    +0.000 A 
ATOM      5  C   UNL     1      -0.480   4.020  -0.231  0.00  0.00    +0.000 A 
ATOM      6  N   UNL     1       0.522   4.883   0.070  0.00  0.00    +0.000 NA
ATOM      7  C   UNL     1       1.537   4.437   0.852  0.00  0.00    +0.000 A 
BRANCH   5   8
ATOM      8  C   UNL     1      -1.575   4.564  -1.132  0.00  0.00    +0.000 C 
BRANCH   8   9
ATOM      9  C   UNL     1      -2.695   3.564  -1.435  0.00  0.00    +0.000 C 
BRANCH   9  10
ATOM     10  N   UNL     1      -3.735   4.107  -2.315  0.00  0.00    +0.000 N 
ATOM     11  H   UNL     1      -3.351   4.554  -3.146  0.00  0.00    +0.000 HD
BRANCH  10  12
ATOM     12  C   UNL     1      -4.772   3.212  -2.655  0.00  0.00    +0.000 A 
ATOM     13  C   UNL     1      -5.239   2.211  -1.796  0.00  0.00    +0.000 A 
ATOM     14  C   UNL     1      -6.303   1.388  -2.164  0.00  0.00    +0.000 A 
ATOM     15  C   UNL     1      -6.908   1.606  -3.386  0.00  0.00    +0.000 A 
ATOM     16  N   UNL     1      -6.535   2.585  -4.235  0.00  0.00    +0.000 NA
ATOM     17  C   UNL     1      -5.500   3.368  -3.840  0.00  0.00    +0.000 A 
ENDBRANCH  10  12
ENDBRANCH   9  10
ENDBRANCH   8   9
ENDBRANCH   5   8
ENDBRANCH   1   2
BRANCH   1  20
ATOM     18  C   UNL     1       4.961   1.544   1.755  0.00  0.00    +0.000 C 
ATOM     19  O   UNL     1       5.178   1.517   2.965  0.00  0.00    +0.000 OA
ATOM     20  N   UNL     1       3.814   2.105   1.262  0.00  0.00    +0.000 N 
ATOM     21  H   UNL     1       3.635   2.100   0.266  0.00  0.00    +0.000 HD
BRANCH  18  29
ATOM     22  C   UNL     1       5.009   1.253  -1.685  0.00  0.00    +0.000 A 
ATOM     23  N   UNL     1       5.268   0.975  -2.979  0.00  0.00    +0.000 NA
ATOM     24  C   UNL     1       6.408   0.343  -3.271  0.00  0.00    +0.000 A 
ATOM     25  N   UNL     1       7.342  -0.056  -2.413  0.00  0.00    +0.000 NA
ATOM     26  C   UNL     1       7.038   0.225  -1.135  0.00  0.00    +0.000 A 
ATOM     27  S   UNL     1       8.123  -0.209   0.095  0.00  0.00    +0.000 S 
ATOM     28  C   UNL     1       7.097   0.425   1.290  0.00  0.00    +0.000 A 
ATOM     29  C   UNL     1       5.920   0.975   0.793  0.00  0.00    +0.000 A 
ATOM     30  C   UNL     1       5.893   0.864  -0.664  0.00  0.00    +0.000 A 
BRANCH  22  32
ATOM     31  C   UNL     1       3.367   2.713  -2.473  0.00  0.00    +0.000 C 
ATOM     32  O   UNL     1       3.832   1.910  -1.388  0.00  0.00    +0.000 OA
ENDBRANCH  22  32
ENDBRANCH  18  29
ENDBRANCH   1  20
TORSDOF 8
