REMARK  Name = 
REMARK  9 active torsions:
REMARK  status: ('A' for Active; 'I' for Inactive)
REMARK    1  A    between atoms: C_1  and  C_2
REMARK    2  A    between atoms: C_2  and  C_3
REMARK    3  A    between atoms: C_6  and  N_7
REMARK    4  A    between atoms: N_7  and  C_8
REMARK    5  A    between atoms: C_12  and  C_13
REMARK    6  A    between atoms: C_13  and  C_14
REMARK    7  A    between atoms: C_14  and  N_15
REMARK    8  A    between atoms: N_15  and  C_16
REMARK    9  A    between atoms: C_19  and  C_20
REMARK                            x       y       z     vdW  Elec       q    Type
REMARK                         _______ _______ _______ _____ _____    ______ ____
ROOT
ATOM      1  C   UNL     1       6.918   0.355   0.192  0.00  0.00    +0.000 A 
ATOM      2  C   UNL     1       7.280  -0.979   0.385  0.00  0.00    +0.000 A 
ATOM      3  C   UNL     1       8.623  -1.357   0.412  0.00  0.00    +0.000 A 
ATOM      4  C   UNL     1       9.624  -0.408   0.192  0.00  0.00    +0.000 A 
ATOM      5  C   UNL     1       9.289   0.924  -0.077  0.00  0.00    +0.000 A 
ATOM      6  C   UNL     1       7.929   1.279  -0.071  0.00  0.00    +0.000 A 
ENDROOT
BRANCH   1   7
ATOM      7  N   UNL     1       5.565   0.679   0.158  0.00  0.00    +0.000 N 
ATOM      8  H   UNL     1       5.170   0.427  -0.747  0.00  0.00    +0.000 HD
BRANCH   7  14
ATOM      9  C   UNL     1       2.036   1.800   2.944  0.00  0.00    +0.000 C 
ATOM     10  C   UNL     1       3.273   1.274   2.216  0.00  0.00    +0.000 C 
ATOM     11  C   UNL     1       3.216  -0.261   2.151  0.00  0.00    +0.000 C 
ATOM     12  N   UNL     1       4.488   1.698   2.936  0.00  0.00    +0.000 NA
ATOM     13  C   UNL     1       5.385   2.400   1.991  0.00  0.00    +0.000 C 
ATOM     14  C   UNL     1       5.110   2.017   0.523  0.00  0.00    +0.000 C 
ATOM     15  S   UNL     1       3.315   1.952   0.527  0.00  0.00    +0.000 S 
ATOM     16  H   UNL     1       4.981   0.864   3.255  0.00  0.00    +0.000 HD
ENDBRANCH   7  14
ENDBRANCH   1   7
BRANCH   5  17
ATOM     17  C   UNL     1      10.388   1.928  -0.389  0.00  0.00    +0.000 C 
BRANCH  17  18
ATOM     18  C   UNL     1       9.867   3.347  -0.651  0.00  0.00    +0.000 C 
BRANCH  18  19
ATOM     19  N   UNL     1      10.921   4.299  -1.002  0.00  0.00    +0.000 N 
ATOM     20  H   UNL     1      11.531   3.939  -1.734  0.00  0.00    +0.000 HD
BRANCH  19  21
ATOM     21  C   UNL     1      10.457   5.594  -1.328  0.00  0.00    +0.000 A 
ATOM     22  C   UNL     1       9.359   6.194  -0.691  0.00  0.00    +0.000 A 
ATOM     23  C   UNL     1       8.964   7.500  -0.997  0.00  0.00    +0.000 A 
ATOM     24  C   UNL     1       9.686   8.252  -1.919  0.00  0.00    +0.000 A 
ATOM     25  C   UNL     1      10.800   7.684  -2.546  0.00  0.00    +0.000 A 
ATOM     26  C   UNL     1      11.187   6.372  -2.236  0.00  0.00    +0.000 A 
BRANCH  24  27
ATOM     27  C   UNL     1       9.240   9.644  -2.188  0.00  0.00    +0.000 C 
ATOM     28  N   UNL     1      10.186  10.527  -2.619  0.00  0.00    +0.000 N 
ATOM     29  O   UNL     1       8.085  10.001  -1.988  0.00  0.00    +0.000 OA
ATOM     30  H   UNL     1      11.171  10.343  -2.534  0.00  0.00    +0.000 HD
ATOM     31  H   UNL     1       9.894  11.499  -2.660  0.00  0.00    +0.000 HD
ENDBRANCH  24  27
ENDBRANCH  19  21
ENDBRANCH  18  19
ENDBRANCH  17  18
ENDBRANCH   5  17
TORSDOF 7
