REMARK  Name = 
REMARK  5 active torsions:
REMARK  status: ('A' for Active; 'I' for Inactive)
REMARK    1  A    between atoms: C_2  and  O_3
REMARK    2  A    between atoms: C_2  and  C_4
REMARK    3  A    between atoms: C_4  and  C_5
REMARK    4  A    between atoms: C_8  and  C_9
REMARK    5  A    between atoms: C_9  and  N_10
REMARK                            x       y       z     vdW  Elec       q    Type
REMARK                         _______ _______ _______ _____ _____    ______ ____
ROOT
ATOM      1  C   UNL     1       4.476   1.169   0.360  0.00  0.00    +0.000 A 
ATOM      2  N   UNL     1       5.051   1.158  -0.853  0.00  0.00    +0.000 NA
ATOM      3  C   UNL     1       6.367   0.860  -0.894  0.00  0.00    +0.000 A 
ATOM      4  C   UNL     1       7.135   0.585   0.218  0.00  0.00    +0.000 A 
ATOM      5  C   UNL     1       6.438   0.596   1.407  0.00  0.00    +0.000 A 
ATOM      6  N   UNL     1       5.110   0.839   1.503  0.00  0.00    +0.000 NA
ENDROOT
BRANCH   1   7
ATOM      7  C   UNL     1       3.030   1.548   0.464  0.00  0.00    +0.000 C 
BRANCH   7   9
ATOM      8  O   UNL     1       0.983   0.465  -0.150  0.00  0.00    +0.000 OA
ATOM      9  C   UNL     1       2.093   0.379   0.365  0.00  0.00    +0.000 C 
BRANCH   9  10
ATOM     10  O   UNL     1       2.491  -0.756   0.983  0.00  0.00    +0.000 OA
ATOM     11  H   UNL     1       3.371  -0.691   1.415  0.00  0.00    +0.000 HD
ENDBRANCH   9  10
ENDBRANCH   7   9
ENDBRANCH   1   7
BRANCH   4  12
ATOM     12  C   UNL     1       8.603   0.296   0.131  0.00  0.00    +0.000 C 
BRANCH  12  13
ATOM     13  N   UNL     1       9.437   1.476   0.249  0.00  0.00    +0.000 N 
ATOM     14  C   UNL     1       9.390   2.578  -0.719  0.00  0.00    +0.000 C 
ATOM     15  C   UNL     1      10.359   3.664  -0.216  0.00  0.00    +0.000 C 
ATOM     16  C   UNL     1      10.471   3.294   1.227  0.00  0.00    +0.000 A 
ATOM     17  C   UNL     1      11.061   4.023   2.248  0.00  0.00    +0.000 A 
ATOM     18  C   UNL     1      11.115   3.449   3.516  0.00  0.00    +0.000 A 
ATOM     19  C   UNL     1      10.595   2.164   3.731  0.00  0.00    +0.000 A 
ATOM     20  C   UNL     1      10.012   1.440   2.683  0.00  0.00    +0.000 A 
ATOM     21  C   UNL     1       9.938   2.013   1.425  0.00  0.00    +0.000 A 
ENDBRANCH  12  13
ENDBRANCH   4  12
TORSDOF 5
