REMARK  Name = 
REMARK  5 active torsions:
REMARK  status: ('A' for Active; 'I' for Inactive)
REMARK    1  A    between atoms: C_1  and  N_2
REMARK    2  A    between atoms: C_3  and  C_5
REMARK    3  A    between atoms: N_9  and  C_10
REMARK    4  A    between atoms: C_10  and  C_11
REMARK    5  A    between atoms: C_10  and  C_12
REMARK                            x       y       z     vdW  Elec       q    Type
REMARK                         _______ _______ _______ _____ _____    ______ ____
ROOT
ATOM      1  C   UNL     1       4.626  -0.751  -0.810  0.00  0.00    +0.000 A 
ATOM      2  C   UNL     1       5.253   0.125  -1.690  0.00  0.00    +0.000 A 
ATOM      3  C   UNL     1       6.645   0.102  -1.792  0.00  0.00    +0.000 A 
ATOM      4  C   UNL     1       7.392  -0.752  -0.982  0.00  0.00    +0.000 A 
ATOM      5  N   UNL     1       8.772  -0.656  -1.044  0.00  0.00    +0.000 N 
ATOM      6  N   UNL     1       6.795  -1.586  -0.109  0.00  0.00    +0.000 NA
ATOM      7  C   UNL     1       5.437  -1.581  -0.049  0.00  0.00    +0.000 A 
ATOM      8  H   UNL     1       9.169  -0.846  -1.959  0.00  0.00    +0.000 HD
ENDROOT
BRANCH   1  11
ATOM      9  C   UNL     1       0.940  -0.358  -1.581  0.00  0.00    +0.000 C 
ATOM     10  N   UNL     1       2.380  -0.354  -1.669  0.00  0.00    +0.000 N 
ATOM     11  C   UNL     1       3.156  -0.797  -0.620  0.00  0.00    +0.000 C 
ATOM     12  O   UNL     1       2.689  -1.227   0.431  0.00  0.00    +0.000 OA
ATOM     13  H   UNL     1       2.800  -0.165  -2.569  0.00  0.00    +0.000 HD
ENDBRANCH   1  11
BRANCH   5  14
ATOM     14  C   UNL     1       9.584  -1.176   0.053  0.00  0.00    +0.000 C 
ATOM     15  C   UNL     1       9.833  -2.679  -0.052  0.00  0.00    +0.000 C 
BRANCH  14  16
ATOM     16  C   UNL     1      10.924  -0.436   0.033  0.00  0.00    +0.000 A 
ATOM     17  C   UNL     1      11.282   0.380   1.106  0.00  0.00    +0.000 A 
ATOM     18  C   UNL     1      12.506   1.043   1.073  0.00  0.00    +0.000 A 
ATOM     19  C   UNL     1      13.336   0.887  -0.030  0.00  0.00    +0.000 A 
ATOM     20  C   UNL     1      12.903   0.075  -1.065  0.00  0.00    +0.000 A 
ATOM     21  N   UNL     1      11.723  -0.585  -1.062  0.00  0.00    +0.000 NA
ENDBRANCH  14  16
ENDBRANCH   5  14
TORSDOF 3
