REMARK  Name = 
REMARK  8 active torsions:
REMARK  status: ('A' for Active; 'I' for Inactive)
REMARK    1  A    between atoms: C_1  and  O_2
REMARK    2  A    between atoms: O_2  and  C_3
REMARK    3  A    between atoms: C_7  and  N_8
REMARK    4  A    between atoms: N_8  and  C_9
REMARK    5  A    between atoms: C_9  and  C_10
REMARK    6  A    between atoms: C_13  and  C_14
REMARK    7  A    between atoms: C_14  and  N_15
REMARK    8  A    between atoms: C_16  and  C_18
REMARK                            x       y       z     vdW  Elec       q    Type
REMARK                         _______ _______ _______ _____ _____    ______ ____
ROOT
ATOM      1  C   UNL     1       8.140   4.474   0.460  0.00  0.00    +0.000 A 
ATOM      2  C   UNL     1       9.076   3.568  -0.029  0.00  0.00    +0.000 A 
ATOM      3  N   UNL     1      10.183   3.943  -0.720  0.00  0.00    +0.000 NA
ATOM      4  C   UNL     1      10.323   5.278  -0.936  0.00  0.00    +0.000 A 
ATOM      5  C   UNL     1       9.386   6.183  -0.447  0.00  0.00    +0.000 A 
ATOM      6  N   UNL     1       8.283   5.808   0.247  0.00  0.00    +0.000 NA
ENDROOT
BRANCH   1   7
ATOM      7  C   UNL     1       6.932   3.995   1.235  0.00  0.00    +0.000 C 
BRANCH   7   8
ATOM      8  N   UNL     1       5.893   3.522   0.332  0.00  0.00    +0.000 N 
ATOM      9  H   UNL     1       5.697   4.162  -0.437  0.00  0.00    +0.000 HD
BRANCH   8  14
ATOM     10  C   UNL     1       2.381   3.027   0.498  0.00  0.00    +0.000 A 
ATOM     11  C   UNL     1       2.162   2.319   1.665  0.00  0.00    +0.000 A 
ATOM     12  C   UNL     1       3.259   2.030   2.461  0.00  0.00    +0.000 A 
ATOM     13  C   UNL     1       4.525   2.445   2.049  0.00  0.00    +0.000 A 
ATOM     14  C   UNL     1       4.663   3.152   0.858  0.00  0.00    +0.000 A 
ATOM     15  N   UNL     1       3.600   3.449   0.088  0.00  0.00    +0.000 NA
BRANCH  10  17
ATOM     16  C   UNL     1       1.558   4.030  -1.448  0.00  0.00    +0.000 C 
ATOM     17  O   UNL     1       1.262   3.280  -0.274  0.00  0.00    +0.000 OA
ENDBRANCH  10  17
ENDBRANCH   8  14
ENDBRANCH   7   8
ENDBRANCH   1   7
BRANCH   4  18
ATOM     18  C   UNL     1      11.518   5.756  -1.724  0.00  0.00    +0.000 C 
BRANCH  18  19
ATOM     19  N   UNL     1      12.665   6.057  -0.894  0.00  0.00    +0.000 N 
ATOM     20  C   UNL     1      12.824   7.271  -0.281  0.00  0.00    +0.000 C 
ATOM     21  O   UNL     1      11.990   8.165  -0.397  0.00  0.00    +0.000 OA
ATOM     22  H   UNL     1      13.398   5.357  -0.846  0.00  0.00    +0.000 HD
BRANCH  20  23
ATOM     23  C   UNL     1      14.007   7.434   0.571  0.00  0.00    +0.000 A 
ATOM     24  C   UNL     1      13.991   8.374   1.592  0.00  0.00    +0.000 A 
ATOM     25  S   UNL     1      15.434   8.426   2.498  0.00  0.00    +0.000 S 
ATOM     26  C   UNL     1      16.150   7.227   1.527  0.00  0.00    +0.000 A 
ATOM     27  N   UNL     1      17.427   6.819   1.753  0.00  0.00    +0.000 NA
ATOM     28  C   UNL     1      17.861   5.934   0.916  0.00  0.00    +0.000 A 
ATOM     29  N   UNL     1      17.126   5.415  -0.118  0.00  0.00    +0.000 N 
ATOM     30  C   UNL     1      15.814   5.758  -0.352  0.00  0.00    +0.000 A 
ATOM     31  O   UNL     1      15.158   5.211  -1.233  0.00  0.00    +0.000 OA
ATOM     32  C   UNL     1      15.291   6.774   0.541  0.00  0.00    +0.000 A 
ATOM     33  H   UNL     1      17.520   4.710  -0.726  0.00  0.00    +0.000 HD
ENDBRANCH  20  23
ENDBRANCH  18  19
ENDBRANCH   4  18
TORSDOF 7
