REMARK  Name = 
REMARK  8 active torsions:
REMARK  status: ('A' for Active; 'I' for Inactive)
REMARK    1  A    between atoms: C_1  and  O_2
REMARK    2  A    between atoms: O_2  and  C_3
REMARK    3  A    between atoms: C_3  and  C_4
REMARK    4  A    between atoms: C_4  and  N_5
REMARK    5  A    between atoms: C_4  and  C_15
REMARK    6  A    between atoms: N_5  and  C_6
REMARK    7  A    between atoms: C_9  and  C_10
REMARK    8  A    between atoms: C_10  and  N_11
REMARK                            x       y       z     vdW  Elec       q    Type
REMARK                         _______ _______ _______ _____ _____    ______ ____
ROOT
ATOM      1  N   UNL     1       2.792   1.058   0.931  0.00  0.00    +0.000 N 
ATOM      2  H   UNL     1       2.294   0.947   1.809  0.00  0.00    +0.000 HD
ENDROOT
BRANCH   1   3
ATOM      3  C   UNL     1       2.065   0.403  -0.073  0.00  0.00    +0.000 A 
ATOM      4  N   UNL     1       2.629  -0.622  -0.746  0.00  0.00    +0.000 NA
ATOM      5  C   UNL     1       1.909  -1.162  -1.759  0.00  0.00    +0.000 A 
ATOM      6  C   UNL     1       0.645  -0.708  -2.118  0.00  0.00    +0.000 A 
ATOM      7  N   UNL     1       0.045   0.297  -1.437  0.00  0.00    +0.000 NA
ATOM      8  C   UNL     1       0.763   0.835  -0.418  0.00  0.00    +0.000 A 
ATOM      9 BR   UNL     1      -0.055   2.279   0.521  0.00  0.00    +0.000 Br
BRANCH   6  10
ATOM     10  C   UNL     1      -0.096  -1.313  -3.284  0.00  0.00    +0.000 C 
BRANCH  10  11
ATOM     11  N   UNL     1       0.648  -1.224  -4.544  0.00  0.00    +0.000 NA
ATOM     12  H   UNL     1       0.758  -0.237  -4.781  0.00  0.00    +0.000 HD
ATOM     13  H   UNL     1       0.076  -1.621  -5.288  0.00  0.00    +0.000 HD
ENDBRANCH  10  11
ENDBRANCH   6  10
ENDBRANCH   1   3
BRANCH   1  14
ATOM     14  C   UNL     1       4.246   0.829   1.028  0.00  0.00    +0.000 C 
BRANCH  14  15
ATOM     15  C   UNL     1       4.787   1.520   2.329  0.00  0.00    +0.000 C 
ATOM     16  C   UNL     1       4.316   0.766   3.597  0.00  0.00    +0.000 C 
ATOM     17  C   UNL     1       4.689   1.470   4.901  0.00  0.00    +0.000 C 
ATOM     18  C   UNL     1       4.224   2.919   4.906  0.00  0.00    +0.000 C 
ATOM     19  C   UNL     1       4.822   3.671   3.729  0.00  0.00    +0.000 C 
ATOM     20  C   UNL     1       4.432   3.024   2.403  0.00  0.00    +0.000 C 
ENDBRANCH  14  15
BRANCH  14  21
ATOM     21  C   UNL     1       4.951   1.380  -0.244  0.00  0.00    +0.000 C 
BRANCH  21  23
ATOM     22  C   UNL     1       6.948   1.440  -1.490  0.00  0.00    +0.000 C 
ATOM     23  O   UNL     1       6.327   0.994  -0.286  0.00  0.00    +0.000 OA
ENDBRANCH  21  23
ENDBRANCH  14  21
ENDBRANCH   1  14
TORSDOF 7
