REMARK  Name = 
REMARK  10 active torsions:
REMARK  status: ('A' for Active; 'I' for Inactive)
REMARK    1  A    between atoms: C_1  and  O_2
REMARK    2  A    between atoms: O_2  and  C_3
REMARK    3  A    between atoms: C_10  and  C_11
REMARK    4  A    between atoms: N_13  and  C_14
REMARK    5  A    between atoms: C_14  and  C_15
REMARK    6  A    between atoms: C_18  and  C_19
REMARK    7  A    between atoms: C_19  and  S_20
REMARK    8  A    between atoms: S_20  and  C_21
REMARK    9  A    between atoms: C_21  and  C_22
REMARK   10  A    between atoms: C_21  and  N_23
REMARK                            x       y       z     vdW  Elec       q    Type
REMARK                         _______ _______ _______ _____ _____    ______ ____
ROOT
ATOM      1  C   UNL     1       4.374   0.519  -2.279  0.00  0.00    +0.000 C 
ATOM      2  O   UNL     1       4.992   0.587  -3.340  0.00  0.00    +0.000 OA
ATOM      3  N   UNL     1       3.333  -0.356  -2.123  0.00  0.00    +0.000 N 
ATOM      4  H   UNL     1       2.867  -0.446  -1.231  0.00  0.00    +0.000 HD
ENDROOT
BRANCH   1  12
ATOM      5  C   UNL     1       3.089   0.893   0.898  0.00  0.00    +0.000 A 
ATOM      6  N   UNL     1       2.745   1.304   2.136  0.00  0.00    +0.000 NA
ATOM      7  C   UNL     1       3.429   2.315   2.678  0.00  0.00    +0.000 A 
ATOM      8  N   UNL     1       4.446   2.976   2.136  0.00  0.00    +0.000 NA
ATOM      9  C   UNL     1       4.750   2.546   0.899  0.00  0.00    +0.000 A 
ATOM     10  S   UNL     1       6.034   3.272   0.058  0.00  0.00    +0.000 S 
ATOM     11  C   UNL     1       5.772   2.278  -1.293  0.00  0.00    +0.000 A 
ATOM     12  C   UNL     1       4.717   1.386  -1.142  0.00  0.00    +0.000 A 
ATOM     13  C   UNL     1       4.125   1.527   0.187  0.00  0.00    +0.000 A 
BRANCH   5  15
ATOM     14  C   UNL     1       1.427  -0.740   1.217  0.00  0.00    +0.000 C 
ATOM     15  O   UNL     1       2.418  -0.184   0.355  0.00  0.00    +0.000 OA
ENDBRANCH   5  15
ENDBRANCH   1  12
BRANCH   3  16
ATOM     16  C   UNL     1       2.903  -1.208  -3.202  0.00  0.00    +0.000 C 
BRANCH  16  17
ATOM     17  C   UNL     1       1.697  -2.024  -2.819  0.00  0.00    +0.000 A 
ATOM     18  C   UNL     1       0.404  -1.515  -3.000  0.00  0.00    +0.000 A 
ATOM     19  C   UNL     1      -0.716  -2.288  -2.680  0.00  0.00    +0.000 A 
ATOM     20  C   UNL     1      -0.568  -3.586  -2.170  0.00  0.00    +0.000 A 
ATOM     21  C   UNL     1       0.727  -4.072  -1.941  0.00  0.00    +0.000 A 
ATOM     22  C   UNL     1       1.847  -3.298  -2.260  0.00  0.00    +0.000 A 
BRANCH  20  23
ATOM     23  C   UNL     1      -1.770  -4.435  -1.841  0.00  0.00    +0.000 C 
BRANCH  23  24
ATOM     24  S   UNL     1      -2.869  -4.794  -3.247  0.00  0.00    +0.000 S 
BRANCH  24  25
ATOM     25  C   UNL     1      -1.737  -5.649  -4.392  0.00  0.00    +0.000 C 
ATOM     26  C   UNL     1      -1.186  -6.945  -3.804  0.00  0.00    +0.000 C 
BRANCH  25  27
ATOM     27  N   UNL     1      -2.508  -5.948  -5.591  0.00  0.00    +0.000 NA
ATOM     28  H   UNL     1      -3.376  -6.396  -5.303  0.00  0.00    +0.000 HD
ATOM     29  H   UNL     1      -2.009  -6.615  -6.174  0.00  0.00    +0.000 HD
ENDBRANCH  25  27
ENDBRANCH  24  25
ENDBRANCH  23  24
ENDBRANCH  20  23
ENDBRANCH  16  17
ENDBRANCH   3  16
TORSDOF 8
