REMARK  Name = 
REMARK  7 active torsions:
REMARK  status: ('A' for Active; 'I' for Inactive)
REMARK    1  A    between atoms: C_1  and  C_2
REMARK    2  A    between atoms: C_2  and  O_3
REMARK    3  A    between atoms: C_2  and  C_25
REMARK    4  A    between atoms: O_3  and  C_4
REMARK    5  A    between atoms: C_7  and  C_8
REMARK    6  A    between atoms: C_8  and  N_9
REMARK    7  A    between atoms: C_10  and  C_12
REMARK                            x       y       z     vdW  Elec       q    Type
REMARK                         _______ _______ _______ _____ _____    ______ ____
ROOT
ATOM      1  N   UNL     1       1.227  -6.991  -1.949  0.00  0.00    +0.000 N 
ATOM      2  C   UNL     1       0.756  -8.277  -2.051  0.00  0.00    +0.000 C 
ATOM      3  O   UNL     1       0.603  -8.992  -1.063  0.00  0.00    +0.000 OA
ATOM      4  H   UNL     1       1.553  -6.509  -2.781  0.00  0.00    +0.000 HD
ENDROOT
BRANCH   2   5
ATOM      5  C   UNL     1       0.383  -8.742  -3.393  0.00  0.00    +0.000 A 
ATOM      6  C   UNL     1      -0.517  -9.792  -3.529  0.00  0.00    +0.000 A 
ATOM      7  S   UNL     1      -0.871 -10.181  -5.151  0.00  0.00    +0.000 S 
ATOM      8  C   UNL     1       0.214  -9.005  -5.728  0.00  0.00    +0.000 A 
ATOM      9  N   UNL     1       0.433  -8.849  -7.060  0.00  0.00    +0.000 NA
ATOM     10  C   UNL     1       1.329  -7.964  -7.374  0.00  0.00    +0.000 A 
ATOM     11  N   UNL     1       1.656  -7.750  -8.672  0.00  0.00    +0.000 N 
ATOM     12  N   UNL     1       1.985  -7.203  -6.446  0.00  0.00    +0.000 N 
ATOM     13  C   UNL     1       1.778  -7.298  -5.090  0.00  0.00    +0.000 A 
ATOM     14  O   UNL     1       2.371  -6.572  -4.298  0.00  0.00    +0.000 OA
ATOM     15  C   UNL     1       0.815  -8.306  -4.700  0.00  0.00    +0.000 A 
ATOM     16  H   UNL     1       0.995  -8.154  -9.328  0.00  0.00    +0.000 HD
ATOM     17  H   UNL     1       2.018  -6.849  -8.950  0.00  0.00    +0.000 HD
ATOM     18  H   UNL     1       2.681  -6.538  -6.737  0.00  0.00    +0.000 HD
ENDBRANCH   2   5
BRANCH   1  19
ATOM     19  C   UNL     1       1.625  -6.456  -0.672  0.00  0.00    +0.000 C 
BRANCH  19  23
ATOM     20  C   UNL     1       2.774  -2.286  -0.847  0.00  0.00    +0.000 A 
ATOM     21  C   UNL     1       1.436  -2.644  -0.682  0.00  0.00    +0.000 A 
ATOM     22  C   UNL     1       1.057  -3.991  -0.636  0.00  0.00    +0.000 A 
ATOM     23  C   UNL     1       2.015  -5.003  -0.767  0.00  0.00    +0.000 A 
ATOM     24  C   UNL     1       3.346  -4.636  -0.999  0.00  0.00    +0.000 A 
ATOM     25  C   UNL     1       3.725  -3.287  -1.039  0.00  0.00    +0.000 A 
BRANCH  20  26
ATOM     26  O   UNL     1       3.027  -0.940  -0.826  0.00  0.00    +0.000 OA
BRANCH  26  28
ATOM     27  C   UNL     1       4.560  -0.746   1.074  0.00  0.00    +0.000 C 
ATOM     28  C   UNL     1       4.335  -0.498  -0.421  0.00  0.00    +0.000 C 
BRANCH  28  29
ATOM     29  C   UNL     1       4.495   1.000  -0.682  0.00  0.00    +0.000 A 
ATOM     30  C   UNL     1       3.416   1.878  -0.580  0.00  0.00    +0.000 A 
ATOM     31  C   UNL     1       3.638   3.245  -0.752  0.00  0.00    +0.000 A 
ATOM     32  C   UNL     1       4.924   3.701  -1.010  0.00  0.00    +0.000 A 
ATOM     33  C   UNL     1       5.942   2.769  -1.095  0.00  0.00    +0.000 A 
ATOM     34  N   UNL     1       5.759   1.437  -0.935  0.00  0.00    +0.000 NA
ENDBRANCH  28  29
ENDBRANCH  26  28
ENDBRANCH  20  26
ENDBRANCH  19  23
ENDBRANCH   1  19
TORSDOF 6
