REMARK  Name = 
REMARK  5 active torsions:
REMARK  status: ('A' for Active; 'I' for Inactive)
REMARK    1  A    between atoms: N_1  and  C_2
REMARK    2  A    between atoms: C_2  and  C_3
REMARK    3  A    between atoms: C_3  and  C_4
REMARK    4  A    between atoms: N_8  and  C_9
REMARK    5  A    between atoms: C_9  and  C_10
REMARK                            x       y       z     vdW  Elec       q    Type
REMARK                         _______ _______ _______ _____ _____    ______ ____
ROOT
ATOM      1  C   UNL     1       4.519   1.265  -0.499  0.00  0.00    +0.000 A 
ATOM      2  C   UNL     1       5.215   0.180  -1.022  0.00  0.00    +0.000 A 
ATOM      3  C   UNL     1       6.607   0.197  -1.030  0.00  0.00    +0.000 A 
ATOM      4  C   UNL     1       7.291   1.312  -0.554  0.00  0.00    +0.000 A 
ATOM      5  N   UNL     1       8.685   1.291  -0.639  0.00  0.00    +0.000 N 
ATOM      6  N   UNL     1       6.637   2.371  -0.041  0.00  0.00    +0.000 NA
ATOM      7  C   UNL     1       5.281   2.320  -0.007  0.00  0.00    +0.000 A 
ATOM      8  H   UNL     1       9.069   0.580  -0.017  0.00  0.00    +0.000 HD
ENDROOT
BRANCH   1   9
ATOM      9  C   UNL     1       3.015   1.283  -0.457  0.00  0.00    +0.000 C 
BRANCH   9  10
ATOM     10  C   UNL     1       2.466   0.595   0.797  0.00  0.00    +0.000 C 
BRANCH  10  11
ATOM     11  N   UNL     1       1.004   0.614   0.811  0.00  0.00    +0.000 NA
ATOM     12  H   UNL     1       0.670   0.132   1.646  0.00  0.00    +0.000 HD
ATOM     13  H   UNL     1       0.644   0.083   0.018  0.00  0.00    +0.000 HD
ENDBRANCH  10  11
ENDBRANCH   9  10
ENDBRANCH   1   9
BRANCH   5  14
ATOM     14  C   UNL     1       9.379   2.567  -0.446  0.00  0.00    +0.000 C 
BRANCH  14  15
ATOM     15  C   UNL     1      10.884   2.349  -0.347  0.00  0.00    +0.000 A 
ATOM     16  N   UNL     1      11.705   3.251  -0.929  0.00  0.00    +0.000 NA
ATOM     17  C   UNL     1      13.028   3.015  -0.834  0.00  0.00    +0.000 A 
ATOM     18  C   UNL     1      13.564   1.935  -0.175  0.00  0.00    +0.000 A 
ATOM     19  C   UNL     1      12.652   1.083   0.400  0.00  0.00    +0.000 A 
ATOM     20  N   UNL     1      11.321   1.260   0.343  0.00  0.00    +0.000 NA
ENDBRANCH  14  15
ENDBRANCH   5  14
TORSDOF 5
