REMARK  Name = 
REMARK  7 active torsions:
REMARK  status: ('A' for Active; 'I' for Inactive)
REMARK    1  A    between atoms: C_1  and  O_2
REMARK    2  A    between atoms: O_2  and  C_3
REMARK    3  A    between atoms: C_6  and  C_7
REMARK    4  A    between atoms: C_11  and  C_12
REMARK    5  A    between atoms: C_12  and  O_13
REMARK    6  A    between atoms: O_13  and  C_14
REMARK    7  A    between atoms: C_17  and  C_18
REMARK                            x       y       z     vdW  Elec       q    Type
REMARK                         _______ _______ _______ _____ _____    ______ ____
ROOT
ATOM      1  C   UNL     1       5.359  -4.713   0.485  0.00  0.00    +0.000 A 
ATOM      2  C   UNL     1       5.551  -5.274   1.749  0.00  0.00    +0.000 A 
ATOM      3  N   UNL     1       6.234  -6.418   2.003  0.00  0.00    +0.000 NA
ATOM      4  C   UNL     1       6.769  -7.051   0.939  0.00  0.00    +0.000 A 
ATOM      5  C   UNL     1       6.650  -6.603  -0.369  0.00  0.00    +0.000 A 
ATOM      6  C   UNL     1       5.941  -5.415  -0.583  0.00  0.00    +0.000 A 
ENDROOT
BRANCH   1  10
ATOM      7  C   UNL     1       3.043  -1.130  -0.185  0.00  0.00    +0.000 A 
ATOM      8  C   UNL     1       4.144  -1.418  -0.985  0.00  0.00    +0.000 A 
ATOM      9  C   UNL     1       4.904  -2.571  -0.751  0.00  0.00    +0.000 A 
ATOM     10  C   UNL     1       4.578  -3.476   0.275  0.00  0.00    +0.000 A 
ATOM     11  C   UNL     1       3.464  -3.162   1.073  0.00  0.00    +0.000 A 
ATOM     12  C   UNL     1       2.707  -2.007   0.843  0.00  0.00    +0.000 A 
BRANCH   7  14
ATOM     13  C   UNL     1       2.602   0.922  -1.286  0.00  0.00    +0.000 C 
ATOM     14  O   UNL     1       2.228  -0.038  -0.306  0.00  0.00    +0.000 OA
ENDBRANCH   7  14
ENDBRANCH   1  10
BRANCH   5  15
ATOM     15  C   UNL     1       7.249  -7.380  -1.507  0.00  0.00    +0.000 C 
BRANCH  15  16
ATOM     16  O   UNL     1       8.593  -6.946  -1.728  0.00  0.00    +0.000 OA
BRANCH  16  17
ATOM     17  C   UNL     1       9.201  -7.661  -2.741  0.00  0.00    +0.000 A 
ATOM     18  C   UNL     1      10.499  -7.310  -3.076  0.00  0.00    +0.000 A 
ATOM     19  C   UNL     1      11.139  -8.014  -4.101  0.00  0.00    +0.000 A 
ATOM     20  C   UNL     1      10.455  -9.045  -4.748  0.00  0.00    +0.000 A 
ATOM     21  C   UNL     1       9.156  -9.318  -4.344  0.00  0.00    +0.000 A 
ATOM     22  N   UNL     1       8.518  -8.653  -3.351  0.00  0.00    +0.000 NA
BRANCH  20  23
ATOM     23  C   UNL     1      11.022  -9.837  -5.861  0.00  0.00    +0.000 C 
ATOM     24  N   UNL     1      12.383  -9.931  -5.943  0.00  0.00    +0.000 N 
ATOM     25  O   UNL     1      10.300 -10.413  -6.663  0.00  0.00    +0.000 OA
ATOM     26  H   UNL     1      13.005  -9.659  -5.197  0.00  0.00    +0.000 HD
ATOM     27  H   UNL     1      12.747 -10.549  -6.658  0.00  0.00    +0.000 HD
ENDBRANCH  20  23
ENDBRANCH  16  17
ENDBRANCH  15  16
ENDBRANCH   5  15
TORSDOF 6
