REMARK  Name = 
REMARK  9 active torsions:
REMARK  status: ('A' for Active; 'I' for Inactive)
REMARK    1  A    between atoms: C_1  and  C_2
REMARK    2  A    between atoms: C_2  and  C_3
REMARK    3  A    between atoms: C_2  and  C_4
REMARK    4  A    between atoms: C_2  and  C_19
REMARK    5  A    between atoms: C_4  and  S_5
REMARK    6  A    between atoms: S_5  and  C_6
REMARK    7  A    between atoms: C_10  and  O_11
REMARK    8  A    between atoms: O_11  and  C_12
REMARK    9  A    between atoms: C_22  and  C_23
REMARK                            x       y       z     vdW  Elec       q    Type
REMARK                         _______ _______ _______ _____ _____    ______ ____
ROOT
ATOM      1  C   UNL     1       2.805  -1.258   0.692  0.00  0.00    +0.000 C 
ENDROOT
BRANCH   1   3
ATOM      2  C   UNL     1       3.099   1.264   0.750  0.00  0.00    +0.000 C 
ATOM      3  C   UNL     1       2.412   0.089   0.005  0.00  0.00    +0.000 C 
ATOM      4  C   UNL     1       3.017   0.084  -1.423  0.00  0.00    +0.000 C 
BRANCH   3   5
ATOM      5  C   UNL     1       0.879   0.253  -0.113  0.00  0.00    +0.000 A 
ATOM      6  C   UNL     1       0.201   1.343   0.459  0.00  0.00    +0.000 A 
ATOM      7  C   UNL     1      -1.185   1.484   0.346  0.00  0.00    +0.000 A 
ATOM      8  C   UNL     1      -1.938   0.540  -0.352  0.00  0.00    +0.000 A 
ATOM      9  C   UNL     1      -1.293  -0.561  -0.919  0.00  0.00    +0.000 A 
ATOM     10  C   UNL     1       0.099  -0.700  -0.799  0.00  0.00    +0.000 A 
BRANCH   8  11
ATOM     11  C   UNL     1      -3.407   0.748  -0.436  0.00  0.00    +0.000 C 
ATOM     12  N   UNL     1      -4.071   0.180  -1.487  0.00  0.00    +0.000 N 
ATOM     13  O   UNL     1      -4.010   1.441   0.377  0.00  0.00    +0.000 OA
ATOM     14  H   UNL     1      -3.590  -0.173  -2.302  0.00  0.00    +0.000 HD
ATOM     15  H   UNL     1      -5.042   0.446  -1.591  0.00  0.00    +0.000 HD
ENDBRANCH   8  11
ENDBRANCH   3   5
ENDBRANCH   1   3
BRANCH   1  16
ATOM     16  S   UNL     1       2.251  -1.400   2.436  0.00  0.00    +0.000 S 
BRANCH  16  17
ATOM     17  C   UNL     1       2.780  -3.056   2.834  0.00  0.00    +0.000 A 
ATOM     18  C   UNL     1       2.513  -3.538   4.109  0.00  0.00    +0.000 A 
ATOM     19  C   UNL     1       2.862  -4.848   4.415  0.00  0.00    +0.000 A 
ATOM     20  C   UNL     1       3.475  -5.633   3.440  0.00  0.00    +0.000 A 
ATOM     21  C   UNL     1       3.734  -5.065   2.202  0.00  0.00    +0.000 A 
ATOM     22  N   UNL     1       3.391  -3.798   1.886  0.00  0.00    +0.000 NA
BRANCH  21  23
ATOM     23  O   UNL     1       4.313  -5.738   1.157  0.00  0.00    +0.000 OA
BRANCH  23  24
ATOM     24  C   UNL     1       5.136  -6.891   1.421  0.00  0.00    +0.000 C 
ATOM     25  C   UNL     1       6.485  -6.652   2.133  0.00  0.00    +0.000 C 
ATOM     26  C   UNL     1       7.159  -7.573   1.101  0.00  0.00    +0.000 C 
ATOM     27  F   UNL     1       8.333  -7.130   0.602  0.00  0.00    +0.000 F 
ATOM     28  F   UNL     1       7.367  -8.844   1.516  0.00  0.00    +0.000 F 
ATOM     29  C   UNL     1       5.935  -7.378   0.192  0.00  0.00    +0.000 C 
ENDBRANCH  23  24
ENDBRANCH  21  23
ENDBRANCH  16  17
ENDBRANCH   1  16
TORSDOF 7
