REMARK  Name = 
REMARK  7 active torsions:
REMARK  status: ('A' for Active; 'I' for Inactive)
REMARK    1  A    between atoms: C_1  and  C_2
REMARK    2  A    between atoms: C_2  and  C_3
REMARK    3  A    between atoms: C_2  and  C_13
REMARK    4  A    between atoms: C_3  and  N_4
REMARK    5  A    between atoms: N_4  and  C_5
REMARK    6  A    between atoms: C_8  and  C_9
REMARK    7  A    between atoms: C_17  and  C_18
REMARK                            x       y       z     vdW  Elec       q    Type
REMARK                         _______ _______ _______ _____ _____    ______ ____
ROOT
ATOM      1  C   UNL     1       0.833  -0.032  -0.058  0.00  0.00    +0.000 C 
ATOM      2  C   UNL     1       2.367  -0.052  -0.012  0.00  0.00    +0.000 C 
ENDROOT
BRANCH   2   3
ATOM      3  C   UNL     1       2.935  -0.313  -1.402  0.00  0.00    +0.000 A 
ATOM      4  C   UNL     1       3.753   0.638  -2.021  0.00  0.00    +0.000 A 
ATOM      5  C   UNL     1       4.292   0.385  -3.281  0.00  0.00    +0.000 A 
ATOM      6  C   UNL     1       4.038  -0.827  -3.928  0.00  0.00    +0.000 A 
ATOM      7  C   UNL     1       3.242  -1.820  -3.332  0.00  0.00    +0.000 A 
ATOM      8  C   UNL     1       2.682  -1.524  -2.075  0.00  0.00    +0.000 A 
BRANCH   7   9
ATOM      9  C   UNL     1       3.034  -3.139  -3.968  0.00  0.00    +0.000 A 
ATOM     10  C   UNL     1       1.851  -3.867  -3.820  0.00  0.00    +0.000 A 
ATOM     11  C   UNL     1       1.744  -5.112  -4.415  0.00  0.00    +0.000 A 
ATOM     12  N   UNL     1       2.734  -5.660  -5.144  0.00  0.00    +0.000 NA
ATOM     13  N   UNL     1       3.890  -4.976  -5.303  0.00  0.00    +0.000 NA
ATOM     14  C   UNL     1       4.024  -3.759  -4.725  0.00  0.00    +0.000 A 
ENDBRANCH   7   9
ENDBRANCH   2   3
BRANCH   2  15
ATOM     15  C   UNL     1       2.916  -1.092   0.995  0.00  0.00    +0.000 C 
BRANCH  15  16
ATOM     16  N   UNL     1       2.559  -0.763   2.373  0.00  0.00    +0.000 N 
ATOM     17  H   UNL     1       1.687  -0.262   2.503  0.00  0.00    +0.000 HD
BRANCH  16  18
ATOM     18  C   UNL     1       2.881  -1.615   3.428  0.00  0.00    +0.000 A 
ATOM     19  C   UNL     1       3.755  -2.702   3.312  0.00  0.00    +0.000 A 
ATOM     20  C   UNL     1       4.169  -3.431   4.435  0.00  0.00    +0.000 A 
ATOM     21  C   UNL     1       3.724  -3.072   5.710  0.00  0.00    +0.000 A 
ATOM     22  C   UNL     1       2.842  -2.000   5.844  0.00  0.00    +0.000 A 
ATOM     23  C   UNL     1       2.431  -1.280   4.714  0.00  0.00    +0.000 A 
BRANCH  21  24
ATOM     24  C   UNL     1       4.192  -3.778   6.869  0.00  0.00    +0.000 C 
ATOM     25  N   UNL     1       4.583  -4.341   7.803  0.00  0.00    +0.000 NA
ENDBRANCH  21  24
ENDBRANCH  16  18
ENDBRANCH  15  16
ENDBRANCH   2  15
TORSDOF 6
