REMARK  Name = 
REMARK  6 active torsions:
REMARK  status: ('A' for Active; 'I' for Inactive)
REMARK    1  A    between atoms: C_2  and  C_5
REMARK    2  A    between atoms: C_9  and  N_10
REMARK    3  A    between atoms: N_10  and  C_11
REMARK    4  A    between atoms: C_11  and  C_12
REMARK    5  A    between atoms: C_16  and  C_17
REMARK    6  A    between atoms: C_21  and  C_22
REMARK                            x       y       z     vdW  Elec       q    Type
REMARK                         _______ _______ _______ _____ _____    ______ ____
ROOT
ATOM      1  C   UNL     1       4.079   4.376  -4.713  0.00  0.00    +0.000 A 
ATOM      2  C   UNL     1       3.453   5.624  -4.606  0.00  0.00    +0.000 A 
ATOM      3  C   UNL     1       3.789   6.653  -5.483  0.00  0.00    +0.000 A 
ATOM      4  C   UNL     1       4.755   6.446  -6.471  0.00  0.00    +0.000 A 
ATOM      5  C   UNL     1       5.398   5.204  -6.622  0.00  0.00    +0.000 A 
ATOM      6  C   UNL     1       5.024   4.173  -5.735  0.00  0.00    +0.000 A 
ENDROOT
BRANCH   5   7
ATOM      7  C   UNL     1       6.464   5.024  -7.634  0.00  0.00    +0.000 A 
ATOM      8  C   UNL     1       6.704   3.818  -8.267  0.00  0.00    +0.000 A 
ATOM      9  C   UNL     1       7.758   3.784  -9.148  0.00  0.00    +0.000 A 
ATOM     10  N   UNL     1       8.541   4.841  -9.414  0.00  0.00    +0.000 NA
ATOM     11  C   UNL     1       8.250   5.997  -8.771  0.00  0.00    +0.000 A 
ATOM     12  N   UNL     1       7.223   6.115  -7.889  0.00  0.00    +0.000 NA
BRANCH  11  13
ATOM     13  C   UNL     1       9.123   7.231  -9.039  0.00  0.00    +0.000 C 
ATOM     14  F   UNL     1      10.128   7.014  -9.943  0.00  0.00    +0.000 F 
ATOM     15  F   UNL     1       8.417   8.291  -9.537  0.00  0.00    +0.000 F 
ATOM     16  F   UNL     1       9.749   7.702  -7.917  0.00  0.00    +0.000 F 
ENDBRANCH  11  13
ENDBRANCH   5   7
BRANCH   1  17
ATOM     17  C   UNL     1       3.796   3.293  -3.698  0.00  0.00    +0.000 C 
BRANCH  17  18
ATOM     18  N   UNL     1       2.656   2.480  -4.089  0.00  0.00    +0.000 N 
ATOM     19  H   UNL     1       1.896   3.016  -4.507  0.00  0.00    +0.000 HD
BRANCH  18  24
ATOM     20  C   UNL     1       2.434  -0.036  -1.323  0.00  0.00    +0.000 A 
ATOM     21  C   UNL     1       1.274  -0.671  -1.729  0.00  0.00    +0.000 A 
ATOM     22  N   UNL     1       0.572  -0.310  -2.823  0.00  0.00    +0.000 NA
ATOM     23  C   UNL     1       1.055   0.736  -3.543  0.00  0.00    +0.000 A 
ATOM     24  C   UNL     1       2.199   1.475  -3.229  0.00  0.00    +0.000 A 
ATOM     25  C   UNL     1       2.899   1.037  -2.101  0.00  0.00    +0.000 A 
BRANCH  20  27
ATOM     26  F   UNL     1       2.601  -1.538   0.536  0.00  0.00    +0.000 F 
ATOM     27  C   UNL     1       3.171  -0.477  -0.099  0.00  0.00    +0.000 C 
ATOM     28  F   UNL     1       3.261   0.511   0.835  0.00  0.00    +0.000 F 
ATOM     29  F   UNL     1       4.453  -0.848  -0.368  0.00  0.00    +0.000 F 
ENDBRANCH  20  27
ENDBRANCH  18  24
ENDBRANCH  17  18
ENDBRANCH   1  17
TORSDOF 6
