REMARK  Name = 
REMARK  4 active torsions:
REMARK  status: ('A' for Active; 'I' for Inactive)
REMARK    1  A    between atoms: C_2  and  C_3
REMARK    2  A    between atoms: N_7  and  C_8
REMARK    3  A    between atoms: C_8  and  C_9
REMARK    4  A    between atoms: C_11  and  C_12
REMARK                            x       y       z     vdW  Elec       q    Type
REMARK                         _______ _______ _______ _____ _____    ______ ____
ROOT
ATOM      1  C   UNL     1       5.770   1.068  -0.047  0.00  0.00    +0.000 A 
ATOM      2  C   UNL     1       6.647   2.156  -0.045  0.00  0.00    +0.000 A 
ATOM      3  C   UNL     1       8.037   1.956  -0.080  0.00  0.00    +0.000 A 
ATOM      4  C   UNL     1       8.478   0.628  -0.095  0.00  0.00    +0.000 A 
ATOM      5  C   UNL     1       7.549  -0.401  -0.081  0.00  0.00    +0.000 A 
ATOM      6  N   UNL     1       6.213  -0.213  -0.066  0.00  0.00    +0.000 NA
ENDROOT
BRANCH   3   7
ATOM      7  C   UNL     1       8.983   3.094  -0.109  0.00  0.00    +0.000 A 
ATOM      8  C   UNL     1      10.264   3.026   0.459  0.00  0.00    +0.000 A 
ATOM      9  C   UNL     1      11.137   4.113   0.391  0.00  0.00    +0.000 A 
ATOM     10  C   UNL     1      10.704   5.265  -0.238  0.00  0.00    +0.000 A 
ATOM     11  N   UNL     1       9.483   5.394  -0.791  0.00  0.00    +0.000 NA
ATOM     12  C   UNL     1       8.665   4.314  -0.717  0.00  0.00    +0.000 A 
ENDBRANCH   3   7
BRANCH   1  13
ATOM     13  C   UNL     1       4.271   1.299   0.007  0.00  0.00    +0.000 C 
BRANCH  13  18
ATOM     14  C   UNL     1       3.487   4.918  -3.389  0.00  0.00    +0.000 A 
ATOM     15  C   UNL     1       3.981   4.858  -2.113  0.00  0.00    +0.000 A 
ATOM     16  N   UNL     1       4.062   3.715  -1.398  0.00  0.00    +0.000 NA
ATOM     17  C   UNL     1       3.649   2.584  -1.989  0.00  0.00    +0.000 A 
ATOM     18  N   UNL     1       3.645   1.406  -1.295  0.00  0.00    +0.000 N 
ATOM     19  N   UNL     1       3.177   2.543  -3.246  0.00  0.00    +0.000 NA
ATOM     20  C   UNL     1       3.093   3.712  -3.914  0.00  0.00    +0.000 A 
ATOM     21  H   UNL     1       3.610   0.584  -1.882  0.00  0.00    +0.000 HD
BRANCH  14  23
ATOM     22  N   UNL     1       3.304   7.137  -4.697  0.00  0.00    +0.000 NA
ATOM     23  C   UNL     1       3.385   6.139  -4.109  0.00  0.00    +0.000 C 
ENDBRANCH  14  23
ENDBRANCH  13  18
ENDBRANCH   1  13
TORSDOF 4
