REMARK  Name = 
REMARK  7 active torsions:
REMARK  status: ('A' for Active; 'I' for Inactive)
REMARK    1  A    between atoms: C_1  and  C_2
REMARK    2  A    between atoms: C_2  and  C_3
REMARK    3  A    between atoms: C_2  and  C_4
REMARK    4  A    between atoms: C_2  and  C_5
REMARK    5  A    between atoms: C_8  and  C_9
REMARK    6  A    between atoms: N_16  and  C_17
REMARK    7  A    between atoms: C_17  and  C_18
REMARK                            x       y       z     vdW  Elec       q    Type
REMARK                         _______ _______ _______ _____ _____    ______ ____
ROOT
ATOM      1  C   UNL     1       3.019   1.300   0.732  0.00  0.00    +0.000 A 
ATOM      2  N   UNL     1       2.592   2.490   0.324  0.00  0.00    +0.000 NA
ATOM      3  C   UNL     1       3.154   3.428   1.154  0.00  0.00    +0.000 A 
ATOM      4  C   UNL     1       3.048   4.825   1.211  0.00  0.00    +0.000 A 
ATOM      5  C   UNL     1       3.760   5.490   2.215  0.00  0.00    +0.000 A 
ATOM      6  C   UNL     1       4.532   4.743   3.094  0.00  0.00    +0.000 A 
ATOM      7  N   UNL     1       4.664   3.395   3.080  0.00  0.00    +0.000 NA
ATOM      8  C   UNL     1       3.957   2.807   2.092  0.00  0.00    +0.000 A 
ATOM      9  N   UNL     1       3.849   1.457   1.837  0.00  0.00    +0.000 N 
ENDROOT
BRANCH   4  10
ATOM     10  C   UNL     1       2.211   5.590   0.264  0.00  0.00    +0.000 C 
ATOM     11  N   UNL     1       1.544   4.887  -0.694  0.00  0.00    +0.000 N 
ATOM     12  O   UNL     1       2.125   6.811   0.340  0.00  0.00    +0.000 OA
ATOM     13  H   UNL     1       1.610   3.872  -0.755  0.00  0.00    +0.000 HD
ATOM     14  H   UNL     1       0.963   5.384  -1.355  0.00  0.00    +0.000 HD
ENDBRANCH   4  10
BRANCH   1  16
ATOM     15  C   UNL     1       1.643   0.366  -1.136  0.00  0.00    +0.000 C 
ATOM     16  C   UNL     1       2.613   0.007   0.023  0.00  0.00    +0.000 C 
ATOM     17  C   UNL     1       1.853  -0.958   0.941  0.00  0.00    +0.000 C 
ATOM     18  C   UNL     1       3.825  -0.695  -0.610  0.00  0.00    +0.000 C 
ENDBRANCH   1  16
BRANCH   9  19
ATOM     19  C   UNL     1       4.525   0.465   2.660  0.00  0.00    +0.000 C 
BRANCH  19  20
ATOM     20  C   UNL     1       3.648  -0.101   3.750  0.00  0.00    +0.000 A 
ATOM     21  C   UNL     1       2.774   0.691   4.494  0.00  0.00    +0.000 A 
ATOM     22  C   UNL     1       1.926   0.084   5.414  0.00  0.00    +0.000 A 
ATOM     23  C   UNL     1       1.992  -1.290   5.601  0.00  0.00    +0.000 A 
ATOM     24  C   UNL     1       2.925  -2.002   4.870  0.00  0.00    +0.000 A 
ATOM     25  N   UNL     1       3.750  -1.441   3.958  0.00  0.00    +0.000 NA
ENDBRANCH  19  20
ENDBRANCH   9  19
TORSDOF 4
