REMARK  Name = 
REMARK  7 active torsions:
REMARK  status: ('A' for Active; 'I' for Inactive)
REMARK    1  A    between atoms: C_2  and  C_20
REMARK    2  A    between atoms: N_3  and  C_4
REMARK    3  A    between atoms: C_4  and  C_5
REMARK    4  A    between atoms: C_8  and  C_9
REMARK    5  A    between atoms: C_9  and  O_10
REMARK    6  A    between atoms: C_9  and  C_11
REMARK    7  A    between atoms: C_11  and  C_12
REMARK                            x       y       z     vdW  Elec       q    Type
REMARK                         _______ _______ _______ _____ _____    ______ ____
ROOT
ATOM      1  C   UNL     1       3.962  -8.902  -6.148  0.00  0.00    +0.000 A 
ATOM      2  C   UNL     1       4.415  -7.616  -6.443  0.00  0.00    +0.000 A 
ATOM      3  C   UNL     1       4.929  -6.816  -5.426  0.00  0.00    +0.000 A 
ATOM      4  C   UNL     1       4.979  -7.320  -4.127  0.00  0.00    +0.000 A 
ATOM      5  N   UNL     1       4.523  -8.560  -3.810  0.00  0.00    +0.000 NA
ATOM      6  C   UNL     1       4.010  -9.305  -4.818  0.00  0.00    +0.000 A 
ENDROOT
BRANCH   1   7
ATOM      7  C   UNL     1       3.402  -9.801  -7.210  0.00  0.00    +0.000 C 
BRANCH   7  10
ATOM      8  O   UNL     1       1.810 -10.983  -9.170  0.00  0.00    +0.000 OA
ATOM      9  C   UNL     1       1.280 -10.226  -8.360  0.00  0.00    +0.000 C 
ATOM     10  N   UNL     1       2.004  -9.539  -7.421  0.00  0.00    +0.000 N 
ATOM     11  H   UNL     1       1.510  -9.089  -6.657  0.00  0.00    +0.000 HD
BRANCH   9  12
ATOM     12  C   UNL     1      -0.167  -9.984  -8.365  0.00  0.00    +0.000 A 
ATOM     13  C   UNL     1      -0.907 -10.207  -9.519  0.00  0.00    +0.000 A 
ATOM     14  S   UNL     1      -2.567  -9.856  -9.343  0.00  0.00    +0.000 S 
ATOM     15  C   UNL     1      -2.363  -9.440  -7.707  0.00  0.00    +0.000 A 
ATOM     16  N   UNL     1      -3.423  -9.065  -6.942  0.00  0.00    +0.000 NA
ATOM     17  C   UNL     1      -3.130  -8.811  -5.710  0.00  0.00    +0.000 A 
ATOM     18  N   UNL     1      -1.869  -8.889  -5.175  0.00  0.00    +0.000 N 
ATOM     19  C   UNL     1      -0.766  -9.233  -5.913  0.00  0.00    +0.000 A 
ATOM     20  O   UNL     1       0.352  -9.244  -5.416  0.00  0.00    +0.000 OA
ATOM     21  C   UNL     1      -1.042  -9.549  -7.303  0.00  0.00    +0.000 A 
ATOM     22  H   UNL     1      -1.703  -8.663  -4.205  0.00  0.00    +0.000 HD
ENDBRANCH   9  12
ENDBRANCH   7  10
ENDBRANCH   1   7
BRANCH   4  23
ATOM     23  C   UNL     1       5.598  -6.496  -3.010  0.00  0.00    +0.000 C 
BRANCH  23  24
ATOM     24  O   UNL     1       6.683  -7.220  -2.425  0.00  0.00    +0.000 OA
ATOM     25  H   UNL     1       6.345  -8.132  -2.331  0.00  0.00    +0.000 HD
ENDBRANCH  23  24
BRANCH  23  26
ATOM     26  C   UNL     1       4.580  -6.192  -1.908  0.00  0.00    +0.000 C 
BRANCH  26  27
ATOM     27  C   UNL     1       5.129  -5.252  -0.802  0.00  0.00    +0.000 C 
ATOM     28  C   UNL     1       4.068  -5.000   0.282  0.00  0.00    +0.000 C 
ATOM     29  C   UNL     1       2.889  -4.209  -0.283  0.00  0.00    +0.000 C 
ATOM     30  C   UNL     1       3.341  -2.972  -1.068  0.00  0.00    +0.000 C 
ATOM     31  N   UNL     1       4.436  -3.226  -2.011  0.00  0.00    +0.000 NA
ATOM     32  C   UNL     1       5.565  -3.886  -1.352  0.00  0.00    +0.000 C 
ATOM     33  H   UNL     1       4.749  -2.340  -2.406  0.00  0.00    +0.000 HD
ENDBRANCH  26  27
ENDBRANCH  23  26
ENDBRANCH   4  23
TORSDOF 7
