REMARK  Name = 
REMARK  7 active torsions:
REMARK  status: ('A' for Active; 'I' for Inactive)
REMARK    1  A    between atoms: C_1  and  N_2
REMARK    2  A    between atoms: N_2  and  C_3
REMARK    3  A    between atoms: C_3  and  C_4
REMARK    4  A    between atoms: C_6  and  O_7
REMARK    5  A    between atoms: O_7  and  C_8
REMARK    6  A    between atoms: C_8  and  C_9
REMARK    7  A    between atoms: C_13  and  C_14
REMARK                            x       y       z     vdW  Elec       q    Type
REMARK                         _______ _______ _______ _____ _____    ______ ____
ROOT
ATOM      1  C   UNL     1       4.431  -0.984  -1.384  0.00  0.00    +0.000 A 
ATOM      2  C   UNL     1       5.110  -2.135  -0.993  0.00  0.00    +0.000 A 
ATOM      3  C   UNL     1       6.497  -2.106  -0.914  0.00  0.00    +0.000 A 
ATOM      4  C   UNL     1       7.162  -0.923  -1.220  0.00  0.00    +0.000 A 
ATOM      5  C   UNL     1       6.413   0.164  -1.635  0.00  0.00    +0.000 A 
ATOM      6  N   UNL     1       5.071   0.161  -1.720  0.00  0.00    +0.000 NA
ENDROOT
BRANCH   1   7
ATOM      7  C   UNL     1       2.916  -0.934  -1.320  0.00  0.00    +0.000 C 
BRANCH   7   9
ATOM      8  C   UNL     1       2.842  -0.182   0.985  0.00  0.00    +0.000 C 
ATOM      9  N   UNL     1       2.368  -1.177   0.028  0.00  0.00    +0.000 NA
ATOM     10  H   UNL     1       1.354  -1.115  -0.030  0.00  0.00    +0.000 HD
ENDBRANCH   7   9
ENDBRANCH   1   7
BRANCH   3  11
ATOM     11  O   UNL     1       7.088  -3.273  -0.501  0.00  0.00    +0.000 OA
BRANCH  11  12
ATOM     12  C   UNL     1       8.507  -3.344  -0.660  0.00  0.00    +0.000 C 
BRANCH  12  13
ATOM     13  C   UNL     1       9.025  -4.760  -0.553  0.00  0.00    +0.000 A 
ATOM     14  C   UNL     1       8.240  -5.825  -0.098  0.00  0.00    +0.000 A 
ATOM     15  C   UNL     1       8.747  -7.126  -0.100  0.00  0.00    +0.000 A 
ATOM     16  C   UNL     1      10.049  -7.373  -0.536  0.00  0.00    +0.000 A 
ATOM     17  C   UNL     1      10.867  -6.318  -0.949  0.00  0.00    +0.000 A 
ATOM     18  C   UNL     1      12.282  -6.557  -1.383  0.00  0.00    +0.000 C 
ATOM     19  C   UNL     1      10.350  -5.016  -0.945  0.00  0.00    +0.000 A 
ENDBRANCH  12  13
ENDBRANCH  11  12
ENDBRANCH   3  11
TORSDOF 5
