REMARK  Name = 
REMARK  7 active torsions:
REMARK  status: ('A' for Active; 'I' for Inactive)
REMARK    1  A    between atoms: C_1  and  C_2
REMARK    2  A    between atoms: C_4  and  C_5
REMARK    3  A    between atoms: N_10  and  C_11
REMARK    4  A    between atoms: C_11  and  C_12
REMARK    5  A    between atoms: C_17  and  C_18
REMARK    6  A    between atoms: C_22  and  C_23
REMARK    7  A    between atoms: C_23  and  N_24
REMARK                            x       y       z     vdW  Elec       q    Type
REMARK                         _______ _______ _______ _____ _____    ______ ____
ROOT
ATOM      1  C   UNL     1       3.371   4.064  -0.148  0.00  0.00    +0.000 A 
ATOM      2  C   UNL     1       2.412   5.068   0.016  0.00  0.00    +0.000 A 
ATOM      3  C   UNL     1       2.798   6.406  -0.016  0.00  0.00    +0.000 A 
ATOM      4  C   UNL     1       4.138   6.746  -0.213  0.00  0.00    +0.000 A 
ATOM      5  F   UNL     1       4.447   8.052  -0.202  0.00  0.00    +0.000 F 
ATOM      6  C   UNL     1       5.135   5.775  -0.398  0.00  0.00    +0.000 A 
ATOM      7  C   UNL     1       4.710   4.433  -0.369  0.00  0.00    +0.000 A 
ENDROOT
BRANCH   6   8
ATOM      8  C   UNL     1       6.564   6.111  -0.611  0.00  0.00    +0.000 A 
ATOM      9  C   UNL     1       6.965   7.276  -1.273  0.00  0.00    +0.000 A 
ATOM     10  C   UNL     1       8.315   7.538  -1.440  0.00  0.00    +0.000 A 
ATOM     11  N   UNL     1       9.301   6.725  -1.013  0.00  0.00    +0.000 NA
ATOM     12  C   UNL     1       8.933   5.586  -0.381  0.00  0.00    +0.000 A 
ATOM     13  C   UNL     1       7.593   5.258  -0.169  0.00  0.00    +0.000 A 
BRANCH  12  14
ATOM     14  C   UNL     1      10.048   4.640   0.021  0.00  0.00    +0.000 C 
BRANCH  14  15
ATOM     15  N   UNL     1       9.769   3.833   1.219  0.00  0.00    +0.000 NA
ATOM     16  H   UNL     1       9.665   4.474   2.006  0.00  0.00    +0.000 HD
ATOM     17  H   UNL     1      10.600   3.280   1.426  0.00  0.00    +0.000 HD
ENDBRANCH  14  15
ENDBRANCH  12  14
ENDBRANCH   6   8
BRANCH   1  18
ATOM     18  C   UNL     1       2.995   2.604  -0.086  0.00  0.00    +0.000 C 
BRANCH  18  25
ATOM     19  C   UNL     1       3.480  -0.088  -5.486  0.00  0.00    +0.000 C 
ATOM     20  C   UNL     1       4.045   0.469  -4.215  0.00  0.00    +0.000 A 
ATOM     21  C   UNL     1       5.371   0.315  -3.899  0.00  0.00    +0.000 A 
ATOM     22  C   UNL     1       5.740   0.814  -2.672  0.00  0.00    +0.000 A 
ATOM     23  N   UNL     1       4.888   1.389  -1.790  0.00  0.00    +0.000 NA
ATOM     24  C   UNL     1       3.623   1.517  -2.196  0.00  0.00    +0.000 A 
ATOM     25  N   UNL     1       2.670   2.073  -1.382  0.00  0.00    +0.000 N 
ATOM     26  N   UNL     1       3.180   1.097  -3.390  0.00  0.00    +0.000 NA
ATOM     27  H   UNL     1       1.952   2.528  -1.929  0.00  0.00    +0.000 HD
BRANCH  22  28
ATOM     28  C   UNL     1       7.176   0.745  -2.262  0.00  0.00    +0.000 C 
ATOM     29  N   UNL     1       7.472   1.291  -1.040  0.00  0.00    +0.000 N 
ATOM     30  O   UNL     1       8.041   0.245  -2.969  0.00  0.00    +0.000 OA
ATOM     31  H   UNL     1       6.734   1.676  -0.465  0.00  0.00    +0.000 HD
ATOM     32  H   UNL     1       8.428   1.305  -0.712  0.00  0.00    +0.000 HD
ENDBRANCH  22  28
ENDBRANCH  18  25
ENDBRANCH   1  18
TORSDOF 6
