REMARK  Name = 
REMARK  7 active torsions:
REMARK  status: ('A' for Active; 'I' for Inactive)
REMARK    1  A    between atoms: C_2  and  C_4
REMARK    2  A    between atoms: C_9  and  C_10
REMARK    3  A    between atoms: C_10  and  C_11
REMARK    4  A    between atoms: C_11  and  O_12
REMARK    5  A    between atoms: O_12  and  C_13
REMARK    6  A    between atoms: C_16  and  C_17
REMARK    7  A    between atoms: C_17  and  O_19
REMARK                            x       y       z     vdW  Elec       q    Type
REMARK                         _______ _______ _______ _____ _____    ______ ____
ROOT
ATOM      1  C   UNL     1       6.293   1.498  -2.700  0.00  0.00    +0.000 C 
ENDROOT
BRANCH   1   7
ATOM      2  C   UNL     1       4.258   2.459   0.392  0.00  0.00    +0.000 A 
ATOM      3  C   UNL     1       2.987   2.681  -0.142  0.00  0.00    +0.000 A 
ATOM      4  C   UNL     1       2.772   2.508  -1.511  0.00  0.00    +0.000 A 
ATOM      5  C   UNL     1       3.820   2.111  -2.353  0.00  0.00    +0.000 A 
ATOM      6 CL   UNL     1       3.468   1.949  -4.035  0.00  0.00    +0.000 Cl
ATOM      7  C   UNL     1       5.105   1.878  -1.836  0.00  0.00    +0.000 A 
ATOM      8  C   UNL     1       5.310   2.074  -0.455  0.00  0.00    +0.000 A 
BRANCH   2  10
ATOM      9  N   UNL     1       3.508   2.475   2.712  0.00  0.00    +0.000 N 
ATOM     10  C   UNL     1       4.545   2.651   1.838  0.00  0.00    +0.000 C 
ATOM     11  O   UNL     1       5.670   2.919   2.239  0.00  0.00    +0.000 OA
ATOM     12  H   UNL     1       3.743   2.506   3.696  0.00  0.00    +0.000 HD
ATOM     13  H   UNL     1       2.644   2.023   2.452  0.00  0.00    +0.000 HD
ENDBRANCH   2  10
ENDBRANCH   1   7
BRANCH   1  14
ATOM     14  C   UNL     1       7.038   2.743  -3.183  0.00  0.00    +0.000 C 
BRANCH  14  15
ATOM     15  O   UNL     1       8.203   2.399  -3.953  0.00  0.00    +0.000 OA
BRANCH  15  16
ATOM     16  C   UNL     1       8.860   3.540  -4.387  0.00  0.00    +0.000 A 
ATOM     17  C   UNL     1      10.004   3.386  -5.157  0.00  0.00    +0.000 A 
ATOM     18  C   UNL     1      10.658   4.541  -5.618  0.00  0.00    +0.000 A 
ATOM     19  C   UNL     1      10.142   5.799  -5.288  0.00  0.00    +0.000 A 
ATOM     20  C   UNL     1       8.990   5.845  -4.520  0.00  0.00    +0.000 A 
ATOM     21  N   UNL     1       8.352   4.748  -4.059  0.00  0.00    +0.000 NA
BRANCH  19  22
ATOM     22  C   UNL     1      10.700   7.088  -5.745  0.00  0.00    +0.000 C 
ATOM     23  O   UNL     1      10.010   8.081  -5.897  0.00  0.00    +0.000 OA
BRANCH  22  24
ATOM     24  O   UNL     1      12.034   7.084  -5.939  0.00  0.00    +0.000 OA
ATOM     25  H   UNL     1      12.510   6.300  -5.610  0.00  0.00    +0.000 HD
ENDBRANCH  22  24
ENDBRANCH  19  22
ENDBRANCH  15  16
ENDBRANCH  14  15
ENDBRANCH   1  14
TORSDOF 7
