REMARK  Name = 
REMARK  7 active torsions:
REMARK  status: ('A' for Active; 'I' for Inactive)
REMARK    1  A    between atoms: C_1  and  C_2
REMARK    2  A    between atoms: C_2  and  C_3
REMARK    3  A    between atoms: C_2  and  C_14
REMARK    4  A    between atoms: C_3  and  N_4
REMARK    5  A    between atoms: C_8  and  C_9
REMARK    6  A    between atoms: C_24  and  C_25
REMARK    7  A    between atoms: C_24  and  O_26
REMARK                            x       y       z     vdW  Elec       q    Type
REMARK                         _______ _______ _______ _____ _____    ______ ____
ROOT
ATOM      1  C   UNL     1       3.725   0.072  -1.004  0.00  0.00    +0.000 C 
ATOM      2  C   UNL     1       2.524  -0.081  -0.071  0.00  0.00    +0.000 C 
ENDROOT
BRANCH   2   3
ATOM      3  C   UNL     1       2.880  -0.987   1.100  0.00  0.00    +0.000 A 
ATOM      4  C   UNL     1       3.453  -0.459   2.237  0.00  0.00    +0.000 A 
ATOM      5  C   UNL     1       3.705  -1.353   3.245  0.00  0.00    +0.000 A 
ATOM      6  N   UNL     1       3.422  -2.664   3.165  0.00  0.00    +0.000 NA
ATOM      7  C   UNL     1       2.895  -3.123   2.017  0.00  0.00    +0.000 A 
ATOM      8  N   UNL     1       2.702  -4.485   1.898  0.00  0.00    +0.000 N 
ATOM      9  C   UNL     1       2.348  -5.213   3.118  0.00  0.00    +0.000 C 
ATOM     10  C   UNL     1       2.762  -6.682   2.997  0.00  0.00    +0.000 C 
ATOM     11  F   UNL     1       2.232  -7.385   4.038  0.00  0.00    +0.000 F 
ATOM     12  C   UNL     1       2.271  -7.310   1.698  0.00  0.00    +0.000 C 
ATOM     13  C   UNL     1       2.648  -6.476   0.464  0.00  0.00    +0.000 C 
ATOM     14  C   UNL     1       4.161  -6.497   0.197  0.00  0.00    +0.000 C 
ATOM     15  C   UNL     1       2.155  -5.016   0.651  0.00  0.00    +0.000 C 
ATOM     16  N   UNL     1       2.630  -2.312   0.979  0.00  0.00    +0.000 NA
BRANCH  13  17
ATOM     17  O   UNL     1       1.992  -7.052  -0.675  0.00  0.00    +0.000 OA
ATOM     18  H   UNL     1       2.349  -7.949  -0.806  0.00  0.00    +0.000 HD
ENDBRANCH  13  17
ENDBRANCH   2   3
BRANCH   2  19
ATOM     19  C   UNL     1       1.279  -0.627  -0.800  0.00  0.00    +0.000 C 
BRANCH  19  20
ATOM     20  N   UNL     1       0.757   0.311  -1.797  0.00  0.00    +0.000 N 
ATOM     21  C   UNL     1      -0.364  -0.086  -2.520  0.00  0.00    +0.000 A 
ATOM     22  C   UNL     1      -1.406  -0.818  -1.963  0.00  0.00    +0.000 A 
ATOM     23  C   UNL     1      -2.516  -1.148  -2.738  0.00  0.00    +0.000 A 
ATOM     24  C   UNL     1      -2.593  -0.714  -4.058  0.00  0.00    +0.000 A 
ATOM     25  C   UNL     1      -1.521   0.024  -4.534  0.00  0.00    +0.000 A 
ATOM     26  N   UNL     1      -0.415   0.338  -3.800  0.00  0.00    +0.000 NA
ATOM     27  H   UNL     1       1.426   0.650  -2.484  0.00  0.00    +0.000 HD
BRANCH  24  28
ATOM     28  C   UNL     1      -3.801  -1.061  -4.849  0.00  0.00    +0.000 C 
ATOM     29  N   UNL     1      -3.910  -0.608  -6.132  0.00  0.00    +0.000 N 
ATOM     30  O   UNL     1      -4.702  -1.738  -4.367  0.00  0.00    +0.000 OA
ATOM     31  H   UNL     1      -3.247  -0.027  -6.619  0.00  0.00    +0.000 HD
ATOM     32  H   UNL     1      -4.759  -0.862  -6.623  0.00  0.00    +0.000 HD
ENDBRANCH  24  28
ENDBRANCH  19  20
ENDBRANCH   2  19
TORSDOF 5
