REMARK  Name = 
REMARK  4 active torsions:
REMARK  status: ('A' for Active; 'I' for Inactive)
REMARK    1  A    between atoms: C_2  and  C_4
REMARK    2  A    between atoms: C_7  and  N_8
REMARK    3  A    between atoms: N_8  and  C_9
REMARK    4  A    between atoms: C_9  and  C_10
REMARK                            x       y       z     vdW  Elec       q    Type
REMARK                         _______ _______ _______ _____ _____    ______ ____
ROOT
ATOM      1  C   UNL     1       3.011   0.796   1.275  0.00  0.00    +0.000 A 
ATOM      2  N   UNL     1       3.322  -0.261   2.060  0.00  0.00    +0.000 NA
ATOM      3  C   UNL     1       4.109   0.028   3.120  0.00  0.00    +0.000 A 
ATOM      4  C   UNL     1       4.611   1.286   3.423  0.00  0.00    +0.000 A 
ATOM      5  C   UNL     1       4.180   2.278   2.558  0.00  0.00    +0.000 A 
ATOM      6  N   UNL     1       3.396   2.069   1.480  0.00  0.00    +0.000 NA
ENDROOT
BRANCH   1   8
ATOM      7  N   UNL     1       1.759  -0.794  -0.103  0.00  0.00    +0.000 N 
ATOM      8  C   UNL     1       2.140   0.516   0.075  0.00  0.00    +0.000 C 
ATOM      9  O   UNL     1       1.762   1.378  -0.713  0.00  0.00    +0.000 OA
ATOM     10  H   UNL     1       1.147  -1.022  -0.872  0.00  0.00    +0.000 HD
ATOM     11  H   UNL     1       2.045  -1.503   0.563  0.00  0.00    +0.000 HD
ENDBRANCH   1   8
BRANCH   4  12
ATOM     12  N   UNL     1       5.395   1.480   4.558  0.00  0.00    +0.000 N 
ATOM     13  H   UNL     1       4.825   1.479   5.405  0.00  0.00    +0.000 HD
BRANCH  12  14
ATOM     14  C   UNL     1       6.329   2.604   4.561  0.00  0.00    +0.000 C 
BRANCH  14  15
ATOM     15  C   UNL     1       7.425   2.321   5.561  0.00  0.00    +0.000 A 
ATOM     16  C   UNL     1       8.225   1.172   5.415  0.00  0.00    +0.000 A 
ATOM     17  C   UNL     1       9.244   0.896   6.325  0.00  0.00    +0.000 A 
ATOM     18  C   UNL     1       9.472   1.771   7.379  0.00  0.00    +0.000 A 
ATOM     19  F   UNL     1      10.448   1.506   8.256  0.00  0.00    +0.000 F 
ATOM     20  C   UNL     1       8.702   2.918   7.537  0.00  0.00    +0.000 A 
ATOM     21  C   UNL     1       7.678   3.196   6.628  0.00  0.00    +0.000 A 
ENDBRANCH  14  15
ENDBRANCH  12  14
ENDBRANCH   4  12
TORSDOF 4
