REMARK  Name = 
REMARK  5 active torsions:
REMARK  status: ('A' for Active; 'I' for Inactive)
REMARK    1  A    between atoms: C_2  and  C_5
REMARK    2  A    between atoms: C_7  and  C_8
REMARK    3  A    between atoms: C_12  and  N_13
REMARK    4  A    between atoms: N_13  and  C_14
REMARK    5  A    between atoms: C_14  and  C_15
REMARK                            x       y       z     vdW  Elec       q    Type
REMARK                         _______ _______ _______ _____ _____    ______ ____
ROOT
ATOM      1  C   UNL     1       1.545   4.924   0.310  0.00  0.00    +0.000 A 
ATOM      2  C   UNL     1       1.249   5.874  -0.671  0.00  0.00    +0.000 A 
ATOM      3  N   UNL     1       0.422   6.931  -0.508  0.00  0.00    +0.000 NA
ATOM      4  C   UNL     1      -0.158   7.054   0.706  0.00  0.00    +0.000 A 
ATOM      5  C   UNL     1       0.061   6.207   1.794  0.00  0.00    +0.000 A 
ATOM      6  C   UNL     1       0.909   5.119   1.555  0.00  0.00    +0.000 A 
ENDROOT
BRANCH   1   9
ATOM      7  C   UNL     1       3.151   1.479   0.433  0.00  0.00    +0.000 A 
ATOM      8  C   UNL     1       2.277   2.541   0.685  0.00  0.00    +0.000 A 
ATOM      9  C   UNL     1       2.453   3.782   0.052  0.00  0.00    +0.000 A 
ATOM     10  C   UNL     1       3.533   3.887  -0.837  0.00  0.00    +0.000 A 
ATOM     11  C   UNL     1       4.352   2.791  -1.053  0.00  0.00    +0.000 A 
ATOM     12  N   UNL     1       4.188   1.602  -0.443  0.00  0.00    +0.000 NA
BRANCH   7  14
ATOM     13  F   UNL     1       1.897   0.153   2.018  0.00  0.00    +0.000 F 
ATOM     14  C   UNL     1       2.953   0.149   1.149  0.00  0.00    +0.000 C 
ATOM     15  F   UNL     1       4.032  -0.221   1.898  0.00  0.00    +0.000 F 
ATOM     16  F   UNL     1       2.712  -0.889   0.296  0.00  0.00    +0.000 F 
ENDBRANCH   7  14
ENDBRANCH   1   9
BRANCH   5  17
ATOM     17  N   UNL     1      -0.639   6.398   2.983  0.00  0.00    +0.000 N 
ATOM     18  H   UNL     1      -1.084   7.307   3.057  0.00  0.00    +0.000 HD
BRANCH  17  19
ATOM     19  C   UNL     1      -0.100   5.928   4.263  0.00  0.00    +0.000 C 
BRANCH  19  20
ATOM     20  C   UNL     1      -0.964   4.839   4.866  0.00  0.00    +0.000 A 
ATOM     21  C   UNL     1      -2.296   5.101   5.194  0.00  0.00    +0.000 A 
ATOM     22  C   UNL     1      -3.066   4.087   5.756  0.00  0.00    +0.000 A 
ATOM     23  C   UNL     1      -2.493   2.844   5.979  0.00  0.00    +0.000 A 
ATOM     24  C   UNL     1      -1.164   2.663   5.633  0.00  0.00    +0.000 A 
ATOM     25  N   UNL     1      -0.389   3.628   5.087  0.00  0.00    +0.000 NA
ENDBRANCH  19  20
ENDBRANCH  17  19
ENDBRANCH   5  17
TORSDOF 5
