REMARK  Name = 
REMARK  6 active torsions:
REMARK  status: ('A' for Active; 'I' for Inactive)
REMARK    1  A    between atoms: C_1  and  C_2
REMARK    2  A    between atoms: C_7  and  C_8
REMARK    3  A    between atoms: C_13  and  C_14
REMARK    4  A    between atoms: C_14  and  N_15
REMARK    5  A    between atoms: C_19  and  C_20
REMARK    6  A    between atoms: C_29  and  C_30
REMARK                            x       y       z     vdW  Elec       q    Type
REMARK                         _______ _______ _______ _____ _____    ______ ____
ROOT
ATOM      1  C   UNL     1       1.830  -2.378  -2.978  0.00  0.00    +0.000 C 
ATOM      2  C   UNL     1       2.693  -1.707  -1.915  0.00  0.00    +0.000 C 
ATOM      3  C   UNL     1       2.243  -0.280  -1.551  0.00  0.00    +0.000 C 
ATOM      4  N   UNL     1       2.823   0.749  -2.420  0.00  0.00    +0.000 N 
ATOM      5  C   UNL     1       2.010   1.500  -3.241  0.00  0.00    +0.000 A 
ATOM      6  C   UNL     1       2.383   2.768  -3.635  0.00  0.00    +0.000 A 
ATOM      7  C   UNL     1       1.496   3.498  -4.405  0.00  0.00    +0.000 A 
ATOM      8  N   UNL     1       0.289   2.997  -4.763  0.00  0.00    +0.000 NA
ATOM      9  C   UNL     1      -0.029   1.765  -4.325  0.00  0.00    +0.000 A 
ATOM     10  N   UNL     1       0.816   1.008  -3.590  0.00  0.00    +0.000 NA
ATOM     11  C   UNL     1       4.257   0.618  -2.682  0.00  0.00    +0.000 C 
ATOM     12  C   UNL     1       4.626  -0.820  -3.098  0.00  0.00    +0.000 C 
ATOM     13  C   UNL     1       4.313  -1.129  -4.560  0.00  0.00    +0.000 C 
ATOM     14  O   UNL     1       4.095  -1.813  -2.208  0.00  0.00    +0.000 OA
ENDROOT
BRANCH   7  15
ATOM     15  C   UNL     1       1.867   4.908  -4.834  0.00  0.00    +0.000 C 
ATOM     16  F   UNL     1       3.063   5.329  -4.318  0.00  0.00    +0.000 F 
ATOM     17  F   UNL     1       1.995   5.041  -6.185  0.00  0.00    +0.000 F 
ATOM     18  F   UNL     1       0.959   5.848  -4.444  0.00  0.00    +0.000 F 
ENDBRANCH   7  15
BRANCH   9  19
ATOM     19  C   UNL     1      -1.448   1.209  -4.575  0.00  0.00    +0.000 C 
ATOM     20  C   UNL     1      -2.573   1.831  -3.771  0.00  0.00    +0.000 C 
ATOM     21  C   UNL     1      -2.102   0.463  -3.406  0.00  0.00    +0.000 C 
BRANCH  19  22
ATOM     22  N   UNL     1      -1.643   0.527  -5.870  0.00  0.00    +0.000 N 
ATOM     23  C   UNL     1      -1.977   1.184  -7.053  0.00  0.00    +0.000 A 
ATOM     24  N   UNL     1      -1.507   0.578  -8.157  0.00  0.00    +0.000 NA
ATOM     25  C   UNL     1      -1.920   1.049  -9.356  0.00  0.00    +0.000 A 
ATOM     26  C   UNL     1      -2.799   2.093  -9.498  0.00  0.00    +0.000 A 
ATOM     27  C   UNL     1      -3.192   2.679  -8.316  0.00  0.00    +0.000 A 
ATOM     28  N   UNL     1      -2.801   2.243  -7.088  0.00  0.00    +0.000 NA
ATOM     29  H   UNL     1      -0.931  -0.150  -6.122  0.00  0.00    +0.000 HD
BRANCH  26  30
ATOM     30  C   UNL     1      -3.231   2.505 -10.847  0.00  0.00    +0.000 C 
ATOM     31  N   UNL     1      -4.430   3.142 -10.972  0.00  0.00    +0.000 N 
ATOM     32  O   UNL     1      -2.553   2.235 -11.834  0.00  0.00    +0.000 OA
ATOM     33  H   UNL     1      -5.125   3.177 -10.239  0.00  0.00    +0.000 HD
ATOM     34  H   UNL     1      -4.751   3.290 -11.920  0.00  0.00    +0.000 HD
ENDBRANCH  26  30
ENDBRANCH  19  22
ENDBRANCH   9  19
TORSDOF 4
