REMARK  Name = 
REMARK  8 active torsions:
REMARK  status: ('A' for Active; 'I' for Inactive)
REMARK    1  A    between atoms: N_1  and  C_2
REMARK    2  A    between atoms: C_2  and  C_3
REMARK    3  A    between atoms: C_2  and  C_18
REMARK    4  A    between atoms: C_3  and  C_4
REMARK    5  A    between atoms: C_7  and  C_8
REMARK    6  A    between atoms: C_8  and  N_9
REMARK    7  A    between atoms: N_9  and  C_10
REMARK    8  A    between atoms: C_18  and  C_20
REMARK                            x       y       z     vdW  Elec       q    Type
REMARK                         _______ _______ _______ _____ _____    ______ ____
ROOT
ATOM      1  C   UNL     1       1.591   1.216  -0.580  0.00  0.00    +0.000 C 
ENDROOT
BRANCH   1   2
ATOM      2  N   UNL     1       0.701   1.921  -1.539  0.00  0.00    +0.000 NA
ATOM      3  H   UNL     1       1.255   2.580  -2.085  0.00  0.00    +0.000 HD
ATOM      4  H   UNL     1       0.065   2.511  -0.994  0.00  0.00    +0.000 HD
ENDBRANCH   1   2
BRANCH   1   5
ATOM      5  C   UNL     1       2.069   2.205   0.510  0.00  0.00    +0.000 C 
ATOM      6  O   UNL     1       1.437   3.241   0.728  0.00  0.00    +0.000 OA
BRANCH   5   7
ATOM      7  C   UNL     1       3.304   1.911   1.248  0.00  0.00    +0.000 A 
ATOM      8  C   UNL     1       4.390   1.257   0.690  0.00  0.00    +0.000 A 
ATOM      9  S   UNL     1       5.738   1.173   1.737  0.00  0.00    +0.000 S 
ATOM     10  C   UNL     1       4.907   2.004   2.967  0.00  0.00    +0.000 A 
ATOM     11  N   UNL     1       5.514   2.304   4.146  0.00  0.00    +0.000 NA
ATOM     12  C   UNL     1       4.766   2.952   4.978  0.00  0.00    +0.000 A 
ATOM     13  N   UNL     1       3.461   3.305   4.745  0.00  0.00    +0.000 N 
ATOM     14  C   UNL     1       2.771   2.921   3.616  0.00  0.00    +0.000 A 
ATOM     15  O   UNL     1       1.552   3.030   3.551  0.00  0.00    +0.000 OA
ATOM     16  C   UNL     1       3.605   2.294   2.605  0.00  0.00    +0.000 A 
ATOM     17  H   UNL     1       2.908   3.734   5.472  0.00  0.00    +0.000 HD
ENDBRANCH   5   7
ENDBRANCH   1   5
BRANCH   1  18
ATOM     18  C   UNL     1       0.888   0.032   0.109  0.00  0.00    +0.000 C 
BRANCH  18  19
ATOM     19  C   UNL     1       0.339  -0.996  -0.855  0.00  0.00    +0.000 A 
ATOM     20  C   UNL     1       1.185  -1.724  -1.704  0.00  0.00    +0.000 A 
ATOM     21  C   UNL     1       0.651  -2.610  -2.644  0.00  0.00    +0.000 A 
ATOM     22  C   UNL     1      -0.734  -2.789  -2.744  0.00  0.00    +0.000 A 
ATOM     23  C   UNL     1      -1.573  -2.089  -1.864  0.00  0.00    +0.000 A 
ATOM     24  C   UNL     1      -1.042  -1.203  -0.931  0.00  0.00    +0.000 A 
BRANCH  22  25
ATOM     25  C   UNL     1      -1.332  -3.668  -3.814  0.00  0.00    +0.000 C 
BRANCH  25  26
ATOM     26  N   UNL     1      -0.937  -5.067  -3.662  0.00  0.00    +0.000 NA
ATOM     27  H   UNL     1      -1.174  -5.375  -2.718  0.00  0.00    +0.000 HD
BRANCH  26  28
ATOM     28  C   UNL     1      -1.581  -5.943  -4.654  0.00  0.00    +0.000 C 
ATOM     29  C   UNL     1      -3.107  -6.016  -4.496  0.00  0.00    +0.000 C 
ATOM     30  C   UNL     1      -3.698  -7.058  -5.433  0.00  0.00    +0.000 C 
ATOM     31  O   UNL     1      -3.094  -8.331  -5.222  0.00  0.00    +0.000 OA
ATOM     32  C   UNL     1      -1.693  -8.308  -5.487  0.00  0.00    +0.000 C 
ATOM     33  C   UNL     1      -0.982  -7.351  -4.539  0.00  0.00    +0.000 C 
ENDBRANCH  26  28
ENDBRANCH  25  26
ENDBRANCH  22  25
ENDBRANCH  18  19
ENDBRANCH   1  18
TORSDOF 8
