REMARK  Name = 
REMARK  12 active torsions:
REMARK  status: ('A' for Active; 'I' for Inactive)
REMARK    1  A    between atoms: N_1  and  C_2
REMARK    2  A    between atoms: C_2  and  C_3
REMARK    3  A    between atoms: C_3  and  N_4
REMARK    4  A    between atoms: C_3  and  C_23
REMARK    5  A    between atoms: N_4  and  C_5
REMARK    6  A    between atoms: C_5  and  C_6
REMARK    7  A    between atoms: C_9  and  C_10
REMARK    8  A    between atoms: C_10  and  N_11
REMARK    9  A    between atoms: N_11  and  CA_12
REMARK   10  A    between atoms: CA_12  and  C_13
REMARK   11  A    between atoms: CA_12  and  C_15
REMARK   12  A    between atoms: C_13  and  O_14
REMARK                            x       y       z     vdW  Elec       q    Type
REMARK                         _______ _______ _______ _____ _____    ______ ____
ROOT
ATOM      1  C   UNL     1      -6.026  11.557   0.802  0.00  0.00    +0.000 C 
ENDROOT
BRANCH   1   2
ATOM      2  C   UNL     1      -5.016  10.714   1.532  0.00  0.00    +0.000 A 
ATOM      3  C   UNL     1      -4.396  11.139   2.708  0.00  0.00    +0.000 A 
ATOM      4  C   UNL     1      -3.540  10.275   3.390  0.00  0.00    +0.000 A 
ATOM      5  C   UNL     1      -3.334   8.993   2.887  0.00  0.00    +0.000 A 
ATOM      6  N   UNL     1      -3.942   8.545   1.755  0.00  0.00    +0.000 NA
ATOM      7  C   UNL     1      -4.741   9.418   1.102  0.00  0.00    +0.000 A 
BRANCH   5   8
ATOM      8  C   UNL     1      -2.428   8.018   3.625  0.00  0.00    +0.000 C 
BRANCH   8   9
ATOM      9  N   UNL     1      -1.735   7.035   2.751  0.00  0.00    +0.000 NA
ATOM     10  H   UNL     1      -2.489   6.644   2.176  0.00  0.00    +0.000 HD
BRANCH   9  11
ATOM     11  CA  UNL     1      -0.812   7.724   1.802  0.00  0.00    +0.000 C 
BRANCH  11  12
ATOM     12  C   UNL     1       0.303   8.511   2.479  0.00  0.00    +0.000 A 
ATOM     13  C   UNL     1       1.284   7.892   3.251  0.00  0.00    +0.000 A 
ATOM     14  C   UNL     1       2.268   8.677   3.850  0.00  0.00    +0.000 A 
ATOM     15  C   UNL     1       2.240  10.056   3.680  0.00  0.00    +0.000 A 
ATOM     16  C   UNL     1       1.218  10.598   2.923  0.00  0.00    +0.000 A 
ATOM     17  N   UNL     1       0.256   9.863   2.328  0.00  0.00    +0.000 NA
ENDBRANCH  11  12
BRANCH  11  18
ATOM     18  C   UNL     1      -0.275   6.739   0.730  0.00  0.00    +0.000 C 
BRANCH  18  19
ATOM     19  O   UNL     1       0.433   5.620   1.266  0.00  0.00    +0.000 OA
ATOM     20  H   UNL     1      -0.193   5.167   1.859  0.00  0.00    +0.000 HD
ENDBRANCH  18  19
ENDBRANCH  11  18
ENDBRANCH   9  11
ENDBRANCH   8   9
ENDBRANCH   5   8
ENDBRANCH   1   2
BRANCH   1  21
ATOM     21  N   UNL     1      -5.488  12.838   0.339  0.00  0.00    +0.000 NA
ATOM     22  H   UNL     1      -5.210  13.368   1.167  0.00  0.00    +0.000 HD
BRANCH  21  23
ATOM     23  C   UNL     1      -6.481  13.690  -0.355  0.00  0.00    +0.000 C 
BRANCH  23  24
ATOM     24  C   UNL     1      -6.916  13.026  -1.649  0.00  0.00    +0.000 A 
ATOM     25  C   UNL     1      -8.030  12.212  -1.787  0.00  0.00    +0.000 A 
ATOM     26  S   UNL     1      -8.189  11.528  -3.341  0.00  0.00    +0.000 S 
ATOM     27  C   UNL     1      -6.790  12.321  -3.896  0.00  0.00    +0.000 A 
ATOM     28  N   UNL     1      -6.351  12.150  -5.171  0.00  0.00    +0.000 NA
ATOM     29  C   UNL     1      -5.270  12.797  -5.455  0.00  0.00    +0.000 A 
ATOM     30  N   UNL     1      -4.602  13.616  -4.576  0.00  0.00    +0.000 N 
ATOM     31  C   UNL     1      -5.034  13.861  -3.289  0.00  0.00    +0.000 A 
ATOM     32  O   UNL     1      -4.471  14.688  -2.576  0.00  0.00    +0.000 OA
ATOM     33  C   UNL     1      -6.219  13.110  -2.913  0.00  0.00    +0.000 A 
ATOM     34  H   UNL     1      -3.783  14.125  -4.868  0.00  0.00    +0.000 HD
ENDBRANCH  23  24
BRANCH  23  35
ATOM     35  C   UNL     1      -7.667  14.134   0.562  0.00  0.00    +0.000 C 
BRANCH  35  36
ATOM     36  N   UNL     1      -7.233  14.730   1.837  0.00  0.00    +0.000 NA
ATOM     37  H   UNL     1      -8.061  14.954   2.392  0.00  0.00    +0.000 HD
ATOM     38  H   UNL     1      -6.782  15.626   1.646  0.00  0.00    +0.000 HD
ENDBRANCH  35  36
ENDBRANCH  23  35
ENDBRANCH  21  23
ENDBRANCH   1  21
TORSDOF 12
