REMARK  Name = 
REMARK  6 active torsions:
REMARK  status: ('A' for Active; 'I' for Inactive)
REMARK    1  A    between atoms: N_1  and  C_2
REMARK    2  A    between atoms: C_2  and  C_3
REMARK    3  A    between atoms: C_3  and  C_4
REMARK    4  A    between atoms: C_7  and  C_8
REMARK    5  A    between atoms: C_8  and  C_9
REMARK    6  A    between atoms: C_9  and  C_10
REMARK                            x       y       z     vdW  Elec       q    Type
REMARK                         _______ _______ _______ _____ _____    ______ ____
ROOT
ATOM      1  C   UNL     1       4.510  -1.404  -0.588  0.00  0.00    +0.000 A 
ATOM      2  C   UNL     1       5.197  -2.613  -0.606  0.00  0.00    +0.000 A 
ATOM      3  N   UNL     1       6.550  -2.693  -0.632  0.00  0.00    +0.000 NA
ATOM      4  C   UNL     1       7.217  -1.513  -0.653  0.00  0.00    +0.000 A 
ATOM      5  C   UNL     1       6.527  -0.305  -0.624  0.00  0.00    +0.000 A 
ATOM      6  N   UNL     1       5.174  -0.223  -0.604  0.00  0.00    +0.000 NA
ENDROOT
BRANCH   1   7
ATOM      7  C   UNL     1       3.007  -1.363  -0.580  0.00  0.00    +0.000 C 
BRANCH   7   8
ATOM      8  C   UNL     1       2.449  -1.308  -2.003  0.00  0.00    +0.000 C 
BRANCH   8   9
ATOM      9  N   UNL     1       0.985  -1.289  -1.995  0.00  0.00    +0.000 NA
ATOM     10  H   UNL     1       0.647  -1.233  -2.956  0.00  0.00    +0.000 HD
ATOM     11  H   UNL     1       0.661  -0.436  -1.538  0.00  0.00    +0.000 HD
ENDBRANCH   8   9
ENDBRANCH   7   8
ENDBRANCH   1   7
BRANCH   4  12
ATOM     12  C   UNL     1       8.725  -1.531  -0.632  0.00  0.00    +0.000 C 
BRANCH  12  13
ATOM     13  C   UNL     1       9.321  -2.750  -1.344  0.00  0.00    +0.000 C 
BRANCH  13  14
ATOM     14  C   UNL     1      10.825  -2.708  -1.385  0.00  0.00    +0.000 A 
ATOM     15  C   UNL     1      11.600  -3.284  -0.375  0.00  0.00    +0.000 A 
ATOM     16  C   UNL     1      12.988  -3.231  -0.455  0.00  0.00    +0.000 A 
ATOM     17  C   UNL     1      13.560  -2.591  -1.542  0.00  0.00    +0.000 A 
ATOM     18  N   UNL     1      12.847  -2.008  -2.529  0.00  0.00    +0.000 NA
ATOM     19  C   UNL     1      11.500  -2.082  -2.429  0.00  0.00    +0.000 A 
ENDBRANCH  13  14
ENDBRANCH  12  13
ENDBRANCH   4  12
TORSDOF 6
