REMARK  Name = 
REMARK  5 active torsions:
REMARK  status: ('A' for Active; 'I' for Inactive)
REMARK    1  A    between atoms: C_2  and  C_3
REMARK    2  A    between atoms: C_6  and  C_7
REMARK    3  A    between atoms: C_7  and  C_8
REMARK    4  A    between atoms: C_8  and  N_9
REMARK    5  A    between atoms: C_13  and  C_14
REMARK                            x       y       z     vdW  Elec       q    Type
REMARK                         _______ _______ _______ _____ _____    ______ ____
ROOT
ATOM      1  C   UNL     1       4.182   1.404   0.838  0.00  0.00    +0.000 C 
ENDROOT
BRANCH   1   2
ATOM      2  N   UNL     1       3.610   1.731   2.149  0.00  0.00    +0.000 N 
ATOM      3  C   UNL     1       4.066   2.999   2.585  0.00  0.00    +0.000 A 
ATOM      4  C   UNL     1       3.685   3.519   3.830  0.00  0.00    +0.000 A 
ATOM      5  N   UNL     1       4.089   4.731   4.312  0.00  0.00    +0.000 NA
ATOM      6  C   UNL     1       4.901   5.429   3.469  0.00  0.00    +0.000 A 
ATOM      7  C   UNL     1       5.273   4.941   2.232  0.00  0.00    +0.000 A 
ATOM      8  N   UNL     1       4.862   3.734   1.774  0.00  0.00    +0.000 NA
ATOM      9  H   UNL     1       3.863   1.034   2.845  0.00  0.00    +0.000 HD
BRANCH   6  10
ATOM     10  C   UNL     1       5.412   6.760   3.896  0.00  0.00    +0.000 C 
ATOM     11  N   UNL     1       5.012   7.200   5.125  0.00  0.00    +0.000 N 
ATOM     12  O   UNL     1       6.153   7.431   3.190  0.00  0.00    +0.000 OA
ATOM     13  H   UNL     1       4.393   6.636   5.690  0.00  0.00    +0.000 HD
ATOM     14  H   UNL     1       5.333   8.100   5.454  0.00  0.00    +0.000 HD
ENDBRANCH   6  10
ENDBRANCH   1   2
BRANCH   1  15
ATOM     15  C   UNL     1       3.726   0.062   0.289  0.00  0.00    +0.000 C 
ATOM     16  C   UNL     1       4.666  -0.546  -0.757  0.00  0.00    +0.000 C 
ATOM     17  C   UNL     1       4.552  -1.171   0.589  0.00  0.00    +0.000 C 
ATOM     18  F   UNL     1       5.629  -1.038   1.445  0.00  0.00    +0.000 F 
BRANCH  15  22
ATOM     19  C   UNL     1      -0.503  -0.613  -0.518  0.00  0.00    +0.000 A 
ATOM     20  C   UNL     1       0.279   0.103  -1.426  0.00  0.00    +0.000 A 
ATOM     21  C   UNL     1       1.628   0.350  -1.148  0.00  0.00    +0.000 A 
ATOM     22  C   UNL     1       2.231  -0.115   0.038  0.00  0.00    +0.000 A 
ATOM     23  C   UNL     1       1.412  -0.798   0.954  0.00  0.00    +0.000 A 
ATOM     24  C   UNL     1       0.064  -1.052   0.680  0.00  0.00    +0.000 A 
BRANCH  19  26
ATOM     25  N   UNL     1      -2.976  -1.172  -1.067  0.00  0.00    +0.000 NA
ATOM     26  C   UNL     1      -1.872  -0.914  -0.820  0.00  0.00    +0.000 C 
ENDBRANCH  19  26
ENDBRANCH  15  22
ENDBRANCH   1  15
TORSDOF 5
