REMARK  Name = 
REMARK  5 active torsions:
REMARK  status: ('A' for Active; 'I' for Inactive)
REMARK    1  A    between atoms: N_5  and  C_6
REMARK    2  A    between atoms: C_6  and  C_7
REMARK    3  A    between atoms: C_7  and  C_8
REMARK    4  A    between atoms: C_12  and  O_13
REMARK    5  A    between atoms: O_13  and  C_14
REMARK                            x       y       z     vdW  Elec       q    Type
REMARK                         _______ _______ _______ _____ _____    ______ ____
ROOT
ATOM      1  C   UNL     1      -0.754  -6.240   0.068  0.00  0.00    +0.000 A 
ATOM      2  C   UNL     1      -1.341  -7.513   0.112  0.00  0.00    +0.000 A 
ATOM      3  C   UNL     1      -0.536  -8.642   0.122  0.00  0.00    +0.000 A 
ATOM      4  N   UNL     1       0.808  -8.605   0.103  0.00  0.00    +0.000 NA
ATOM      5  C   UNL     1       1.368  -7.381   0.054  0.00  0.00    +0.000 A 
ATOM      6  C   UNL     1       0.647  -6.189   0.027  0.00  0.00    +0.000 A 
ENDROOT
BRANCH   1   7
ATOM      7  C   UNL     1      -1.572  -4.952   0.064  0.00  0.00    +0.000 C 
BRANCH   7   8
ATOM      8  C   UNL     1      -3.091  -5.183   0.076  0.00  0.00    +0.000 C 
BRANCH   8  13
ATOM      9  C   UNL     1      -8.039  -3.961   0.190  0.00  0.00    +0.000 A 
ATOM     10  C   UNL     1      -7.391  -5.185   0.171  0.00  0.00    +0.000 A 
ATOM     11  C   UNL     1      -6.000  -5.211   0.126  0.00  0.00    +0.000 A 
ATOM     12  C   UNL     1      -5.270  -4.020   0.094  0.00  0.00    +0.000 A 
ATOM     13  N   UNL     1      -3.894  -3.982   0.044  0.00  0.00    +0.000 N 
ATOM     14  N   UNL     1      -5.899  -2.830   0.107  0.00  0.00    +0.000 NA
ATOM     15  C   UNL     1      -7.255  -2.823   0.155  0.00  0.00    +0.000 A 
ATOM     16  H   UNL     1      -3.496  -3.053   0.031  0.00  0.00    +0.000 HD
ENDBRANCH   8  13
ENDBRANCH   7   8
ENDBRANCH   1   7
BRANCH   5  17
ATOM     17  O   UNL     1       2.746  -7.304   0.009  0.00  0.00    +0.000 OA
BRANCH  17  18
ATOM     18  C   UNL     1       3.446  -8.427   0.604  0.00  0.00    +0.000 C 
ATOM     19  C   UNL     1       4.971  -8.421   0.439  0.00  0.00    +0.000 C 
ATOM     20  O   UNL     1       4.977  -9.782  -0.054  0.00  0.00    +0.000 OA
ATOM     21  C   UNL     1       3.531  -9.758  -0.160  0.00  0.00    +0.000 C 
ENDBRANCH  17  18
ENDBRANCH   5  17
TORSDOF 5
