REMARK  Name = 
REMARK  3 active torsions:
REMARK  status: ('A' for Active; 'I' for Inactive)
REMARK    1  A    between atoms: O_1  and  C_2
REMARK    2  A    between atoms: C_7  and  C_8
REMARK    3  A    between atoms: C_8  and  N_9
REMARK                            x       y       z     vdW  Elec       q    Type
REMARK                         _______ _______ _______ _____ _____    ______ ____
ROOT
ATOM      1  C   UNL     1       2.564   2.836   0.255  0.00  0.00    +0.000 C 
ENDROOT
BRANCH   1   2
ATOM      2  N   UNL     1       1.562   3.410  -0.635  0.00  0.00    +0.000 N 
ATOM      3  C   UNL     1       1.854   3.932  -1.878  0.00  0.00    +0.000 A 
ATOM      4  C   UNL     1       0.684   4.413  -2.426  0.00  0.00    +0.000 A 
ATOM      5  C   UNL     1      -0.285   4.396  -1.403  0.00  0.00    +0.000 A 
ATOM      6  N   UNL     1      -1.521   4.953  -1.411  0.00  0.00    +0.000 NA
ATOM      7  C   UNL     1      -2.190   4.852  -0.247  0.00  0.00    +0.000 A 
ATOM      8  C   UNL     1      -1.756   4.163   0.875  0.00  0.00    +0.000 A 
ATOM      9  C   UNL     1      -0.506   3.545   0.857  0.00  0.00    +0.000 A 
ATOM     10  C   UNL     1       0.258   3.729  -0.303  0.00  0.00    +0.000 A 
ENDBRANCH   1   2
BRANCH   1  16
ATOM     11  C   UNL     1       3.395   0.653  -0.732  0.00  0.00    +0.000 A 
ATOM     12  C   UNL     1       3.407  -0.729  -0.632  0.00  0.00    +0.000 A 
ATOM     13  N   UNL     1       2.708  -1.420   0.289  0.00  0.00    +0.000 NA
ATOM     14  C   UNL     1       1.976  -0.679   1.130  0.00  0.00    +0.000 A 
ATOM     15  N   UNL     1       1.892   0.663   1.136  0.00  0.00    +0.000 NA
ATOM     16  C   UNL     1       2.613   1.327   0.195  0.00  0.00    +0.000 A 
BRANCH  11  17
ATOM     17  O   UNL     1       4.133   1.306  -1.663  0.00  0.00    +0.000 OA
ATOM     18  H   UNL     1       4.560   0.664  -2.259  0.00  0.00    +0.000 HD
ENDBRANCH  11  17
ENDBRANCH   1  16
TORSDOF 3
