REMARK  Name = 
REMARK  7 active torsions:
REMARK  status: ('A' for Active; 'I' for Inactive)
REMARK    1  A    between atoms: C_1  and  C_2
REMARK    2  A    between atoms: C_2  and  C_3
REMARK    3  A    between atoms: C_7  and  C_8
REMARK    4  A    between atoms: C_8  and  C_9
REMARK    5  A    between atoms: C_9  and  N_10
REMARK    6  A    between atoms: N_10  and  C_11
REMARK    7  A    between atoms: C_14  and  C_15
REMARK                            x       y       z     vdW  Elec       q    Type
REMARK                         _______ _______ _______ _____ _____    ______ ____
ROOT
ATOM      1  C   UNL     1       3.232   3.605  -4.240  0.00  0.00    +0.000 C 
ENDROOT
BRANCH   1   2
ATOM      2  N   UNL     1       3.722   4.890  -4.761  0.00  0.00    +0.000 N 
ATOM      3  H   UNL     1       4.369   4.771  -5.537  0.00  0.00    +0.000 HD
BRANCH   2   4
ATOM      4  C   UNL     1       2.750   5.867  -5.050  0.00  0.00    +0.000 A 
ATOM      5  C   UNL     1       1.549   5.978  -4.338  0.00  0.00    +0.000 A 
ATOM      6  C   UNL     1       0.624   6.989  -4.619  0.00  0.00    +0.000 A 
ATOM      7  C   UNL     1       0.899   7.947  -5.595  0.00  0.00    +0.000 A 
ATOM      8  C   UNL     1       2.112   7.884  -6.287  0.00  0.00    +0.000 A 
ATOM      9  C   UNL     1       3.032   6.861  -6.000  0.00  0.00    +0.000 A 
BRANCH   7  10
ATOM     10  C   UNL     1      -0.129   8.988  -5.848  0.00  0.00    +0.000 C 
ATOM     11  N   UNL     1       0.288  10.179  -6.368  0.00  0.00    +0.000 N 
ATOM     12  O   UNL     1      -1.311   8.811  -5.569  0.00  0.00    +0.000 OA
ATOM     13  H   UNL     1       1.259  10.456  -6.384  0.00  0.00    +0.000 HD
ATOM     14  H   UNL     1      -0.409  10.913  -6.407  0.00  0.00    +0.000 HD
ENDBRANCH   7  10
ENDBRANCH   2   4
ENDBRANCH   1   2
BRANCH   1  15
ATOM     15  C   UNL     1       4.380   2.624  -3.970  0.00  0.00    +0.000 C 
BRANCH  15  20
ATOM     16  C   UNL     1       2.935   0.065  -1.507  0.00  0.00    +0.000 A 
ATOM     17  C   UNL     1       2.625  -0.979  -2.401  0.00  0.00    +0.000 A 
ATOM     18  C   UNL     1       2.907  -0.880  -3.764  0.00  0.00    +0.000 A 
ATOM     19  C   UNL     1       3.500   0.272  -4.273  0.00  0.00    +0.000 A 
ATOM     20  C   UNL     1       3.836   1.323  -3.416  0.00  0.00    +0.000 A 
ATOM     21  C   UNL     1       3.569   1.201  -2.039  0.00  0.00    +0.000 A 
BRANCH  16  23
ATOM     22  C   UNL     1       0.952  -0.109   0.001  0.00  0.00    +0.000 C 
ATOM     23  C   UNL     1       2.491  -0.039  -0.037  0.00  0.00    +0.000 C 
ATOM     24  C   UNL     1       3.140  -1.240   0.659  0.00  0.00    +0.000 C 
ATOM     25  C   UNL     1       4.377  -0.672   1.340  0.00  0.00    +0.000 C 
ATOM     26  O   UNL     1       4.288   0.756   1.301  0.00  0.00    +0.000 OA
ATOM     27  C   UNL     1       2.955   1.087   0.900  0.00  0.00    +0.000 C 
ENDBRANCH  16  23
ENDBRANCH  15  20
ENDBRANCH   1  15
TORSDOF 6
