REMARK  Name = 
REMARK  3 active torsions:
REMARK  status: ('A' for Active; 'I' for Inactive)
REMARK    1  A    between atoms: C_2  and  C_4
REMARK    2  A    between atoms: N_8  and  C_9
REMARK    3  A    between atoms: C_9  and  C_10
REMARK                            x       y       z     vdW  Elec       q    Type
REMARK                         _______ _______ _______ _____ _____    ______ ____
ROOT
ATOM      1  C   UNL     1       3.151  -0.336  -1.364  0.00  0.00    +0.000 A 
ATOM      2  C   UNL     1       3.982  -1.371  -0.943  0.00  0.00    +0.000 A 
ATOM      3  C   UNL     1       4.634  -2.146  -1.904  0.00  0.00    +0.000 A 
ATOM      4  C   UNL     1       4.459  -1.868  -3.260  0.00  0.00    +0.000 A 
ATOM      5  N   UNL     1       5.143  -2.672  -4.186  0.00  0.00    +0.000 N 
ATOM      6  N   UNL     1       3.629  -0.889  -3.674  0.00  0.00    +0.000 NA
ATOM      7  C   UNL     1       2.990  -0.153  -2.728  0.00  0.00    +0.000 A 
ATOM      8  H   UNL     1       6.122  -2.717  -3.927  0.00  0.00    +0.000 HD
ENDROOT
BRANCH   1  10
ATOM      9  N   UNL     1       2.990   0.745   0.805  0.00  0.00    +0.000 N 
ATOM     10  C   UNL     1       2.431   0.551  -0.428  0.00  0.00    +0.000 C 
ATOM     11  O   UNL     1       1.400   1.123  -0.753  0.00  0.00    +0.000 OA
ATOM     12  H   UNL     1       2.547   1.440   1.393  0.00  0.00    +0.000 HD
ATOM     13  H   UNL     1       3.947   0.500   1.015  0.00  0.00    +0.000 HD
ENDBRANCH   1  10
BRANCH   5  14
ATOM     14  C   UNL     1       4.951  -2.295  -5.585  0.00  0.00    +0.000 C 
BRANCH  14  15
ATOM     15  C   UNL     1       5.821  -3.180  -6.496  0.00  0.00    +0.000 C 
ATOM     16  C   UNL     1       5.608  -2.798  -7.968  0.00  0.00    +0.000 C 
ATOM     17  C   UNL     1       6.343  -3.752  -8.900  0.00  0.00    +0.000 C 
ATOM     18  O   UNL     1       5.961  -5.102  -8.650  0.00  0.00    +0.000 OA
ATOM     19  C   UNL     1       6.287  -5.512  -7.325  0.00  0.00    +0.000 C 
ATOM     20  C   UNL     1       5.537  -4.677  -6.299  0.00  0.00    +0.000 C 
ENDBRANCH  14  15
ENDBRANCH   5  14
TORSDOF 3
