REMARK  Name = 
REMARK  5 active torsions:
REMARK  status: ('A' for Active; 'I' for Inactive)
REMARK    1  A    between atoms: C_1  and  N_2
REMARK    2  A    between atoms: N_5  and  C_6
REMARK    3  A    between atoms: C_10  and  C_11
REMARK    4  A    between atoms: C_11  and  O_12
REMARK    5  A    between atoms: O_12  and  C_13
REMARK                            x       y       z     vdW  Elec       q    Type
REMARK                         _______ _______ _______ _____ _____    ______ ____
ROOT
ATOM      1  C   UNL     1      -3.069  -0.014   0.838  0.00  0.00    +0.000 A 
ATOM      2  C   UNL     1      -3.326  -0.651   2.046  0.00  0.00    +0.000 A 
ATOM      3  C   UNL     1      -4.608  -0.646   2.561  0.00  0.00    +0.000 A 
ATOM      4  N   UNL     1      -5.655  -0.065   1.948  0.00  0.00    +0.000 NA
ATOM      5  C   UNL     1      -5.422   0.526   0.755  0.00  0.00    +0.000 A 
ATOM      6  C   UNL     1      -4.151   0.568   0.171  0.00  0.00    +0.000 A 
ENDROOT
BRANCH   1  11
ATOM      7  C   UNL     1       2.083  -1.110  -0.980  0.00  0.00    +0.000 C 
ATOM      8  N   UNL     1       0.906  -0.308  -0.664  0.00  0.00    +0.000 NA
ATOM      9  C   UNL     1      -0.271  -0.785  -1.428  0.00  0.00    +0.000 C 
ATOM     10  C   UNL     1      -1.538   0.044  -1.116  0.00  0.00    +0.000 C 
ATOM     11  N   UNL     1      -1.788  -0.011   0.326  0.00  0.00    +0.000 N 
ATOM     12  C   UNL     1      -0.662   0.451   1.154  0.00  0.00    +0.000 C 
ATOM     13  C   UNL     1       0.599  -0.366   0.786  0.00  0.00    +0.000 C 
ENDBRANCH   1  11
BRANCH   5  14
ATOM     14  C   UNL     1      -6.599   1.179   0.080  0.00  0.00    +0.000 C 
BRANCH  14  15
ATOM     15  O   UNL     1      -7.253   0.243  -0.782  0.00  0.00    +0.000 OA
BRANCH  15  16
ATOM     16  C   UNL     1      -8.334   0.730  -1.467  0.00  0.00    +0.000 A 
ATOM     17  C   UNL     1      -8.836   2.030  -1.345  0.00  0.00    +0.000 A 
ATOM     18  C   UNL     1      -9.912   2.445  -2.129  0.00  0.00    +0.000 A 
ATOM     19  C   UNL     1     -10.481   1.555  -3.033  0.00  0.00    +0.000 A 
ATOM     20  F   UNL     1     -11.506   1.967  -3.796  0.00  0.00    +0.000 F 
ATOM     21  C   UNL     1     -10.004   0.261  -3.162  0.00  0.00    +0.000 A 
ATOM     22  C   UNL     1      -8.929  -0.155  -2.373  0.00  0.00    +0.000 A 
ENDBRANCH  15  16
ENDBRANCH  14  15
ENDBRANCH   5  14
TORSDOF 4
