REMARK  Name = 
REMARK  4 active torsions:
REMARK  status: ('A' for Active; 'I' for Inactive)
REMARK    1  A    between atoms: C_2  and  C_4
REMARK    2  A    between atoms: N_8  and  C_9
REMARK    3  A    between atoms: C_9  and  C_10
REMARK    4  A    between atoms: C_14  and  C_15
REMARK                            x       y       z     vdW  Elec       q    Type
REMARK                         _______ _______ _______ _____ _____    ______ ____
ROOT
ATOM      1  C   UNL     1       6.315  -4.381  -2.858  0.00  0.00    +0.000 C 
ATOM      2  C   UNL     1       6.416  -5.444  -1.776  0.00  0.00    +0.000 C 
ATOM      3  C   UNL     1       7.190  -4.175  -1.635  0.00  0.00    +0.000 C 
ENDROOT
BRANCH   1   8
ATOM      4  C   UNL     1       4.440   0.334  -3.392  0.00  0.00    +0.000 A 
ATOM      5  C   UNL     1       5.670  -0.189  -3.068  0.00  0.00    +0.000 A 
ATOM      6  N   UNL     1       5.906  -1.512  -2.927  0.00  0.00    +0.000 NA
ATOM      7  C   UNL     1       4.867  -2.345  -3.117  0.00  0.00    +0.000 A 
ATOM      8  N   UNL     1       5.015  -3.721  -2.969  0.00  0.00    +0.000 N 
ATOM      9  N   UNL     1       3.631  -1.927  -3.437  0.00  0.00    +0.000 NA
ATOM     10  C   UNL     1       3.437  -0.592  -3.545  0.00  0.00    +0.000 A 
ATOM     11  H   UNL     1       4.244  -4.177  -3.440  0.00  0.00    +0.000 HD
BRANCH   4  13
ATOM     12  N   UNL     1       5.205   2.565  -3.946  0.00  0.00    +0.000 N 
ATOM     13  C   UNL     1       4.173   1.767  -3.541  0.00  0.00    +0.000 C 
ATOM     14  O   UNL     1       3.052   2.225  -3.344  0.00  0.00    +0.000 OA
ATOM     15  H   UNL     1       4.973   3.533  -4.141  0.00  0.00    +0.000 HD
ATOM     16  H   UNL     1       6.052   2.208  -4.367  0.00  0.00    +0.000 HD
ENDBRANCH   4  13
ENDBRANCH   1   8
BRANCH   1  17
ATOM     17  C   UNL     1       7.002  -4.617  -4.197  0.00  0.00    +0.000 A 
ATOM     18  C   UNL     1       6.831  -5.797  -4.924  0.00  0.00    +0.000 A 
ATOM     19  C   UNL     1       7.412  -5.912  -6.174  0.00  0.00    +0.000 A 
ATOM     20  N   UNL     1       8.148  -4.940  -6.755  0.00  0.00    +0.000 NA
ATOM     21  C   UNL     1       8.345  -3.797  -6.056  0.00  0.00    +0.000 A 
ATOM     22  C   UNL     1       7.793  -3.617  -4.788  0.00  0.00    +0.000 A 
BRANCH  21  23
ATOM     23  C   UNL     1       9.144  -2.771  -6.729  0.00  0.00    +0.000 A 
ATOM     24  C   UNL     1       9.144  -2.603  -8.105  0.00  0.00    +0.000 A 
ATOM     25  N   UNL     1       9.857  -1.663  -8.770  0.00  0.00    +0.000 NA
ATOM     26  C   UNL     1      10.616  -0.865  -8.008  0.00  0.00    +0.000 A 
ATOM     27  N   UNL     1      10.711  -0.915  -6.672  0.00  0.00    +0.000 NA
ATOM     28  C   UNL     1       9.973  -1.877  -6.071  0.00  0.00    +0.000 A 
ENDBRANCH  21  23
ENDBRANCH   1  17
TORSDOF 4
