REMARK  Name = 
REMARK  4 active torsions:
REMARK  status: ('A' for Active; 'I' for Inactive)
REMARK    1  A    between atoms: N_1  and  C_2
REMARK    2  A    between atoms: C_2  and  C_3
REMARK    3  A    between atoms: C_7  and  C_8
REMARK    4  A    between atoms: C_9  and  C_10
REMARK                            x       y       z     vdW  Elec       q    Type
REMARK                         _______ _______ _______ _____ _____    ______ ____
ROOT
ATOM      1  C   UNL     1       2.968  -0.872   1.022  0.00  0.00    +0.000 A 
ATOM      2  C   UNL     1       3.498  -0.370   2.196  0.00  0.00    +0.000 A 
ATOM      3  C   UNL     1       3.746  -1.286   3.191  0.00  0.00    +0.000 A 
ATOM      4  N   UNL     1       3.493  -2.602   3.073  0.00  0.00    +0.000 NA
ATOM      5  C   UNL     1       2.980  -2.997   1.894  0.00  0.00    +0.000 A 
ATOM      6  N   UNL     1       2.708  -2.187   0.856  0.00  0.00    +0.000 NA
ENDROOT
BRANCH   5   7
ATOM      7  C   UNL     1       2.670  -4.411   1.697  0.00  0.00    +0.000 C 
ATOM      8  C   UNL     1       2.838  -5.377   2.617  0.00  0.00    +0.000 C 
BRANCH   8   9
ATOM      9  C   UNL     1       2.503  -6.786   2.370  0.00  0.00    +0.000 A 
ATOM     10  C   UNL     1       2.713  -7.743   3.358  0.00  0.00    +0.000 A 
ATOM     11  C   UNL     1       2.387  -9.071   3.088  0.00  0.00    +0.000 A 
ATOM     12  C   UNL     1       1.860  -9.405   1.847  0.00  0.00    +0.000 A 
ATOM     13  C   UNL     1       1.680  -8.392   0.922  0.00  0.00    +0.000 A 
ATOM     14  N   UNL     1       1.989  -7.099   1.156  0.00  0.00    +0.000 NA
ENDBRANCH   8   9
ENDBRANCH   5   7
BRANCH   1  15
ATOM     15  C   UNL     1       2.644   0.048  -0.133  0.00  0.00    +0.000 C 
BRANCH  15  16
ATOM     16  N   UNL     1       3.809   0.803  -0.605  0.00  0.00    +0.000 NA
ATOM     17  H   UNL     1       3.540   1.318  -1.442  0.00  0.00    +0.000 HD
ATOM     18  H   UNL     1       4.514   0.131  -0.911  0.00  0.00    +0.000 HD
ENDBRANCH  15  16
ENDBRANCH   1  15
TORSDOF 4
