REMARK  Name = 
REMARK  6 active torsions:
REMARK  status: ('A' for Active; 'I' for Inactive)
REMARK    1  A    between atoms: C_1  and  C_2
REMARK    2  A    between atoms: C_2  and  N_3
REMARK    3  A    between atoms: C_2  and  C_16
REMARK    4  A    between atoms: C_4  and  C_6
REMARK    5  A    between atoms: C_19  and  C_20
REMARK    6  A    between atoms: C_20  and  N_21
REMARK                            x       y       z     vdW  Elec       q    Type
REMARK                         _______ _______ _______ _____ _____    ______ ____
ROOT
ATOM      1  C   UNL     1       1.845  -1.173   0.552  0.00  0.00    +0.000 C 
ATOM      2  C   UNL     1       2.568   0.061  -0.003  0.00  0.00    +0.000 C 
ENDROOT
BRANCH   2   3
ATOM      3  C   UNL     1       2.869   1.097   1.077  0.00  0.00    +0.000 A 
ATOM      4  C   UNL     1       2.763   2.467   0.787  0.00  0.00    +0.000 A 
ATOM      5  C   UNL     1       3.028   3.435   1.767  0.00  0.00    +0.000 A 
ATOM      6  C   UNL     1       3.421   3.059   3.060  0.00  0.00    +0.000 A 
ATOM      7  C   UNL     1       3.542   1.696   3.348  0.00  0.00    +0.000 A 
ATOM      8  C   UNL     1       3.288   0.731   2.366  0.00  0.00    +0.000 A 
BRANCH   6   9
ATOM      9  C   UNL     1       3.686   4.093   4.126  0.00  0.00    +0.000 C 
BRANCH   9  10
ATOM     10  N   UNL     1       2.477   4.423   4.851  0.00  0.00    +0.000 N 
ATOM     11  C   UNL     1       2.518   5.363   5.850  0.00  0.00    +0.000 C 
ATOM     12  O   UNL     1       3.556   5.915   6.203  0.00  0.00    +0.000 OA
ATOM     13  N   UNL     1       1.297   5.654   6.395  0.00  0.00    +0.000 N 
ATOM     14  C   UNL     1       1.117   6.674   7.389  0.00  0.00    +0.000 C 
ATOM     15  C   UNL     1      -0.387   6.818   7.394  0.00  0.00    +0.000 C 
ATOM     16  O   UNL     1      -0.911   5.533   7.007  0.00  0.00    +0.000 OA
ATOM     17  C   UNL     1       0.169   4.771   6.452  0.00  0.00    +0.000 C 
ATOM     18  H   UNL     1       1.649   4.480   4.279  0.00  0.00    +0.000 HD
ENDBRANCH   9  10
ENDBRANCH   6   9
ENDBRANCH   2   3
BRANCH   2  19
ATOM     19  N   UNL     1       3.796  -0.287  -0.700  0.00  0.00    +0.000 N 
ATOM     20  C   UNL     1       3.830  -0.998  -1.871  0.00  0.00    +0.000 C 
ATOM     21  O   UNL     1       2.815  -1.458  -2.390  0.00  0.00    +0.000 OA
ATOM     22  H   UNL     1       4.664   0.009  -0.265  0.00  0.00    +0.000 HD
BRANCH  20  23
ATOM     23  C   UNL     1       5.141  -1.140  -2.523  0.00  0.00    +0.000 A 
ATOM     24  C   UNL     1       5.206  -1.456  -3.874  0.00  0.00    +0.000 A 
ATOM     25  S   UNL     1       6.796  -1.540  -4.486  0.00  0.00    +0.000 S 
ATOM     26  C   UNL     1       7.459  -1.215  -2.955  0.00  0.00    +0.000 A 
ATOM     27  N   UNL     1       8.806  -1.179  -2.771  0.00  0.00    +0.000 NA
ATOM     28  C   UNL     1       9.174  -0.957  -1.554  0.00  0.00    +0.000 A 
ATOM     29  N   UNL     1       8.316  -0.755  -0.505  0.00  0.00    +0.000 N 
ATOM     30  C   UNL     1       6.947  -0.731  -0.651  0.00  0.00    +0.000 A 
ATOM     31  O   UNL     1       6.216  -0.461   0.290  0.00  0.00    +0.000 OA
ATOM     32  C   UNL     1       6.481  -1.013  -1.996  0.00  0.00    +0.000 A 
ATOM     33  H   UNL     1       8.665  -0.559   0.419  0.00  0.00    +0.000 HD
ENDBRANCH  20  23
ENDBRANCH   2  19
TORSDOF 5
