REMARK  Name = 
REMARK  6 active torsions:
REMARK  status: ('A' for Active; 'I' for Inactive)
REMARK    1  A    between atoms: C_2  and  C_21
REMARK    2  A    between atoms: N_3  and  C_4
REMARK    3  A    between atoms: C_4  and  C_5
REMARK    4  A    between atoms: C_8  and  C_9
REMARK    5  A    between atoms: C_9  and  C_10
REMARK    6  A    between atoms: C_10  and  C_11
REMARK                            x       y       z     vdW  Elec       q    Type
REMARK                         _______ _______ _______ _____ _____    ______ ____
ROOT
ATOM      1  C   UNL     1       2.323   0.260   2.381  0.00  0.00    +0.000 C 
ENDROOT
BRANCH   1   2
ATOM      2  C   UNL     1       3.254   0.451   3.550  0.00  0.00    +0.000 A 
ATOM      3  C   UNL     1       3.562   1.741   4.001  0.00  0.00    +0.000 A 
ATOM      4  C   UNL     1       4.391   1.935   5.111  0.00  0.00    +0.000 A 
ATOM      5  C   UNL     1       4.940   0.841   5.796  0.00  0.00    +0.000 A 
ATOM      6  C   UNL     1       4.638  -0.448   5.338  0.00  0.00    +0.000 A 
ATOM      7  C   UNL     1       3.817  -0.642   4.220  0.00  0.00    +0.000 A 
BRANCH   5   8
ATOM      8  C   UNL     1       5.883   1.033   6.968  0.00  0.00    +0.000 C 
BRANCH   8   9
ATOM      9  C   UNL     1       5.248   1.804   8.122  0.00  0.00    +0.000 C 
BRANCH   9  10
ATOM     10  C   UNL     1       6.182   2.027   9.296  0.00  0.00    +0.000 C 
ATOM     11  O   UNL     1       7.322   1.558   9.324  0.00  0.00    +0.000 OA
ATOM     12  N   UNL     1       5.665   2.810  10.334  0.00  0.00    +0.000 N 
ATOM     13  C   UNL     1       6.530   3.260  11.421  0.00  0.00    +0.000 C 
ATOM     14  C   UNL     1       5.924   2.930  12.785  0.00  0.00    +0.000 C 
ATOM     15  C   UNL     1       4.480   3.420  12.896  0.00  0.00    +0.000 C 
ATOM     16  C   UNL     1       3.642   2.928  11.717  0.00  0.00    +0.000 C 
ATOM     17  C   UNL     1       4.288   3.307  10.390  0.00  0.00    +0.000 C 
ENDBRANCH   9  10
ENDBRANCH   8   9
ENDBRANCH   5   8
ENDBRANCH   1   2
BRANCH   1  20
ATOM     18  O   UNL     1       2.714   2.525   0.771  0.00  0.00    +0.000 OA
ATOM     19  C   UNL     1       3.175   1.443   0.405  0.00  0.00    +0.000 C 
ATOM     20  N   UNL     1       2.997   0.282   1.112  0.00  0.00    +0.000 N 
ATOM     21  H   UNL     1       3.545  -0.537   0.878  0.00  0.00    +0.000 HD
BRANCH  19  22
ATOM     22  C   UNL     1       3.904   1.319  -0.856  0.00  0.00    +0.000 A 
ATOM     23  C   UNL     1       3.642   2.184  -1.912  0.00  0.00    +0.000 A 
ATOM     24  S   UNL     1       4.617   1.885  -3.285  0.00  0.00    +0.000 S 
ATOM     25  C   UNL     1       5.426   0.609  -2.499  0.00  0.00    +0.000 A 
ATOM     26  N   UNL     1       6.424  -0.078  -3.120  0.00  0.00    +0.000 NA
ATOM     27  C   UNL     1       6.970  -0.991  -2.387  0.00  0.00    +0.000 A 
ATOM     28  N   UNL     1       6.608  -1.289  -1.100  0.00  0.00    +0.000 N 
ATOM     29  C   UNL     1       5.557  -0.677  -0.464  0.00  0.00    +0.000 A 
ATOM     30  O   UNL     1       5.167  -1.069   0.629  0.00  0.00    +0.000 OA
ATOM     31  C   UNL     1       4.945   0.394  -1.222  0.00  0.00    +0.000 A 
ATOM     32  H   UNL     1       7.053  -2.035  -0.591  0.00  0.00    +0.000 HD
ENDBRANCH  19  22
ENDBRANCH   1  20
TORSDOF 6
