REMARK  Name = 
REMARK  9 active torsions:
REMARK  status: ('A' for Active; 'I' for Inactive)
REMARK    1  A    between atoms: C_2  and  C_21
REMARK    2  A    between atoms: N_3  and  C_4
REMARK    3  A    between atoms: C_4  and  C_5
REMARK    4  A    between atoms: C_8  and  C_9
REMARK    5  A    between atoms: C_9  and  N_10
REMARK    6  A    between atoms: N_10  and  CA_11
REMARK    7  A    between atoms: CA_11  and  C_12
REMARK    8  A    between atoms: CA_11  and  C_14
REMARK    9  A    between atoms: C_12  and  O_13
REMARK                            x       y       z     vdW  Elec       q    Type
REMARK                         _______ _______ _______ _____ _____    ______ ____
ROOT
ATOM      1  C   UNL     1      10.584  -8.633   0.617  0.00  0.00    +0.000 A 
ATOM      2  C   UNL     1       9.782  -9.183   1.629  0.00  0.00    +0.000 A 
ATOM      3  C   UNL     1       9.286  -8.385   2.664  0.00  0.00    +0.000 A 
ATOM      4  C   UNL     1       9.582  -7.018   2.701  0.00  0.00    +0.000 A 
ATOM      5  C   UNL     1      10.366  -6.467   1.675  0.00  0.00    +0.000 A 
ATOM      6  C   UNL     1      10.850  -7.261   0.637  0.00  0.00    +0.000 A 
ENDROOT
BRANCH   1   7
ATOM      7  C   UNL     1      11.163  -9.509  -0.461  0.00  0.00    +0.000 C 
BRANCH   7  10
ATOM      8  O   UNL     1       9.313 -11.596  -0.767  0.00  0.00    +0.000 OA
ATOM      9  C   UNL     1       9.367 -10.714  -1.619  0.00  0.00    +0.000 C 
ATOM     10  N   UNL     1      10.266  -9.676  -1.570  0.00  0.00    +0.000 N 
ATOM     11  H   UNL     1      10.160  -8.885  -2.189  0.00  0.00    +0.000 HD
BRANCH   9  12
ATOM     12  C   UNL     1       8.477 -10.727  -2.779  0.00  0.00    +0.000 A 
ATOM     13  C   UNL     1       7.960 -11.919  -3.266  0.00  0.00    +0.000 A 
ATOM     14  S   UNL     1       6.878 -11.701  -4.570  0.00  0.00    +0.000 S 
ATOM     15  C   UNL     1       7.068 -10.006  -4.516  0.00  0.00    +0.000 A 
ATOM     16  N   UNL     1       6.369  -9.193  -5.350  0.00  0.00    +0.000 NA
ATOM     17  C   UNL     1       6.590  -7.928  -5.166  0.00  0.00    +0.000 A 
ATOM     18  N   UNL     1       7.462  -7.412  -4.242  0.00  0.00    +0.000 N 
ATOM     19  C   UNL     1       8.256  -8.200  -3.449  0.00  0.00    +0.000 A 
ATOM     20  O   UNL     1       9.148  -7.705  -2.775  0.00  0.00    +0.000 OA
ATOM     21  C   UNL     1       7.981  -9.620  -3.555  0.00  0.00    +0.000 A 
ATOM     22  H   UNL     1       7.639  -6.422  -4.190  0.00  0.00    +0.000 HD
ENDBRANCH   9  12
ENDBRANCH   7  10
ENDBRANCH   1   7
BRANCH   4  23
ATOM     23  C   UNL     1       9.020  -6.111   3.765  0.00  0.00    +0.000 C 
BRANCH  23  24
ATOM     24  N   UNL     1       9.467  -6.445   5.115  0.00  0.00    +0.000 NA
ATOM     25  H   UNL     1      10.483  -6.452   5.166  0.00  0.00    +0.000 HD
BRANCH  24  26
ATOM     26  CA  UNL     1       8.886  -5.551   6.153  0.00  0.00    +0.000 C 
BRANCH  26  27
ATOM     27  C   UNL     1       9.378  -5.977   7.574  0.00  0.00    +0.000 C 
ATOM     28  C   UNL     1       9.111  -7.447   7.889  0.00  0.00    +0.000 C 
ATOM     29  C   UNL     1       9.269  -7.507   9.396  0.00  0.00    +0.000 C 
ATOM     30  C   UNL     1       8.833  -6.134   9.878  0.00  0.00    +0.000 C 
ATOM     31  N   UNL     1       8.678  -5.296   8.683  0.00  0.00    +0.000 NA
ATOM     32  H   UNL     1       9.090  -4.378   8.844  0.00  0.00    +0.000 HD
ENDBRANCH  26  27
BRANCH  26  33
ATOM     33  C   UNL     1       9.165  -4.046   5.891  0.00  0.00    +0.000 C 
BRANCH  33  34
ATOM     34  O   UNL     1      10.555  -3.735   5.958  0.00  0.00    +0.000 OA
ATOM     35  H   UNL     1      10.990  -4.203   5.225  0.00  0.00    +0.000 HD
ENDBRANCH  33  34
ENDBRANCH  26  33
ENDBRANCH  24  26
ENDBRANCH  23  24
ENDBRANCH   4  23
TORSDOF 9
