REMARK  Name = 
REMARK  10 active torsions:
REMARK  status: ('A' for Active; 'I' for Inactive)
REMARK    1  A    between atoms: N_1  and  C_2
REMARK    2  A    between atoms: C_2  and  C_3
REMARK    3  A    between atoms: C_3  and  C_4
REMARK    4  A    between atoms: C_4  and  N_5
REMARK    5  A    between atoms: C_4  and  C_27
REMARK    6  A    between atoms: N_5  and  C_6
REMARK    7  A    between atoms: C_6  and  C_7
REMARK    8  A    between atoms: C_10  and  C_11
REMARK    9  A    between atoms: C_11  and  N_12
REMARK   10  A    between atoms: C_13  and  C_15
REMARK                            x       y       z     vdW  Elec       q    Type
REMARK                         _______ _______ _______ _____ _____    ______ ____
ROOT
ATOM      1  C   UNL     1       0.839  -0.574  -0.117  0.00  0.00    +0.000 A 
ATOM      2  C   UNL     1       0.232  -1.474   0.753  0.00  0.00    +0.000 A 
ATOM      3  C   UNL     1      -1.140  -1.457   0.898  0.00  0.00    +0.000 A 
ATOM      4  C   UNL     1      -1.880  -0.513   0.186  0.00  0.00    +0.000 A 
ATOM      5  C   UNL     1      -1.182   0.367  -0.638  0.00  0.00    +0.000 A 
ATOM      6  N   UNL     1       0.158   0.367  -0.806  0.00  0.00    +0.000 NA
ENDROOT
BRANCH   1   7
ATOM      7  C   UNL     1       2.346  -0.574  -0.145  0.00  0.00    +0.000 C 
BRANCH   7   8
ATOM      8  N   UNL     1       3.064  -1.763  -0.574  0.00  0.00    +0.000 NA
ATOM      9  H   UNL     1       2.981  -2.486   0.130  0.00  0.00    +0.000 HD
BRANCH   8  10
ATOM     10  C   UNL     1       2.753  -2.290  -1.928  0.00  0.00    +0.000 C 
BRANCH  10  11
ATOM     11  C   UNL     1       3.620  -3.536  -2.137  0.00  0.00    +0.000 A 
ATOM     12  C   UNL     1       3.120  -4.791  -1.794  0.00  0.00    +0.000 A 
ATOM     13  C   UNL     1       3.944  -5.903  -1.929  0.00  0.00    +0.000 A 
ATOM     14  C   UNL     1       5.247  -5.735  -2.380  0.00  0.00    +0.000 A 
ATOM     15  C   UNL     1       5.674  -4.455  -2.685  0.00  0.00    +0.000 A 
ATOM     16  N   UNL     1       4.897  -3.359  -2.572  0.00  0.00    +0.000 NA
ENDBRANCH  10  11
BRANCH  10  17
ATOM     17  C   UNL     1       2.845  -1.366  -3.187  0.00  0.00    +0.000 C 
BRANCH  17  18
ATOM     18  C   UNL     1       2.344  -1.987  -4.520  0.00  0.00    +0.000 C 
BRANCH  18  19
ATOM     19  N   UNL     1       0.964  -2.468  -4.655  0.00  0.00    +0.000 NA
ATOM     20  H   UNL     1       0.911  -2.911  -5.580  0.00  0.00    +0.000 HD
ATOM     21  H   UNL     1       0.354  -1.656  -4.751  0.00  0.00    +0.000 HD
ENDBRANCH  18  19
ENDBRANCH  17  18
ENDBRANCH  10  17
ENDBRANCH   8  10
ENDBRANCH   7   8
ENDBRANCH   1   7
BRANCH   4  22
ATOM     22  C   UNL     1      -3.370  -0.411   0.281  0.00  0.00    +0.000 C 
BRANCH  22  23
ATOM     23  N   UNL     1      -3.805   0.493   1.316  0.00  0.00    +0.000 N 
ATOM     24  C   UNL     1      -5.150   0.703   1.523  0.00  0.00    +0.000 C 
ATOM     25  O   UNL     1      -6.015   0.144   0.881  0.00  0.00    +0.000 OA
ATOM     26  H   UNL     1      -3.181   1.251   1.559  0.00  0.00    +0.000 HD
BRANCH  24  27
ATOM     27  C   UNL     1      -5.465   1.632   2.619  0.00  0.00    +0.000 A 
ATOM     28  C   UNL     1      -6.641   1.469   3.334  0.00  0.00    +0.000 A 
ATOM     29  S   UNL     1      -6.861   2.652   4.544  0.00  0.00    +0.000 S 
ATOM     30  C   UNL     1      -5.406   3.434   4.132  0.00  0.00    +0.000 A 
ATOM     31  N   UNL     1      -5.012   4.567   4.765  0.00  0.00    +0.000 NA
ATOM     32  C   UNL     1      -3.895   5.063   4.334  0.00  0.00    +0.000 A 
ATOM     33  N   UNL     1      -3.133   4.511   3.332  0.00  0.00    +0.000 N 
ATOM     34  C   UNL     1      -3.466   3.338   2.716  0.00  0.00    +0.000 A 
ATOM     35  O   UNL     1      -2.699   2.796   1.897  0.00  0.00    +0.000 OA
ATOM     36  C   UNL     1      -4.733   2.770   3.116  0.00  0.00    +0.000 A 
ATOM     37  H   UNL     1      -2.246   4.922   3.077  0.00  0.00    +0.000 HD
ENDBRANCH  24  27
ENDBRANCH  22  23
ENDBRANCH   4  22
TORSDOF 10
