REMARK  Name = 
REMARK  7 active torsions:
REMARK  status: ('A' for Active; 'I' for Inactive)
REMARK    1  A    between atoms: C_1  and  C_2
REMARK    2  A    between atoms: C_2  and  C_3
REMARK    3  A    between atoms: C_3  and  N_4
REMARK    4  A    between atoms: C_3  and  C_5
REMARK    5  A    between atoms: C_8  and  C_9
REMARK    6  A    between atoms: C_9  and  N_10
REMARK    7  A    between atoms: N_10  and  C_11
REMARK                            x       y       z     vdW  Elec       q    Type
REMARK                         _______ _______ _______ _____ _____    ______ ____
ROOT
ATOM      1  C   UNL     1       4.516  -1.321   0.293  0.00  0.00    +0.000 A 
ATOM      2  C   UNL     1       5.191  -1.282  -0.927  0.00  0.00    +0.000 A 
ATOM      3  C   UNL     1       6.586  -1.280  -0.932  0.00  0.00    +0.000 A 
ATOM      4  C   UNL     1       7.285  -1.308   0.277  0.00  0.00    +0.000 A 
ATOM      5  C   UNL     1       6.530  -1.278   1.444  0.00  0.00    +0.000 A 
ATOM      6  N   UNL     1       5.179  -1.287   1.477  0.00  0.00    +0.000 NA
ENDROOT
BRANCH   1   7
ATOM      7  C   UNL     1       2.987  -1.370   0.316  0.00  0.00    +0.000 C 
BRANCH   7   8
ATOM      8  N   UNL     1       2.421  -0.016   0.223  0.00  0.00    +0.000 NA
ATOM      9  H   UNL     1       2.681   0.483   1.076  0.00  0.00    +0.000 HD
ATOM     10  H   UNL     1       1.406  -0.069   0.225  0.00  0.00    +0.000 HD
ENDBRANCH   7   8
BRANCH   7  12
ATOM     11  C   UNL     1       0.962  -2.324   1.599  0.00  0.00    +0.000 C 
ATOM     12  C   UNL     1       2.472  -2.128   1.561  0.00  0.00    +0.000 C 
ENDBRANCH   7  12
ENDBRANCH   1   7
BRANCH   4  13
ATOM     13  C   UNL     1       8.785  -1.380   0.327  0.00  0.00    +0.000 C 
BRANCH  13  14
ATOM     14  N   UNL     1       9.363  -0.047   0.343  0.00  0.00    +0.000 N 
ATOM     15  H   UNL     1       8.888   0.606  -0.277  0.00  0.00    +0.000 HD
BRANCH  14  16
ATOM     16  C   UNL     1      10.753   0.110   0.291  0.00  0.00    +0.000 A 
ATOM     17  C   UNL     1      11.668  -0.934   0.476  0.00  0.00    +0.000 A 
ATOM     18  C   UNL     1      13.048  -0.703   0.458  0.00  0.00    +0.000 A 
ATOM     19  C   UNL     1      13.540   0.588   0.292  0.00  0.00    +0.000 A 
ATOM     20  C   UNL     1      12.649   1.648   0.162  0.00  0.00    +0.000 A 
ATOM     21  C   UNL     1      11.271   1.409   0.171  0.00  0.00    +0.000 A 
ENDBRANCH  14  16
ENDBRANCH  13  14
ENDBRANCH   4  13
TORSDOF 6
