REMARK  Name = 
REMARK  8 active torsions:
REMARK  status: ('A' for Active; 'I' for Inactive)
REMARK    1  A    between atoms: C_1  and  C_2
REMARK    2  A    between atoms: C_4  and  C_5
REMARK    3  A    between atoms: C_10  and  O_11
REMARK    4  A    between atoms: O_11  and  C_12
REMARK    5  A    between atoms: C_12  and  C_13
REMARK    6  A    between atoms: C_17  and  C_18
REMARK    7  A    between atoms: C_22  and  O_23
REMARK    8  A    between atoms: O_23  and  C_24
REMARK                            x       y       z     vdW  Elec       q    Type
REMARK                         _______ _______ _______ _____ _____    ______ ____
ROOT
ATOM      1  C   UNL     1       2.664  -3.987   0.150  0.00  0.00    +0.000 A 
ATOM      2  N   UNL     1       3.992  -4.199   0.245  0.00  0.00    +0.000 NA
ATOM      3  C   UNL     1       4.401  -5.476   0.201  0.00  0.00    +0.000 A 
ATOM      4  C   UNL     1       3.543  -6.542   0.073  0.00  0.00    +0.000 A 
ATOM      5  C   UNL     1       2.195  -6.245  -0.007  0.00  0.00    +0.000 A 
ATOM      6  N   UNL     1       1.748  -4.971   0.011  0.00  0.00    +0.000 NA
ENDROOT
BRANCH   5   7
ATOM      7  C   UNL     1       1.159  -7.286  -0.111  0.00  0.00    +0.000 A 
ATOM      8  C   UNL     1      -0.003  -7.089  -0.860  0.00  0.00    +0.000 A 
ATOM      9  N   UNL     1      -1.004  -7.995  -0.989  0.00  0.00    +0.000 NA
ATOM     10  C   UNL     1      -0.851  -9.163  -0.328  0.00  0.00    +0.000 A 
ATOM     11  C   UNL     1       0.265  -9.487   0.431  0.00  0.00    +0.000 A 
ATOM     12  C   UNL     1       1.268  -8.524   0.550  0.00  0.00    +0.000 A 
BRANCH  11  13
ATOM     13  O   UNL     1       0.262 -10.714   1.025  0.00  0.00    +0.000 OA
BRANCH  13  14
ATOM     14  C   UNL     1       1.541 -11.268   1.286  0.00  0.00    +0.000 C 
ATOM     15  F   UNL     1       2.010 -10.760   2.452  0.00  0.00    +0.000 F 
ATOM     16  F   UNL     1       1.375 -12.600   1.476  0.00  0.00    +0.000 F 
ENDBRANCH  13  14
ENDBRANCH  11  13
ENDBRANCH   5   7
BRANCH   1  17
ATOM     17  C   UNL     1       2.185  -2.553   0.079  0.00  0.00    +0.000 C 
BRANCH  17  18
ATOM     18  O   UNL     1       1.866  -2.004   1.370  0.00  0.00    +0.000 OA
BRANCH  18  25
ATOM     19  C   UNL     1       1.148  -0.574   3.776  0.00  0.00    +0.000 C 
ATOM     20  C   UNL     1       1.118   0.027   2.404  0.00  0.00    +0.000 A 
ATOM     21  C   UNL     1       0.722   1.366   2.234  0.00  0.00    +0.000 A 
ATOM     22  C   UNL     1       0.685   1.945   0.962  0.00  0.00    +0.000 A 
ATOM     23  C   UNL     1       1.053   1.150  -0.103  0.00  0.00    +0.000 A 
ATOM     24  N   UNL     1       1.438  -0.140   0.016  0.00  0.00    +0.000 NA
ATOM     25  C   UNL     1       1.468  -0.684   1.257  0.00  0.00    +0.000 A 
BRANCH  22  26
ATOM     26  C   UNL     1       0.263   3.360   0.814  0.00  0.00    +0.000 C 
ATOM     27  N   UNL     1       0.230   3.915  -0.433  0.00  0.00    +0.000 N 
ATOM     28  O   UNL     1      -0.055   4.030   1.791  0.00  0.00    +0.000 OA
ATOM     29  H   UNL     1       0.462   3.462  -1.304  0.00  0.00    +0.000 HD
ATOM     30  H   UNL     1      -0.070   4.885  -0.485  0.00  0.00    +0.000 HD
ENDBRANCH  22  26
ENDBRANCH  18  25
ENDBRANCH  17  18
ENDBRANCH   1  17
TORSDOF 7
