REMARK  Name = 
REMARK  5 active torsions:
REMARK  status: ('A' for Active; 'I' for Inactive)
REMARK    1  A    between atoms: C_2  and  C_4
REMARK    2  A    between atoms: N_8  and  C_9
REMARK    3  A    between atoms: C_9  and  C_10
REMARK    4  A    between atoms: C_10  and  C_13
REMARK    5  A    between atoms: C_15  and  C_16
REMARK                            x       y       z     vdW  Elec       q    Type
REMARK                         _______ _______ _______ _____ _____    ______ ____
ROOT
ATOM      1  C   UNL     1       6.203  -3.923   5.622  0.00  0.00    +0.000 C 
ATOM      2  F   UNL     1       5.091  -4.351   6.297  0.00  0.00    +0.000 F 
ATOM      3  F   UNL     1       6.682  -5.040   4.985  0.00  0.00    +0.000 F 
ENDROOT
BRANCH   1   4
ATOM      4  C   UNL     1       7.245  -3.331   6.571  0.00  0.00    +0.000 A 
ATOM      5  C   UNL     1       8.167  -4.186   7.182  0.00  0.00    +0.000 A 
ATOM      6  C   UNL     1       9.124  -3.685   8.081  0.00  0.00    +0.000 A 
ATOM      7  C   UNL     1       9.100  -2.307   8.324  0.00  0.00    +0.000 A 
ATOM      8  C   UNL     1       8.149  -1.520   7.693  0.00  0.00    +0.000 A 
ATOM      9  N   UNL     1       7.228  -1.999   6.833  0.00  0.00    +0.000 NA
BRANCH   6  10
ATOM     10  C   UNL     1      10.093  -4.585   8.749  0.00  0.00    +0.000 A 
ATOM     11  C   UNL     1      10.584  -5.737   8.117  0.00  0.00    +0.000 A 
ATOM     12  C   UNL     1      11.454  -6.578   8.798  0.00  0.00    +0.000 A 
ATOM     13  N   UNL     1      11.886  -6.353  10.051  0.00  0.00    +0.000 NA
ATOM     14  C   UNL     1      11.424  -5.237  10.646  0.00  0.00    +0.000 A 
ATOM     15  F   UNL     1      11.840  -4.985  11.895  0.00  0.00    +0.000 F 
ATOM     16  C   UNL     1      10.547  -4.343  10.054  0.00  0.00    +0.000 A 
ENDBRANCH   6  10
ENDBRANCH   1   4
BRANCH   1  17
ATOM     17  C   UNL     1       5.762  -2.899   4.554  0.00  0.00    +0.000 C 
BRANCH  17  22
ATOM     18  C   UNL     1       3.562  -0.731   0.751  0.00  0.00    +0.000 A 
ATOM     19  C   UNL     1       4.804  -0.659   1.333  0.00  0.00    +0.000 A 
ATOM     20  N   UNL     1       5.247  -1.538   2.253  0.00  0.00    +0.000 NA
ATOM     21  C   UNL     1       4.410  -2.523   2.620  0.00  0.00    +0.000 A 
ATOM     22  N   UNL     1       4.830  -3.457   3.555  0.00  0.00    +0.000 N 
ATOM     23  N   UNL     1       3.168  -2.660   2.135  0.00  0.00    +0.000 NA
ATOM     24  C   UNL     1       2.765  -1.755   1.209  0.00  0.00    +0.000 A 
ATOM     25  H   UNL     1       4.003  -3.912   3.932  0.00  0.00    +0.000 HD
BRANCH  18  27
ATOM     26  N   UNL     1       4.035   0.816  -1.053  0.00  0.00    +0.000 N 
ATOM     27  C   UNL     1       3.092   0.224  -0.258  0.00  0.00    +0.000 C 
ATOM     28  O   UNL     1       1.899   0.460  -0.400  0.00  0.00    +0.000 OA
ATOM     29  H   UNL     1       3.689   1.401  -1.804  0.00  0.00    +0.000 HD
ATOM     30  H   UNL     1       4.981   0.470  -1.143  0.00  0.00    +0.000 HD
ENDBRANCH  18  27
ENDBRANCH  17  22
ENDBRANCH   1  17
TORSDOF 5
