REMARK  Name = 
REMARK  4 active torsions:
REMARK  status: ('A' for Active; 'I' for Inactive)
REMARK    1  A    between atoms: C_1  and  C_2
REMARK    2  A    between atoms: N_7  and  C_8
REMARK    3  A    between atoms: C_8  and  C_9
REMARK    4  A    between atoms: C_8  and  C_10
REMARK                            x       y       z     vdW  Elec       q    Type
REMARK                         _______ _______ _______ _____ _____    ______ ____
ROOT
ATOM      1  C   UNL     1      -2.038  -0.616   0.421  0.00  0.00    +0.000 C 
ATOM      2  C   UNL     1      -0.663  -0.218   0.870  0.00  0.00    +0.000 A 
ATOM      3  C   UNL     1      -0.008  -0.925   1.849  0.00  0.00    +0.000 A 
ATOM      4  C   UNL     1       1.227  -0.438   2.205  0.00  0.00    +0.000 A 
ATOM      5  N   UNL     1       1.795   0.647   1.639  0.00  0.00    +0.000 NA
ATOM      6  C   UNL     1       1.094   1.273   0.686  0.00  0.00    +0.000 A 
ATOM      7  N   UNL     1       1.582   2.410   0.062  0.00  0.00    +0.000 N 
ATOM      8  N   UNL     1      -0.123   0.874   0.278  0.00  0.00    +0.000 NA
ATOM      9  H   UNL     1       1.011   2.564  -0.759  0.00  0.00    +0.000 HD
ENDROOT
BRANCH   7  10
ATOM     10  C   UNL     1       3.018   2.548  -0.110  0.00  0.00    +0.000 C 
ATOM     11  C   UNL     1       3.496   1.882  -1.405  0.00  0.00    +0.000 C 
BRANCH  10  12
ATOM     12  C   UNL     1       3.402   4.029  -0.107  0.00  0.00    +0.000 A 
ATOM     13  C   UNL     1       4.317   4.501   0.849  0.00  0.00    +0.000 A 
ATOM     14  C   UNL     1       4.748   5.830   0.847  0.00  0.00    +0.000 A 
ATOM     15  C   UNL     1       4.265   6.719  -0.109  0.00  0.00    +0.000 A 
ATOM     16  C   UNL     1       3.342   6.272  -1.053  0.00  0.00    +0.000 A 
ATOM     17 CL   UNL     1       2.746   7.374  -2.235  0.00  0.00    +0.000 Cl
ATOM     18  C   UNL     1       2.909   4.942  -1.057  0.00  0.00    +0.000 A 
ENDBRANCH  10  12
ENDBRANCH   7  10
TORSDOF 2
