REMARK  Name = 
REMARK  6 active torsions:
REMARK  status: ('A' for Active; 'I' for Inactive)
REMARK    1  A    between atoms: N_1  and  C_2
REMARK    2  A    between atoms: C_2  and  C_3
REMARK    3  A    between atoms: C_3  and  C_4
REMARK    4  A    between atoms: C_7  and  C_8
REMARK    5  A    between atoms: C_8  and  N_9
REMARK    6  A    between atoms: C_14  and  C_15
REMARK                            x       y       z     vdW  Elec       q    Type
REMARK                         _______ _______ _______ _____ _____    ______ ____
ROOT
ATOM      1  N   UNL     1       9.626   1.450   0.779  0.00  0.00    +0.000 N 
ATOM      2  N   UNL     1      10.129   2.277   1.728  0.00  0.00    +0.000 NA
ATOM      3  C   UNL     1      10.741   3.229   1.024  0.00  0.00    +0.000 A 
ATOM      4  C   UNL     1      10.663   3.009  -0.365  0.00  0.00    +0.000 A 
ATOM      5  C   UNL     1      11.051   3.708  -1.508  0.00  0.00    +0.000 A 
ATOM      6  C   UNL     1      10.775   3.086  -2.717  0.00  0.00    +0.000 A 
ATOM      7  N   UNL     1      10.243   1.836  -2.852  0.00  0.00    +0.000 NA
ATOM      8  C   UNL     1       9.869   1.161  -1.735  0.00  0.00    +0.000 A 
ATOM      9  C   UNL     1      10.027   1.777  -0.497  0.00  0.00    +0.000 A 
ENDROOT
BRANCH   6  10
ATOM     10  C   UNL     1      11.012   3.870  -3.978  0.00  0.00    +0.000 C 
ATOM     11  N   UNL     1      10.749   3.213  -5.146  0.00  0.00    +0.000 N 
ATOM     12  O   UNL     1      11.374   5.038  -3.965  0.00  0.00    +0.000 OA
ATOM     13  H   UNL     1      10.364   2.275  -5.118  0.00  0.00    +0.000 HD
ATOM     14  H   UNL     1      10.793   3.724  -6.016  0.00  0.00    +0.000 HD
ENDBRANCH   6  10
BRANCH   1  15
ATOM     15  C   UNL     1       8.735   0.377   1.192  0.00  0.00    +0.000 C 
BRANCH  15  19
ATOM     16  C   UNL     1       4.506   1.019   0.950  0.00  0.00    +0.000 A 
ATOM     17  C   UNL     1       5.303   2.025   1.496  0.00  0.00    +0.000 A 
ATOM     18  C   UNL     1       6.693   1.866   1.544  0.00  0.00    +0.000 A 
ATOM     19  C   UNL     1       7.270   0.708   1.018  0.00  0.00    +0.000 A 
ATOM     20  N   UNL     1       6.510  -0.253   0.433  0.00  0.00    +0.000 NA
ATOM     21  C   UNL     1       5.165  -0.080   0.414  0.00  0.00    +0.000 A 
BRANCH  16  22
ATOM     22  C   UNL     1       3.000   1.079   0.975  0.00  0.00    +0.000 C 
BRANCH  22  23
ATOM     23  C   UNL     1       2.384   1.727  -0.269  0.00  0.00    +0.000 C 
BRANCH  23  24
ATOM     24  N   UNL     1       0.922   1.691  -0.201  0.00  0.00    +0.000 NA
ATOM     25  H   UNL     1       0.531   2.122  -1.039  0.00  0.00    +0.000 HD
ATOM     26  H   UNL     1       0.596   2.253   0.584  0.00  0.00    +0.000 HD
ENDBRANCH  23  24
ENDBRANCH  22  23
ENDBRANCH  16  22
ENDBRANCH  15  19
ENDBRANCH   1  15
TORSDOF 6
