REMARK  Name = 
REMARK  5 active torsions:
REMARK  status: ('A' for Active; 'I' for Inactive)
REMARK    1  A    between atoms: C_2  and  C_4
REMARK    2  A    between atoms: C_7  and  C_8
REMARK    3  A    between atoms: C_8  and  C_9
REMARK    4  A    between atoms: C_9  and  C_10
REMARK    5  A    between atoms: C_14  and  C_15
REMARK                            x       y       z     vdW  Elec       q    Type
REMARK                         _______ _______ _______ _____ _____    ______ ____
ROOT
ATOM      1  C   UNL     1       4.713   4.199  -4.494  0.00  0.00    +0.000 C 
ATOM      2  C   UNL     1       4.402   5.394  -3.596  0.00  0.00    +0.000 C 
ATOM      3  C   UNL     1       3.320   4.847  -4.470  0.00  0.00    +0.000 C 
ENDROOT
BRANCH   1   4
ATOM      4  C   UNL     1       5.458   4.461  -5.800  0.00  0.00    +0.000 A 
ATOM      5  C   UNL     1       4.968   3.953  -7.004  0.00  0.00    +0.000 A 
ATOM      6  C   UNL     1       5.384   4.519  -8.202  0.00  0.00    +0.000 A 
ATOM      7  C   UNL     1       6.313   5.552  -8.176  0.00  0.00    +0.000 A 
ATOM      8  C   UNL     1       6.846   5.950  -6.955  0.00  0.00    +0.000 A 
ATOM      9  N   UNL     1       6.433   5.404  -5.785  0.00  0.00    +0.000 NA
BRANCH   8  10
ATOM     10  C   UNL     1       7.846   7.026  -6.825  0.00  0.00    +0.000 A 
ATOM     11  C   UNL     1       7.792   8.186  -7.616  0.00  0.00    +0.000 A 
ATOM     12  C   UNL     1       8.758   9.194  -7.481  0.00  0.00    +0.000 A 
ATOM     13  C   UNL     1       9.775   9.049  -6.550  0.00  0.00    +0.000 A 
ATOM     14  F   UNL     1      10.700  10.009  -6.429  0.00  0.00    +0.000 F 
ATOM     15  C   UNL     1       9.844   7.925  -5.740  0.00  0.00    +0.000 A 
ATOM     16  C   UNL     1       8.882   6.922  -5.875  0.00  0.00    +0.000 A 
ENDBRANCH   8  10
ENDBRANCH   1   4
BRANCH   1  17
ATOM     17  C   UNL     1       4.779   2.811  -3.891  0.00  0.00    +0.000 C 
BRANCH  17  21
ATOM     18  C   UNL     1       8.406   1.079  -2.258  0.00  0.00    +0.000 A 
ATOM     19  C   UNL     1       8.454   2.386  -2.761  0.00  0.00    +0.000 A 
ATOM     20  C   UNL     1       7.305   2.984  -3.307  0.00  0.00    +0.000 A 
ATOM     21  C   UNL     1       6.099   2.279  -3.370  0.00  0.00    +0.000 A 
ATOM     22  C   UNL     1       6.078   0.956  -2.879  0.00  0.00    +0.000 A 
ATOM     23  C   UNL     1       7.216   0.358  -2.336  0.00  0.00    +0.000 A 
BRANCH  18  25
ATOM     24  N   UNL     1      10.466   1.228  -0.975  0.00  0.00    +0.000 N 
ATOM     25  C   UNL     1       9.574   0.417  -1.622  0.00  0.00    +0.000 C 
ATOM     26  O   UNL     1       9.710  -0.800  -1.617  0.00  0.00    +0.000 OA
ATOM     27  H   UNL     1      11.162   0.756  -0.411  0.00  0.00    +0.000 HD
ATOM     28  H   UNL     1      10.238   2.181  -0.733  0.00  0.00    +0.000 HD
ENDBRANCH  18  25
ENDBRANCH  17  21
ENDBRANCH   1  17
TORSDOF 5
