REMARK  Name = 
REMARK  3 active torsions:
REMARK  status: ('A' for Active; 'I' for Inactive)
REMARK    1  A    between atoms: C_2  and  C_4
REMARK    2  A    between atoms: N_8  and  C_9
REMARK    3  A    between atoms: C_9  and  C_10
REMARK                            x       y       z     vdW  Elec       q    Type
REMARK                         _______ _______ _______ _____ _____    ______ ____
ROOT
ATOM      1  C   UNL     1       3.435   3.748   0.426  0.00  0.00    +0.000 A 
ATOM      2  C   UNL     1       4.508   2.869   0.317  0.00  0.00    +0.000 A 
ATOM      3  C   UNL     1       5.164   2.458   1.477  0.00  0.00    +0.000 A 
ATOM      4  C   UNL     1       4.752   2.942   2.724  0.00  0.00    +0.000 A 
ATOM      5  N   UNL     1       5.451   2.469   3.861  0.00  0.00    +0.000 N 
ATOM      6  N   UNL     1       3.701   3.778   2.836  0.00  0.00    +0.000 NA
ATOM      7  C   UNL     1       3.081   4.180   1.694  0.00  0.00    +0.000 A 
ATOM      8  H   UNL     1       6.443   2.411   3.650  0.00  0.00    +0.000 HD
ENDROOT
BRANCH   1  10
ATOM      9  N   UNL     1       2.669   3.458  -1.863  0.00  0.00    +0.000 N 
ATOM     10  C   UNL     1       2.684   4.245  -0.746  0.00  0.00    +0.000 C 
ATOM     11  O   UNL     1       2.073   5.307  -0.710  0.00  0.00    +0.000 OA
ATOM     12  H   UNL     1       2.070   3.763  -2.621  0.00  0.00    +0.000 HD
ATOM     13  H   UNL     1       2.943   2.485  -1.851  0.00  0.00    +0.000 HD
ENDBRANCH   1  10
BRANCH   5  14
ATOM     14  C   UNL     1       5.145   2.947   5.233  0.00  0.00    +0.000 C 
ATOM     15  C   UNL     1       5.014   1.823   6.253  0.00  0.00    +0.000 C 
ATOM     16  C   UNL     1       3.814   2.636   5.886  0.00  0.00    +0.000 C 
BRANCH  14  17
ATOM     17  C   UNL     1       5.851   4.228   5.704  0.00  0.00    +0.000 C 
ATOM     18  C   UNL     1       5.485   5.453   4.857  0.00  0.00    +0.000 C 
ATOM     19  C   UNL     1       6.239   6.684   5.334  0.00  0.00    +0.000 C 
ATOM     20  O   UNL     1       7.648   6.449   5.320  0.00  0.00    +0.000 OA
ATOM     21  C   UNL     1       8.024   5.385   6.191  0.00  0.00    +0.000 C 
ATOM     22  C   UNL     1       7.377   4.074   5.760  0.00  0.00    +0.000 C 
ENDBRANCH  14  17
ENDBRANCH   5  14
TORSDOF 3
