REMARK  Name = 
REMARK  7 active torsions:
REMARK  status: ('A' for Active; 'I' for Inactive)
REMARK    1  A    between atoms: C_2  and  C_3
REMARK    2  A    between atoms: C_7  and  C_8
REMARK    3  A    between atoms: N_10  and  C_11
REMARK    4  A    between atoms: C_11  and  C_12
REMARK    5  A    between atoms: C_15  and  C_16
REMARK    6  A    between atoms: C_16  and  N_17
REMARK    7  A    between atoms: C_18  and  C_20
REMARK                            x       y       z     vdW  Elec       q    Type
REMARK                         _______ _______ _______ _____ _____    ______ ____
ROOT
ATOM      1  C   UNL     1       4.080   6.076   1.384  0.00  0.00    +0.000 A 
ATOM      2  C   UNL     1       5.161   6.700   2.022  0.00  0.00    +0.000 A 
ATOM      3  C   UNL     1       4.949   7.726   2.958  0.00  0.00    +0.000 A 
ATOM      4  C   UNL     1       3.652   8.155   3.288  0.00  0.00    +0.000 A 
ATOM      5  C   UNL     1       2.583   7.531   2.633  0.00  0.00    +0.000 A 
ATOM      6  F   UNL     1       1.319   7.905   2.878  0.00  0.00    +0.000 F 
ATOM      7  C   UNL     1       2.786   6.506   1.705  0.00  0.00    +0.000 A 
ENDROOT
BRANCH   1   8
ATOM      8  C   UNL     1       4.280   4.974   0.375  0.00  0.00    +0.000 C 
BRANCH   8  11
ATOM      9  C   UNL     1       3.133   2.937   1.120  0.00  0.00    +0.000 C 
ATOM     10  O   UNL     1       2.042   3.369   0.760  0.00  0.00    +0.000 OA
ATOM     11  N   UNL     1       4.300   3.659   0.986  0.00  0.00    +0.000 N 
ATOM     12  H   UNL     1       5.139   3.367   1.470  0.00  0.00    +0.000 HD
BRANCH   9  17
ATOM     13  C   UNL     1       1.965   0.761   1.724  0.00  0.00    +0.000 C 
ATOM     14  C   UNL     1       2.423  -0.708   1.784  0.00  0.00    +0.000 C 
ATOM     15  C   UNL     1       3.865  -0.750   1.265  0.00  0.00    +0.000 C 
ATOM     16  C   UNL     1       4.232   0.679   0.898  0.00  0.00    +0.000 C 
ATOM     17  C   UNL     1       3.290   1.552   1.730  0.00  0.00    +0.000 C 
BRANCH  13  19
ATOM     18  N   UNL     1       0.428   1.433   3.787  0.00  0.00    +0.000 NA
ATOM     19  C   UNL     1       1.081   1.141   2.883  0.00  0.00    +0.000 C 
ENDBRANCH  13  19
ENDBRANCH   9  17
ENDBRANCH   8  11
ENDBRANCH   1   8
BRANCH   4  20
ATOM     20  C   UNL     1       3.455   9.226   4.335  0.00  0.00    +0.000 C 
BRANCH  20  21
ATOM     21  N   UNL     1       3.465  10.565   3.794  0.00  0.00    +0.000 N 
ATOM     22  C   UNL     1       3.879  11.656   4.521  0.00  0.00    +0.000 C 
ATOM     23  O   UNL     1       4.319  11.577   5.663  0.00  0.00    +0.000 OA
ATOM     24  H   UNL     1       2.877  10.731   2.984  0.00  0.00    +0.000 HD
BRANCH  22  25
ATOM     25  C   UNL     1       3.846  12.932   3.796  0.00  0.00    +0.000 A 
ATOM     26  C   UNL     1       4.761  13.935   4.085  0.00  0.00    +0.000 A 
ATOM     27  S   UNL     1       4.567  15.329   3.118  0.00  0.00    +0.000 S 
ATOM     28  C   UNL     1       3.235  14.650   2.305  0.00  0.00    +0.000 A 
ATOM     29  N   UNL     1       2.563  15.346   1.349  0.00  0.00    +0.000 NA
ATOM     30  C   UNL     1       1.566  14.712   0.827  0.00  0.00    +0.000 A 
ATOM     31  N   UNL     1       1.182  13.441   1.170  0.00  0.00    +0.000 N 
ATOM     32  C   UNL     1       1.823  12.705   2.136  0.00  0.00    +0.000 A 
ATOM     33  O   UNL     1       1.455  11.570   2.421  0.00  0.00    +0.000 OA
ATOM     34  C   UNL     1       2.955  13.371   2.749  0.00  0.00    +0.000 A 
ATOM     35  H   UNL     1       0.395  12.997   0.721  0.00  0.00    +0.000 HD
ENDBRANCH  22  25
ENDBRANCH  20  21
ENDBRANCH   4  20
TORSDOF 7
