REMARK  Name = 
REMARK  7 active torsions:
REMARK  status: ('A' for Active; 'I' for Inactive)
REMARK    1  A    between atoms: C_2  and  C_21
REMARK    2  A    between atoms: N_3  and  C_4
REMARK    3  A    between atoms: C_4  and  C_5
REMARK    4  A    between atoms: C_8  and  C_9
REMARK    5  A    between atoms: C_9  and  N_10
REMARK    6  A    between atoms: C_11  and  C_13
REMARK    7  A    between atoms: C_16  and  O_17
REMARK                            x       y       z     vdW  Elec       q    Type
REMARK                         _______ _______ _______ _____ _____    ______ ____
ROOT
ATOM      1  C   UNL     1       0.376  15.571   2.617  0.00  0.00    +0.000 A 
ATOM      2  C   UNL     1       1.646  15.129   2.221  0.00  0.00    +0.000 A 
ATOM      3  C   UNL     1       2.177  13.932   2.720  0.00  0.00    +0.000 A 
ATOM      4  C   UNL     1       1.439  13.139   3.609  0.00  0.00    +0.000 A 
ATOM      5  C   UNL     1       0.161  13.572   3.988  0.00  0.00    +0.000 A 
ATOM      6  C   UNL     1      -0.369  14.769   3.490  0.00  0.00    +0.000 A 
ENDROOT
BRANCH   1   7
ATOM      7  C   UNL     1      -0.168  16.885   2.118  0.00  0.00    +0.000 C 
BRANCH   7  10
ATOM      8  O   UNL     1      -1.536  18.934   0.872  0.00  0.00    +0.000 OA
ATOM      9  C   UNL     1      -1.481  17.847   0.298  0.00  0.00    +0.000 C 
ATOM     10  N   UNL     1      -0.880  16.752   0.873  0.00  0.00    +0.000 N 
ATOM     11  H   UNL     1      -0.662  15.945   0.298  0.00  0.00    +0.000 HD
BRANCH   9  12
ATOM     12  C   UNL     1      -2.089  17.655  -1.026  0.00  0.00    +0.000 A 
ATOM     13  C   UNL     1      -3.106  18.504  -1.446  0.00  0.00    +0.000 A 
ATOM     14  S   UNL     1      -3.705  18.136  -3.000  0.00  0.00    +0.000 S 
ATOM     15  C   UNL     1      -2.596  16.861  -3.186  0.00  0.00    +0.000 A 
ATOM     16  N   UNL     1      -2.549  16.133  -4.335  0.00  0.00    +0.000 NA
ATOM     17  C   UNL     1      -1.632  15.226  -4.355  0.00  0.00    +0.000 A 
ATOM     18  N   UNL     1      -0.767  14.969  -3.326  0.00  0.00    +0.000 N 
ATOM     19  C   UNL     1      -0.796  15.653  -2.130  0.00  0.00    +0.000 A 
ATOM     20  O   UNL     1      -0.040  15.365  -1.210  0.00  0.00    +0.000 OA
ATOM     21  C   UNL     1      -1.795  16.702  -2.067  0.00  0.00    +0.000 A 
ATOM     22  H   UNL     1      -0.078  14.231  -3.395  0.00  0.00    +0.000 HD
ENDBRANCH   9  12
ENDBRANCH   7  10
ENDBRANCH   1   7
BRANCH   4  23
ATOM     23  C   UNL     1       2.007  11.853   4.157  0.00  0.00    +0.000 C 
BRANCH  23  24
ATOM     24  N   UNL     1       2.734  12.053   5.388  0.00  0.00    +0.000 N 
ATOM     25  C   UNL     1       3.383  11.013   6.008  0.00  0.00    +0.000 C 
ATOM     26  O   UNL     1       3.425   9.881   5.530  0.00  0.00    +0.000 OA
ATOM     27  H   UNL     1       2.536  12.889   5.939  0.00  0.00    +0.000 HD
BRANCH  25  28
ATOM     28  C   UNL     1       4.113  11.346   7.312  0.00  0.00    +0.000 C 
ATOM     29  C   UNL     1       5.279  12.323   7.089  0.00  0.00    +0.000 C 
ATOM     30  C   UNL     1       5.060  13.472   8.071  0.00  0.00    +0.000 C 
ATOM     31  C   UNL     1       3.557  13.480   8.302  0.00  0.00    +0.000 C 
ATOM     32  C   UNL     1       3.215  11.997   8.376  0.00  0.00    +0.000 C 
BRANCH  31  33
ATOM     33  O   UNL     1       2.881  14.049   7.183  0.00  0.00    +0.000 OA
ATOM     34  H   UNL     1       3.392  14.823   6.883  0.00  0.00    +0.000 HD
ENDBRANCH  31  33
ENDBRANCH  25  28
ENDBRANCH  23  24
ENDBRANCH   4  23
TORSDOF 7
