REMARK  Name = 
REMARK  8 active torsions:
REMARK  status: ('A' for Active; 'I' for Inactive)
REMARK    1  A    between atoms: C_1  and  C_2
REMARK    2  A    between atoms: C_6  and  N_7
REMARK    3  A    between atoms: N_7  and  C_8
REMARK    4  A    between atoms: C_8  and  C_9
REMARK    5  A    between atoms: C_12  and  C_13
REMARK    6  A    between atoms: C_13  and  N_14
REMARK    7  A    between atoms: N_14  and  C_15
REMARK    8  A    between atoms: C_16  and  C_18
REMARK                            x       y       z     vdW  Elec       q    Type
REMARK                         _______ _______ _______ _____ _____    ______ ____
ROOT
ATOM      1  C   UNL     1      -1.898   4.895   0.091  0.00  0.00    +0.000 A 
ATOM      2  C   UNL     1      -3.241   4.621   0.343  0.00  0.00    +0.000 A 
ATOM      3  C   UNL     1      -4.152   5.676   0.376  0.00  0.00    +0.000 A 
ATOM      4  C   UNL     1      -3.720   6.981   0.129  0.00  0.00    +0.000 A 
ATOM      5  C   UNL     1      -2.362   7.161  -0.107  0.00  0.00    +0.000 A 
ATOM      6  N   UNL     1      -1.451   6.158  -0.115  0.00  0.00    +0.000 NA
ENDROOT
BRANCH   1   7
ATOM      7  C   UNL     1      -0.885   3.766   0.014  0.00  0.00    +0.000 C 
BRANCH   7   8
ATOM      8  N   UNL     1      -0.804   3.206  -1.331  0.00  0.00    +0.000 N 
ATOM      9  H   UNL     1      -1.657   3.257  -1.878  0.00  0.00    +0.000 HD
BRANCH   8  15
ATOM     10  C   UNL     1       2.844   0.027  -0.177  0.00  0.00    +0.000 C 
ATOM     11  C   UNL     1       1.875   0.615  -1.152  0.00  0.00    +0.000 A 
ATOM     12  C   UNL     1       1.811   0.181  -2.469  0.00  0.00    +0.000 A 
ATOM     13  N   UNL     1       0.953   0.681  -3.381  0.00  0.00    +0.000 NA
ATOM     14  C   UNL     1       0.117   1.659  -2.949  0.00  0.00    +0.000 A 
ATOM     15  C   UNL     1       0.052   2.158  -1.644  0.00  0.00    +0.000 A 
ATOM     16  C   UNL     1       0.988   1.625  -0.755  0.00  0.00    +0.000 A 
ENDBRANCH   8  15
ENDBRANCH   7   8
ENDBRANCH   1   7
BRANCH   4  17
ATOM     17  C   UNL     1      -4.676   8.144   0.058  0.00  0.00    +0.000 C 
BRANCH  17  18
ATOM     18  N   UNL     1      -5.253   8.304  -1.278  0.00  0.00    +0.000 N 
ATOM     19  C   UNL     1      -6.488   7.583  -1.548  0.00  0.00    +0.000 C 
ATOM     20  C   UNL     1      -4.573   9.128  -2.188  0.00  0.00    +0.000 C 
ATOM     21  O   UNL     1      -3.523   9.684  -1.872  0.00  0.00    +0.000 OA
BRANCH  20  22
ATOM     22  C   UNL     1      -5.154   9.379  -3.515  0.00  0.00    +0.000 A 
ATOM     23  C   UNL     1      -6.487   9.682  -3.742  0.00  0.00    +0.000 A 
ATOM     24  S   UNL     1      -6.848  10.000  -5.380  0.00  0.00    +0.000 S 
ATOM     25  C   UNL     1      -5.211   9.866  -5.823  0.00  0.00    +0.000 A 
ATOM     26  N   UNL     1      -4.809  10.113  -7.098  0.00  0.00    +0.000 NA
ATOM     27  C   UNL     1      -3.532  10.027  -7.275  0.00  0.00    +0.000 A 
ATOM     28  N   UNL     1      -2.629   9.688  -6.300  0.00  0.00    +0.000 N 
ATOM     29  C   UNL     1      -3.001   9.321  -5.023  0.00  0.00    +0.000 A 
ATOM     30  O   UNL     1      -2.189   8.839  -4.245  0.00  0.00    +0.000 OA
ATOM     31  C   UNL     1      -4.416   9.502  -4.751  0.00  0.00    +0.000 A 
ATOM     32  H   UNL     1      -1.650   9.581  -6.519  0.00  0.00    +0.000 HD
ENDBRANCH  20  22
ENDBRANCH  17  18
ENDBRANCH   4  17
TORSDOF 6
