REMARK  Name = 
REMARK  7 active torsions:
REMARK  status: ('A' for Active; 'I' for Inactive)
REMARK    1  A    between atoms: N_1  and  C_2
REMARK    2  A    between atoms: C_2  and  C_3
REMARK    3  A    between atoms: C_3  and  N_4
REMARK    4  A    between atoms: C_3  and  C_17
REMARK    5  A    between atoms: C_5  and  C_7
REMARK    6  A    between atoms: C_20  and  O_21
REMARK    7  A    between atoms: O_21  and  C_22
REMARK                            x       y       z     vdW  Elec       q    Type
REMARK                         _______ _______ _______ _____ _____    ______ ____
ROOT
ATOM      1  C   UNL     1       2.940  -0.968   0.854  0.00  0.00    +0.000 C 
ENDROOT
BRANCH   1   2
ATOM      2  C   UNL     1       4.466  -1.075   0.920  0.00  0.00    +0.000 A 
ATOM      3  C   UNL     1       5.119  -0.981   2.157  0.00  0.00    +0.000 A 
ATOM      4  C   UNL     1       6.514  -1.034   2.236  0.00  0.00    +0.000 A 
ATOM      5  C   UNL     1       7.284  -1.239   1.088  0.00  0.00    +0.000 A 
ATOM      6  C   UNL     1       6.646  -1.340  -0.150  0.00  0.00    +0.000 A 
ATOM      7  C   UNL     1       5.250  -1.264  -0.233  0.00  0.00    +0.000 A 
BRANCH   5   8
ATOM      8  O   UNL     1       8.662  -1.270   1.082  0.00  0.00    +0.000 OA
BRANCH   8   9
ATOM      9  C   UNL     1       9.320  -1.852   2.161  0.00  0.00    +0.000 A 
ATOM     10  C   UNL     1      10.624  -1.441   2.401  0.00  0.00    +0.000 A 
ATOM     11  C   UNL     1      11.303  -2.002   3.481  0.00  0.00    +0.000 A 
ATOM     12  C   UNL     1      10.659  -2.942   4.279  0.00  0.00    +0.000 A 
ATOM     13  C   UNL     1       9.363  -3.301   3.952  0.00  0.00    +0.000 A 
ATOM     14  N   UNL     1       8.690  -2.796   2.899  0.00  0.00    +0.000 NA
ENDBRANCH   8   9
ENDBRANCH   5   8
ENDBRANCH   1   2
BRANCH   1  15
ATOM     15  N   UNL     1       2.407  -2.215   0.334  0.00  0.00    +0.000 N 
ATOM     16  C   UNL     1       1.066  -2.506   0.300  0.00  0.00    +0.000 C 
ATOM     17  O   UNL     1       0.186  -1.689   0.541  0.00  0.00    +0.000 OA
ATOM     18  H   UNL     1       3.051  -2.994   0.401  0.00  0.00    +0.000 HD
BRANCH  16  19
ATOM     19  C   UNL     1       0.744  -3.877  -0.098  0.00  0.00    +0.000 A 
ATOM     20  C   UNL     1      -0.419  -4.168  -0.797  0.00  0.00    +0.000 A 
ATOM     21  S   UNL     1      -0.585  -5.831  -1.158  0.00  0.00    +0.000 S 
ATOM     22  C   UNL     1       0.864  -6.213  -0.345  0.00  0.00    +0.000 A 
ATOM     23  N   UNL     1       1.301  -7.493  -0.234  0.00  0.00    +0.000 NA
ATOM     24  C   UNL     1       2.398  -7.628   0.436  0.00  0.00    +0.000 A 
ATOM     25  N   UNL     1       3.108  -6.595   0.998  0.00  0.00    +0.000 N 
ATOM     26  C   UNL     1       2.723  -5.285   0.882  0.00  0.00    +0.000 A 
ATOM     27  O   UNL     1       3.415  -4.385   1.335  0.00  0.00    +0.000 OA
ATOM     28  C   UNL     1       1.481  -5.086   0.160  0.00  0.00    +0.000 A 
ATOM     29  H   UNL     1       3.975  -6.757   1.486  0.00  0.00    +0.000 HD
ENDBRANCH  16  19
ENDBRANCH   1  15
BRANCH   1  30
ATOM     30  C   UNL     1       2.480   0.249   0.004  0.00  0.00    +0.000 C 
BRANCH  30  31
ATOM     31  N   UNL     1       2.992   1.545   0.465  0.00  0.00    +0.000 NA
ATOM     32  H   UNL     1       2.837   2.231  -0.272  0.00  0.00    +0.000 HD
ATOM     33  H   UNL     1       4.002   1.482   0.594  0.00  0.00    +0.000 HD
ENDBRANCH  30  31
ENDBRANCH   1  30
TORSDOF 7
