REMARK  Name = 
REMARK  8 active torsions:
REMARK  status: ('A' for Active; 'I' for Inactive)
REMARK    1  A    between atoms: C_1  and  C_2
REMARK    2  A    between atoms: C_2  and  N_3
REMARK    3  A    between atoms: C_2  and  C_25
REMARK    4  A    between atoms: N_3  and  C_4
REMARK    5  A    between atoms: C_4  and  C_5
REMARK    6  A    between atoms: C_8  and  C_9
REMARK    7  A    between atoms: C_9  and  N_10
REMARK    8  A    between atoms: C_11  and  C_13
REMARK                            x       y       z     vdW  Elec       q    Type
REMARK                         _______ _______ _______ _____ _____    ______ ____
ROOT
ATOM      1  C   UNL     1       7.123  -0.169   3.276  0.00  0.00    +0.000 C 
ATOM      2  C   UNL     1       6.989   0.572   1.929  0.00  0.00    +0.000 C 
ATOM      3  C   UNL     1       5.540   0.831   1.525  0.00  0.00    +0.000 C 
ATOM      4  C   UNL     1       4.743   1.575   2.608  0.00  0.00    +0.000 C 
ATOM      5  C   UNL     1       4.826   0.798   3.930  0.00  0.00    +0.000 C 
ATOM      6  C   UNL     1       6.263   0.496   4.366  0.00  0.00    +0.000 C 
ENDROOT
BRANCH   1   7
ATOM      7  C   UNL     1       6.798  -1.676   3.168  0.00  0.00    +0.000 C 
BRANCH   7   8
ATOM      8  N   UNL     1       7.682  -2.312   2.194  0.00  0.00    +0.000 NA
ATOM      9  H   UNL     1       8.653  -2.162   2.472  0.00  0.00    +0.000 HD
BRANCH   8  11
ATOM     10  C   UNL     1       6.063  -4.154   1.640  0.00  0.00    +0.000 C 
ATOM     11  C   UNL     1       7.490  -3.769   2.047  0.00  0.00    +0.000 C 
BRANCH  11  12
ATOM     12  C   UNL     1       8.471  -4.322   1.014  0.00  0.00    +0.000 A 
ATOM     13  C   UNL     1       8.503  -3.793  -0.278  0.00  0.00    +0.000 A 
ATOM     14  C   UNL     1       9.403  -4.312  -1.206  0.00  0.00    +0.000 A 
ATOM     15  C   UNL     1      10.255  -5.337  -0.818  0.00  0.00    +0.000 A 
ATOM     16  C   UNL     1      10.172  -5.799   0.485  0.00  0.00    +0.000 A 
ATOM     17  N   UNL     1       9.306  -5.320   1.405  0.00  0.00    +0.000 NA
ENDBRANCH  11  12
ENDBRANCH   8  11
ENDBRANCH   7   8
ENDBRANCH   1   7
BRANCH   4  18
ATOM     18  C   UNL     1       5.195   3.031   2.799  0.00  0.00    +0.000 C 
BRANCH  18  19
ATOM     19  N   UNL     1       5.135   3.796   1.575  0.00  0.00    +0.000 N 
ATOM     20  C   UNL     1       4.067   4.554   1.185  0.00  0.00    +0.000 C 
ATOM     21  O   UNL     1       2.982   4.537   1.759  0.00  0.00    +0.000 OA
ATOM     22  H   UNL     1       6.013   3.892   1.079  0.00  0.00    +0.000 HD
BRANCH  20  23
ATOM     23  C   UNL     1       4.305   5.394   0.002  0.00  0.00    +0.000 A 
ATOM     24  C   UNL     1       3.261   5.769  -0.827  0.00  0.00    +0.000 A 
ATOM     25  S   UNL     1       3.747   6.779  -2.117  0.00  0.00    +0.000 S 
ATOM     26  C   UNL     1       5.359   6.798  -1.570  0.00  0.00    +0.000 A 
ATOM     27  N   UNL     1       6.308   7.546  -2.195  0.00  0.00    +0.000 NA
ATOM     28  C   UNL     1       7.472   7.510  -1.638  0.00  0.00    +0.000 A 
ATOM     29  N   UNL     1       7.782   6.771  -0.525  0.00  0.00    +0.000 N 
ATOM     30  C   UNL     1       6.887   5.916   0.068  0.00  0.00    +0.000 A 
ATOM     31  O   UNL     1       7.255   5.126   0.932  0.00  0.00    +0.000 OA
ATOM     32  C   UNL     1       5.538   5.993  -0.460  0.00  0.00    +0.000 A 
ATOM     33  H   UNL     1       8.727   6.737  -0.172  0.00  0.00    +0.000 HD
ENDBRANCH  20  23
ENDBRANCH  18  19
ENDBRANCH   4  18
TORSDOF 7
