REMARK  Name = 
REMARK  9 active torsions:
REMARK  status: ('A' for Active; 'I' for Inactive)
REMARK    1  A    between atoms: C_1  and  C_2
REMARK    2  A    between atoms: C_2  and  C_3
REMARK    3  A    between atoms: C_3  and  N_4
REMARK    4  A    between atoms: C_3  and  C_26
REMARK    5  A    between atoms: N_4  and  C_5
REMARK    6  A    between atoms: C_5  and  C_6
REMARK    7  A    between atoms: C_9  and  C_10
REMARK    8  A    between atoms: C_10  and  N_11
REMARK    9  A    between atoms: C_12  and  C_14
REMARK                            x       y       z     vdW  Elec       q    Type
REMARK                         _______ _______ _______ _____ _____    ______ ____
ROOT
ATOM      1  C   UNL     1       2.602   0.464  -2.384  0.00  0.00    +0.000 A 
ATOM      2  C   UNL     1       3.026  -0.782  -2.845  0.00  0.00    +0.000 A 
ATOM      3  C   UNL     1       2.550  -1.250  -4.065  0.00  0.00    +0.000 A 
ATOM      4  C   UNL     1       1.665  -0.464  -4.803  0.00  0.00    +0.000 A 
ATOM      5  C   UNL     1       1.287   0.759  -4.258  0.00  0.00    +0.000 A 
ATOM      6  N   UNL     1       1.735   1.240  -3.077  0.00  0.00    +0.000 NA
ENDROOT
BRANCH   1   7
ATOM      7  C   UNL     1       3.048   0.959  -1.022  0.00  0.00    +0.000 C 
BRANCH   7   8
ATOM      8  N   UNL     1       4.509   1.001  -0.898  0.00  0.00    +0.000 NA
ATOM      9  H   UNL     1       4.851   1.711  -1.553  0.00  0.00    +0.000 HD
BRANCH   8  10
ATOM     10  C   UNL     1       4.983   1.384   0.453  0.00  0.00    +0.000 C 
BRANCH  10  11
ATOM     11  C   UNL     1       6.512   1.513   0.418  0.00  0.00    +0.000 A 
ATOM     12  C   UNL     1       7.321   0.403   0.166  0.00  0.00    +0.000 A 
ATOM     13  C   UNL     1       8.702   0.568   0.065  0.00  0.00    +0.000 A 
ATOM     14  C   UNL     1       9.243   1.838   0.203  0.00  0.00    +0.000 A 
ATOM     15  C   UNL     1       8.380   2.893   0.438  0.00  0.00    +0.000 A 
ATOM     16  N   UNL     1       7.036   2.763   0.549  0.00  0.00    +0.000 NA
ENDBRANCH  10  11
BRANCH  10  18
ATOM     17  C   UNL     1       4.897   0.704   2.950  0.00  0.00    +0.000 C 
ATOM     18  C   UNL     1       4.495   0.377   1.521  0.00  0.00    +0.000 C 
ENDBRANCH  10  18
ENDBRANCH   8  10
ENDBRANCH   7   8
ENDBRANCH   1   7
BRANCH   4  19
ATOM     19  C   UNL     1       1.094  -0.931  -6.105  0.00  0.00    +0.000 C 
BRANCH  19  20
ATOM     20  N   UNL     1      -0.124  -1.674  -5.904  0.00  0.00    +0.000 N 
ATOM     21  C   UNL     1      -0.769  -2.268  -6.958  0.00  0.00    +0.000 C 
ATOM     22  O   UNL     1      -0.316  -2.227  -8.099  0.00  0.00    +0.000 OA
ATOM     23  H   UNL     1      -0.619  -1.540  -5.026  0.00  0.00    +0.000 HD
BRANCH  21  24
ATOM     24  C   UNL     1      -1.997  -3.008  -6.647  0.00  0.00    +0.000 A 
ATOM     25  C   UNL     1      -2.433  -4.001  -7.515  0.00  0.00    +0.000 A 
ATOM     26  S   UNL     1      -3.844  -4.798  -6.989  0.00  0.00    +0.000 S 
ATOM     27  C   UNL     1      -3.954  -3.809  -5.609  0.00  0.00    +0.000 A 
ATOM     28  N   UNL     1      -4.979  -3.953  -4.727  0.00  0.00    +0.000 NA
ATOM     29  C   UNL     1      -4.958  -3.116  -3.744  0.00  0.00    +0.000 A 
ATOM     30  N   UNL     1      -4.001  -2.153  -3.559  0.00  0.00    +0.000 N 
ATOM     31  C   UNL     1      -2.928  -1.994  -4.404  0.00  0.00    +0.000 A 
ATOM     32  O   UNL     1      -2.058  -1.159  -4.183  0.00  0.00    +0.000 OA
ATOM     33  C   UNL     1      -2.915  -2.898  -5.538  0.00  0.00    +0.000 A 
ATOM     34  H   UNL     1      -4.038  -1.535  -2.761  0.00  0.00    +0.000 HD
ENDBRANCH  21  24
ENDBRANCH  19  20
ENDBRANCH   4  19
TORSDOF 8
