REMARK  Name = 
REMARK  8 active torsions:
REMARK  status: ('A' for Active; 'I' for Inactive)
REMARK    1  A    between atoms: C_2  and  O_3
REMARK    2  A    between atoms: C_2  and  C_4
REMARK    3  A    between atoms: C_7  and  N_8
REMARK    4  A    between atoms: N_8  and  C_9
REMARK    5  A    between atoms: C_9  and  C_10
REMARK    6  A    between atoms: C_10  and  C_13
REMARK    7  A    between atoms: C_17  and  C_18
REMARK    8  A    between atoms: C_18  and  C_19
REMARK                            x       y       z     vdW  Elec       q    Type
REMARK                         _______ _______ _______ _____ _____    ______ ____
ROOT
ATOM      1  C   UNL     1       4.899  -2.891  -5.259  0.00  0.00    +0.000 C 
ENDROOT
BRANCH   1   2
ATOM      2  C   UNL     1       5.848  -3.669  -6.209  0.00  0.00    +0.000 C 
ATOM      3  F   UNL     1       7.059  -3.030  -6.208  0.00  0.00    +0.000 F 
ATOM      4  F   UNL     1       6.091  -4.890  -5.640  0.00  0.00    +0.000 F 
BRANCH   2   5
ATOM      5  C   UNL     1       5.265  -3.791  -7.602  0.00  0.00    +0.000 A 
ATOM      6  C   UNL     1       4.467  -4.887  -7.957  0.00  0.00    +0.000 A 
ATOM      7  C   UNL     1       3.847  -4.926  -9.207  0.00  0.00    +0.000 A 
ATOM      8  C   UNL     1       4.007  -3.869 -10.108  0.00  0.00    +0.000 A 
ATOM      9  C   UNL     1       4.797  -2.765  -9.772  0.00  0.00    +0.000 A 
ATOM     10  C   UNL     1       5.446  -2.754  -8.530  0.00  0.00    +0.000 A 
BRANCH   9  11
ATOM     11  C   UNL     1       4.905  -1.567 -10.681  0.00  0.00    +0.000 C 
BRANCH  11  12
ATOM     12  C   UNL     1       5.991  -1.744 -11.727  0.00  0.00    +0.000 C 
ATOM     13  C   UNL     1       7.461  -1.793 -11.286  0.00  0.00    +0.000 C 
ATOM     14  O   UNL     1       7.790  -0.638 -12.091  0.00  0.00    +0.000 OA
ATOM     15  C   UNL     1       6.398  -0.433 -12.417  0.00  0.00    +0.000 C 
ENDBRANCH  11  12
ENDBRANCH   9  11
ENDBRANCH   2   5
ENDBRANCH   1   2
BRANCH   1  16
ATOM     16  N   UNL     1       4.669  -1.489  -5.662  0.00  0.00    +0.000 N 
ATOM     17  H   UNL     1       5.515  -1.008  -5.966  0.00  0.00    +0.000 HD
BRANCH  16  21
ATOM     18  C   UNL     1       1.868   1.053  -3.794  0.00  0.00    +0.000 A 
ATOM     19  C   UNL     1       2.703   1.523  -4.811  0.00  0.00    +0.000 A 
ATOM     20  C   UNL     1       3.641   0.664  -5.398  0.00  0.00    +0.000 A 
ATOM     21  C   UNL     1       3.788  -0.665  -4.969  0.00  0.00    +0.000 A 
ATOM     22  C   UNL     1       2.936  -1.120  -3.964  0.00  0.00    +0.000 A 
ATOM     23  C   UNL     1       2.002  -0.266  -3.379  0.00  0.00    +0.000 A 
ATOM     24  F   UNL     1       1.207  -0.757  -2.414  0.00  0.00    +0.000 F 
BRANCH  18  26
ATOM     25  O   UNL     1       0.966   3.185  -3.304  0.00  0.00    +0.000 OA
ATOM     26  C   UNL     1       0.872   1.972  -3.199  0.00  0.00    +0.000 C 
BRANCH  26  27
ATOM     27  O   UNL     1      -0.175   1.374  -2.590  0.00  0.00    +0.000 OA
ATOM     28  H   UNL     1      -0.135   0.397  -2.551  0.00  0.00    +0.000 HD
ENDBRANCH  26  27
ENDBRANCH  18  26
ENDBRANCH  16  21
ENDBRANCH   1  16
TORSDOF 8
