REMARK  Name = 
REMARK  5 active torsions:
REMARK  status: ('A' for Active; 'I' for Inactive)
REMARK    1  A    between atoms: N_1  and  C_2
REMARK    2  A    between atoms: C_2  and  C_3
REMARK    3  A    between atoms: C_3  and  C_4
REMARK    4  A    between atoms: C_7  and  C_8
REMARK    5  A    between atoms: C_8  and  N_9
REMARK                            x       y       z     vdW  Elec       q    Type
REMARK                         _______ _______ _______ _____ _____    ______ ____
ROOT
ATOM      1  C   UNL     1       4.436   0.832  -0.957  0.00  0.00    +0.000 A 
ATOM      2  C   UNL     1       5.123   0.007  -1.849  0.00  0.00    +0.000 A 
ATOM      3  C   UNL     1       6.517   0.009  -1.862  0.00  0.00    +0.000 A 
ATOM      4  C   UNL     1       7.203   0.852  -0.988  0.00  0.00    +0.000 A 
ATOM      5  N   UNL     1       6.555   1.642  -0.096  0.00  0.00    +0.000 NA
ATOM      6  C   UNL     1       5.203   1.601  -0.089  0.00  0.00    +0.000 A 
ENDROOT
BRANCH   1   7
ATOM      7  C   UNL     1       2.930   0.890  -0.935  0.00  0.00    +0.000 C 
BRANCH   7   8
ATOM      8  C   UNL     1       2.393   2.289  -1.273  0.00  0.00    +0.000 C 
BRANCH   8   9
ATOM      9  N   UNL     1       0.932   2.318  -1.248  0.00  0.00    +0.000 NA
ATOM     10  H   UNL     1       0.613   3.266  -1.451  0.00  0.00    +0.000 HD
ATOM     11  H   UNL     1       0.598   2.105  -0.309  0.00  0.00    +0.000 HD
ENDBRANCH   8   9
ENDBRANCH   7   8
ENDBRANCH   1   7
BRANCH   4  12
ATOM     12  C   UNL     1       8.703   0.977  -1.059  0.00  0.00    +0.000 C 
BRANCH  12  13
ATOM     13  N   UNL     1       9.394   0.035  -0.187  0.00  0.00    +0.000 N 
ATOM     14  C   UNL     1       9.838  -1.202  -0.588  0.00  0.00    +0.000 A 
ATOM     15  C   UNL     1      10.583  -1.741   0.435  0.00  0.00    +0.000 A 
ATOM     16  C   UNL     1      10.612  -0.795   1.496  0.00  0.00    +0.000 A 
ATOM     17  C   UNL     1      11.230  -0.775   2.760  0.00  0.00    +0.000 A 
ATOM     18  C   UNL     1      11.065   0.346   3.572  0.00  0.00    +0.000 A 
ATOM     19  F   UNL     1      11.663   0.377   4.771  0.00  0.00    +0.000 F 
ATOM     20  C   UNL     1      10.301   1.431   3.167  0.00  0.00    +0.000 A 
ATOM     21  C   UNL     1       9.673   1.431   1.918  0.00  0.00    +0.000 A 
ATOM     22  C   UNL     1       9.851   0.308   1.091  0.00  0.00    +0.000 A 
ENDBRANCH  12  13
ENDBRANCH   4  12
TORSDOF 5
