REMARK  Name = 
REMARK  4 active torsions:
REMARK  status: ('A' for Active; 'I' for Inactive)
REMARK    1  A    between atoms: C_2  and  C_4
REMARK    2  A    between atoms: N_9  and  C_10
REMARK    3  A    between atoms: C_10  and  C_11
REMARK    4  A    between atoms: C_16  and  C_17
REMARK                            x       y       z     vdW  Elec       q    Type
REMARK                         _______ _______ _______ _____ _____    ______ ____
ROOT
ATOM      1  C   UNL     1       6.764  -0.274  -2.885  0.00  0.00    +0.000 C 
ENDROOT
BRANCH   1   7
ATOM      2  C   UNL     1       2.787   0.233  -1.286  0.00  0.00    +0.000 A 
ATOM      3  C   UNL     1       1.737   0.384  -2.181  0.00  0.00    +0.000 A 
ATOM      4  C   UNL     1       2.051   0.343  -3.523  0.00  0.00    +0.000 A 
ATOM      5  N   UNL     1       3.304   0.160  -4.007  0.00  0.00    +0.000 NA
ATOM      6  C   UNL     1       4.318   0.033  -3.129  0.00  0.00    +0.000 A 
ATOM      7  N   UNL     1       5.566  -0.147  -3.674  0.00  0.00    +0.000 N 
ATOM      8  C   UNL     1       4.087   0.076  -1.765  0.00  0.00    +0.000 A 
ATOM      9  H   UNL     1       5.596  -0.192  -4.684  0.00  0.00    +0.000 HD
BRANCH   2  11
ATOM     10  N   UNL     1       1.385  -0.174   0.664  0.00  0.00    +0.000 N 
ATOM     11  C   UNL     1       2.594   0.247   0.183  0.00  0.00    +0.000 C 
ATOM     12  O   UNL     1       3.495   0.576   0.944  0.00  0.00    +0.000 OA
ATOM     13  H   UNL     1       1.324  -0.277   1.669  0.00  0.00    +0.000 HD
ATOM     14  H   UNL     1       0.729  -0.693   0.101  0.00  0.00    +0.000 HD
ENDBRANCH   2  11
ENDBRANCH   1   7
BRANCH   1  15
ATOM     15  C   UNL     1       7.986  -0.467  -3.746  0.00  0.00    +0.000 A 
ATOM     16  C   UNL     1       8.745   0.623  -4.181  0.00  0.00    +0.000 A 
ATOM     17  C   UNL     1       9.902   0.401  -4.916  0.00  0.00    +0.000 A 
ATOM     18  F   UNL     1      10.645   1.446  -5.305  0.00  0.00    +0.000 F 
ATOM     19  C   UNL     1      10.319  -0.888  -5.240  0.00  0.00    +0.000 A 
ATOM     20  C   UNL     1       9.584  -2.009  -4.824  0.00  0.00    +0.000 A 
ATOM     21  C   UNL     1       8.408  -1.766  -4.084  0.00  0.00    +0.000 A 
BRANCH  20  22
ATOM     22  C   UNL     1      10.031  -3.392  -5.118  0.00  0.00    +0.000 A 
ATOM     23  C   UNL     1      11.399  -3.726  -5.192  0.00  0.00    +0.000 A 
ATOM     24  C   UNL     1      11.824  -5.034  -5.455  0.00  0.00    +0.000 A 
ATOM     25  C   UNL     1      10.887  -6.044  -5.638  0.00  0.00    +0.000 A 
ATOM     26  C   UNL     1       9.537  -5.736  -5.562  0.00  0.00    +0.000 A 
ATOM     27  F   UNL     1       8.628  -6.706  -5.726  0.00  0.00    +0.000 F 
ATOM     28  C   UNL     1       9.108  -4.434  -5.315  0.00  0.00    +0.000 A 
ENDBRANCH  20  22
ENDBRANCH   1  15
TORSDOF 4
