REMARK  Name = 
REMARK  6 active torsions:
REMARK  status: ('A' for Active; 'I' for Inactive)
REMARK    1  A    between atoms: C_1  and  C_2
REMARK    2  A    between atoms: C_6  and  C_7
REMARK    3  A    between atoms: C_11  and  C_12
REMARK    4  A    between atoms: C_12  and  N_13
REMARK    5  A    between atoms: N_13  and  C_14
REMARK    6  A    between atoms: C_17  and  C_18
REMARK                            x       y       z     vdW  Elec       q    Type
REMARK                         _______ _______ _______ _____ _____    ______ ____
ROOT
ATOM      1  C   UNL     1      -4.130   4.307   2.129  0.00  0.00    +0.000 C 
ATOM      2  C   UNL     1      -5.614   4.569   1.986  0.00  0.00    +0.000 C 
ATOM      3  C   UNL     1      -4.737   5.693   2.422  0.00  0.00    +0.000 C 
ENDROOT
BRANCH   1   8
ATOM      4  C   UNL     1      -1.830   5.019  -0.702  0.00  0.00    +0.000 A 
ATOM      5  C   UNL     1      -1.977   3.924  -1.543  0.00  0.00    +0.000 A 
ATOM      6  C   UNL     1      -2.804   2.880  -1.155  0.00  0.00    +0.000 A 
ATOM      7  C   UNL     1      -3.485   2.964   0.053  0.00  0.00    +0.000 A 
ATOM      8  C   UNL     1      -3.326   4.100   0.844  0.00  0.00    +0.000 A 
ATOM      9  N   UNL     1      -2.454   5.084   0.495  0.00  0.00    +0.000 NA
BRANCH   4  15
ATOM     10  C   UNL     1       0.242   8.052  -4.145  0.00  0.00    +0.000 C 
ATOM     11  C   UNL     1       0.021   7.644  -2.724  0.00  0.00    +0.000 A 
ATOM     12  C   UNL     1       0.635   8.309  -1.672  0.00  0.00    +0.000 A 
ATOM     13  N   UNL     1       0.461   7.992  -0.371  0.00  0.00    +0.000 NA
ATOM     14  C   UNL     1      -0.362   6.947  -0.103  0.00  0.00    +0.000 A 
ATOM     15  C   UNL     1      -1.011   6.179  -1.068  0.00  0.00    +0.000 A 
ATOM     16  C   UNL     1      -0.817   6.571  -2.403  0.00  0.00    +0.000 A 
ENDBRANCH   4  15
ENDBRANCH   1   8
BRANCH   1  17
ATOM     17  N   UNL     1      -3.438   3.722   3.292  0.00  0.00    +0.000 N 
ATOM     18  H   UNL     1      -2.438   3.933   3.225  0.00  0.00    +0.000 HD
BRANCH  17  19
ATOM     19  C   UNL     1      -3.540   2.393   3.726  0.00  0.00    +0.000 A 
ATOM     20  C   UNL     1      -4.455   1.447   3.266  0.00  0.00    +0.000 A 
ATOM     21  C   UNL     1      -4.475   0.159   3.822  0.00  0.00    +0.000 A 
ATOM     22  C   UNL     1      -3.562  -0.194   4.828  0.00  0.00    +0.000 A 
ATOM     23  C   UNL     1      -2.606   0.730   5.244  0.00  0.00    +0.000 A 
ATOM     24  C   UNL     1      -2.632   2.021   4.726  0.00  0.00    +0.000 A 
BRANCH  22  25
ATOM     25  C   UNL     1      -3.683  -1.536   5.463  0.00  0.00    +0.000 C 
ATOM     26  N   UNL     1      -2.532  -2.114   5.942  0.00  0.00    +0.000 N 
ATOM     27  O   UNL     1      -4.750  -2.095   5.576  0.00  0.00    +0.000 OA
ATOM     28  H   UNL     1      -1.625  -1.678   5.947  0.00  0.00    +0.000 HD
ATOM     29  H   UNL     1      -2.643  -2.988   6.437  0.00  0.00    +0.000 HD
ENDBRANCH  22  25
ENDBRANCH  17  19
ENDBRANCH   1  17
TORSDOF 5
