REMARK  Name = 
REMARK  8 active torsions:
REMARK  status: ('A' for Active; 'I' for Inactive)
REMARK    1  A    between atoms: N_1  and  C_2
REMARK    2  A    between atoms: C_2  and  C_3
REMARK    3  A    between atoms: C_6  and  N_7
REMARK    4  A    between atoms: N_7  and  C_8
REMARK    5  A    between atoms: C_8  and  C_9
REMARK    6  A    between atoms: C_12  and  C_13
REMARK    7  A    between atoms: C_13  and  N_14
REMARK    8  A    between atoms: C_15  and  C_17
REMARK                            x       y       z     vdW  Elec       q    Type
REMARK                         _______ _______ _______ _____ _____    ______ ____
ROOT
ATOM      1  C   UNL     1       1.967   2.685   7.389  0.00  0.00    +0.000 A 
ATOM      2  C   UNL     1       1.983   4.083   7.486  0.00  0.00    +0.000 A 
ATOM      3  C   UNL     1       2.178   4.707   8.721  0.00  0.00    +0.000 A 
ATOM      4  C   UNL     1       2.360   3.945   9.883  0.00  0.00    +0.000 A 
ATOM      5  C   UNL     1       2.321   2.549   9.791  0.00  0.00    +0.000 A 
ATOM      6  C   UNL     1       2.136   1.927   8.557  0.00  0.00    +0.000 A 
ENDROOT
BRANCH   1   7
ATOM      7  C   UNL     1       1.707   1.986   6.075  0.00  0.00    +0.000 C 
BRANCH   7   8
ATOM      8  N   UNL     1       2.717   2.290   5.060  0.00  0.00    +0.000 NA
ATOM      9  H   UNL     1       2.743   3.298   4.913  0.00  0.00    +0.000 HD
BRANCH   8  13
ATOM     10  C   UNL     1       3.333  -0.164   1.528  0.00  0.00    +0.000 C 
ATOM     11  C   UNL     1       2.277  -0.591   2.556  0.00  0.00    +0.000 C 
ATOM     12  C   UNL     1       2.468   0.089   3.906  0.00  0.00    +0.000 C 
ATOM     13  C   UNL     1       2.448   1.621   3.778  0.00  0.00    +0.000 C 
ATOM     14  C   UNL     1       3.493   2.089   2.748  0.00  0.00    +0.000 C 
ATOM     15  C   UNL     1       3.345   1.369   1.405  0.00  0.00    +0.000 C 
BRANCH  10  16
ATOM     16  C   UNL     1       4.734  -0.723   1.846  0.00  0.00    +0.000 C 
BRANCH  16  17
ATOM     17  N   UNL     1       4.726  -2.183   1.872  0.00  0.00    +0.000 NA
ATOM     18  H   UNL     1       5.674  -2.529   2.012  0.00  0.00    +0.000 HD
ATOM     19  H   UNL     1       4.413  -2.543   0.972  0.00  0.00    +0.000 HD
ENDBRANCH  16  17
ENDBRANCH  10  16
ENDBRANCH   8  13
ENDBRANCH   7   8
ENDBRANCH   1   7
BRANCH   4  20
ATOM     20  C   UNL     1       2.524   4.603  11.226  0.00  0.00    +0.000 C 
BRANCH  20  21
ATOM     21  N   UNL     1       1.240   4.802  11.847  0.00  0.00    +0.000 N 
ATOM     22  C   UNL     1       1.117   5.452  13.046  0.00  0.00    +0.000 C 
ATOM     23  O   UNL     1       2.084   5.931  13.632  0.00  0.00    +0.000 OA
ATOM     24  H   UNL     1       0.477   4.220  11.515  0.00  0.00    +0.000 HD
BRANCH  22  25
ATOM     25  C   UNL     1      -0.248   5.607  13.561  0.00  0.00    +0.000 A 
ATOM     26  C   UNL     1      -0.536   6.639  14.445  0.00  0.00    +0.000 A 
ATOM     27  S   UNL     1      -2.177   6.713  14.900  0.00  0.00    +0.000 S 
ATOM     28  C   UNL     1      -2.551   5.338  13.972  0.00  0.00    +0.000 A 
ATOM     29  N   UNL     1      -3.819   4.840  13.940  0.00  0.00    +0.000 NA
ATOM     30  C   UNL     1      -3.956   3.778  13.218  0.00  0.00    +0.000 A 
ATOM     31  N   UNL     1      -2.947   3.172  12.521  0.00  0.00    +0.000 N 
ATOM     32  C   UNL     1      -1.656   3.651  12.504  0.00  0.00    +0.000 A 
ATOM     33  O   UNL     1      -0.782   3.102  11.839  0.00  0.00    +0.000 OA
ATOM     34  C   UNL     1      -1.446   4.837  13.310  0.00  0.00    +0.000 A 
ATOM     35  H   UNL     1      -3.121   2.345  11.966  0.00  0.00    +0.000 HD
ENDBRANCH  22  25
ENDBRANCH  20  21
ENDBRANCH   4  20
TORSDOF 8
