REMARK  Name = 
REMARK  11 active torsions:
REMARK  status: ('A' for Active; 'I' for Inactive)
REMARK    1  A    between atoms: C_1  and  C_2
REMARK    2  A    between atoms: C_2  and  C_3
REMARK    3  A    between atoms: C_3  and  O_4
REMARK    4  A    between atoms: C_3  and  C_20
REMARK    5  A    between atoms: O_4  and  C_5
REMARK    6  A    between atoms: C_8  and  C_9
REMARK    7  A    between atoms: C_9  and  N_10
REMARK    8  A    between atoms: N_10  and  C_11
REMARK    9  A    between atoms: C_11  and  C_12
REMARK   10  A    between atoms: N_15  and  C_16
REMARK   11  A    between atoms: C_20  and  C_22
REMARK                            x       y       z     vdW  Elec       q    Type
REMARK                         _______ _______ _______ _____ _____    ______ ____
ROOT
ATOM      1  O   UNL     1       6.980   4.270  -1.212  0.00  0.00    +0.000 OA
ENDROOT
BRANCH   1   2
ATOM      2  C   UNL     1       6.656   4.104  -2.530  0.00  0.00    +0.000 A 
ATOM      3  C   UNL     1       5.341   3.694  -2.776  0.00  0.00    +0.000 A 
ATOM      4  C   UNL     1       4.849   3.602  -4.086  0.00  0.00    +0.000 A 
ATOM      5  C   UNL     1       5.663   3.930  -5.176  0.00  0.00    +0.000 A 
ATOM      6  C   UNL     1       6.996   4.278  -4.925  0.00  0.00    +0.000 A 
ATOM      7  C   UNL     1       7.487   4.358  -3.616  0.00  0.00    +0.000 A 
BRANCH   5   8
ATOM      8  C   UNL     1       5.124   3.942  -6.590  0.00  0.00    +0.000 C 
BRANCH   8   9
ATOM      9  N   UNL     1       4.020   4.893  -6.708  0.00  0.00    +0.000 NA
ATOM     10  H   UNL     1       4.343   5.810  -6.400  0.00  0.00    +0.000 HD
BRANCH   9  11
ATOM     11  C   UNL     1       3.505   4.987  -8.075  0.00  0.00    +0.000 C 
BRANCH  11  12
ATOM     12  C   UNL     1       2.322   5.963  -8.113  0.00  0.00    +0.000 C 
ATOM     13  C   UNL     1       1.700   6.117  -9.508  0.00  0.00    +0.000 C 
ATOM     14  C   UNL     1       0.259   5.652  -9.354  0.00  0.00    +0.000 C 
ATOM     15  N   UNL     1      -0.030   5.940  -7.950  0.00  0.00    +0.000 NA
ATOM     16  C   UNL     1      -1.225   5.252  -7.479  0.00  0.00    +0.000 C 
ATOM     17  C   UNL     1       1.164   5.504  -7.222  0.00  0.00    +0.000 C 
ENDBRANCH  11  12
ENDBRANCH   9  11
ENDBRANCH   8   9
ENDBRANCH   5   8
ENDBRANCH   1   2
BRANCH   1  18
ATOM     18  C   UNL     1       8.344   4.284  -0.775  0.00  0.00    +0.000 C 
BRANCH  18  20
ATOM     19  C   UNL     1      10.221   2.626  -0.170  0.00  0.00    +0.000 C 
ATOM     20  C   UNL     1       9.000   2.906  -1.040  0.00  0.00    +0.000 C 
ENDBRANCH  18  20
BRANCH  18  21
ATOM     21  C   UNL     1       9.218   5.496  -1.195  0.00  0.00    +0.000 C 
ATOM     22  O   UNL     1      10.259   5.297  -1.832  0.00  0.00    +0.000 OA
BRANCH  21  23
ATOM     23  C   UNL     1       8.821   6.899  -0.931  0.00  0.00    +0.000 A 
ATOM     24  C   UNL     1       9.299   7.895  -1.778  0.00  0.00    +0.000 A 
ATOM     25  S   UNL     1       8.740   9.458  -1.402  0.00  0.00    +0.000 S 
ATOM     26  C   UNL     1       7.856   8.874  -0.073  0.00  0.00    +0.000 A 
ATOM     27  N   UNL     1       7.118   9.726   0.689  0.00  0.00    +0.000 NA
ATOM     28  C   UNL     1       6.503   9.164   1.673  0.00  0.00    +0.000 A 
ATOM     29  N   UNL     1       6.579   7.829   1.977  0.00  0.00    +0.000 N 
ATOM     30  C   UNL     1       7.409   6.961   1.305  0.00  0.00    +0.000 A 
ATOM     31  O   UNL     1       7.646   5.843   1.759  0.00  0.00    +0.000 OA
ATOM     32  C   UNL     1       8.022   7.509   0.110  0.00  0.00    +0.000 A 
ATOM     33  H   UNL     1       6.145   7.467   2.812  0.00  0.00    +0.000 HD
ENDBRANCH  21  23
ENDBRANCH  18  21
ENDBRANCH   1  18
TORSDOF 9
