REMARK  Name = 
REMARK  9 active torsions:
REMARK  status: ('A' for Active; 'I' for Inactive)
REMARK    1  A    between atoms: C_1  and  O_2
REMARK    2  A    between atoms: O_2  and  C_3
REMARK    3  A    between atoms: C_10  and  C_11
REMARK    4  A    between atoms: N_13  and  C_14
REMARK    5  A    between atoms: C_14  and  C_15
REMARK    6  A    between atoms: C_18  and  C_19
REMARK    7  A    between atoms: C_19  and  C_20
REMARK    8  A    between atoms: C_20  and  C_21
REMARK    9  A    between atoms: C_21  and  N_22
REMARK                            x       y       z     vdW  Elec       q    Type
REMARK                         _______ _______ _______ _____ _____    ______ ____
ROOT
ATOM      1  C   UNL     1       2.882   1.567   2.884  0.00  0.00    +0.000 C 
ENDROOT
BRANCH   1   2
ATOM      2  C   UNL     1       1.805   2.441   2.299  0.00  0.00    +0.000 A 
ATOM      3  C   UNL     1       0.569   1.897   1.924  0.00  0.00    +0.000 A 
ATOM      4  C   UNL     1      -0.410   2.698   1.329  0.00  0.00    +0.000 A 
ATOM      5  C   UNL     1      -0.164   4.054   1.084  0.00  0.00    +0.000 A 
ATOM      6  C   UNL     1       1.070   4.598   1.465  0.00  0.00    +0.000 A 
ATOM      7  C   UNL     1       2.045   3.800   2.065  0.00  0.00    +0.000 A 
BRANCH   5   8
ATOM      8  C   UNL     1      -1.202   4.923   0.421  0.00  0.00    +0.000 C 
BRANCH   8   9
ATOM      9  C   UNL     1      -2.198   5.563   1.397  0.00  0.00    +0.000 C 
BRANCH   9  10
ATOM     10  C   UNL     1      -1.586   6.571   2.387  0.00  0.00    +0.000 C 
BRANCH  10  11
ATOM     11  N   UNL     1      -0.852   7.686   1.757  0.00  0.00    +0.000 NA
ATOM     12  C   UNL     1      -1.744   8.543   0.961  0.00  0.00    +0.000 C 
ATOM     13  C   UNL     1      -0.980   9.685   0.291  0.00  0.00    +0.000 C 
ATOM     14  C   UNL     1      -0.225  10.519   1.315  0.00  0.00    +0.000 C 
ATOM     15  C   UNL     1       0.654   9.621   2.176  0.00  0.00    +0.000 C 
ATOM     16  C   UNL     1      -0.155   8.475   2.790  0.00  0.00    +0.000 C 
ENDBRANCH  10  11
ENDBRANCH   9  10
ENDBRANCH   8   9
ENDBRANCH   5   8
ENDBRANCH   1   2
BRANCH   1  19
ATOM     17  C   UNL     1       4.735   0.146   2.142  0.00  0.00    +0.000 C 
ATOM     18  O   UNL     1       4.978  -0.168   3.306  0.00  0.00    +0.000 OA
ATOM     19  N   UNL     1       3.715   1.007   1.846  0.00  0.00    +0.000 N 
ATOM     20  H   UNL     1       3.534   1.283   0.889  0.00  0.00    +0.000 HD
BRANCH  17  28
ATOM     21  C   UNL     1       4.586   0.489  -1.296  0.00  0.00    +0.000 A 
ATOM     22  N   UNL     1       4.756   0.421  -2.633  0.00  0.00    +0.000 NA
ATOM     23  C   UNL     1       5.749  -0.335  -3.108  0.00  0.00    +0.000 A 
ATOM     24  N   UNL     1       6.616  -1.048  -2.400  0.00  0.00    +0.000 NA
ATOM     25  C   UNL     1       6.414  -0.958  -1.075  0.00  0.00    +0.000 A 
ATOM     26  S   UNL     1       7.437  -1.809  -0.021  0.00  0.00    +0.000 S 
ATOM     27  C   UNL     1       6.595  -1.232   1.335  0.00  0.00    +0.000 A 
ATOM     28  C   UNL     1       5.532  -0.390   1.027  0.00  0.00    +0.000 A 
ATOM     29  C   UNL     1       5.428  -0.221  -0.421  0.00  0.00    +0.000 A 
BRANCH  21  31
ATOM     30  C   UNL     1       2.821   1.944  -1.826  0.00  0.00    +0.000 C 
ATOM     31  O   UNL     1       3.568   1.284  -0.806  0.00  0.00    +0.000 OA
ENDBRANCH  21  31
ENDBRANCH  17  28
ENDBRANCH   1  19
TORSDOF 8
