REMARK  Name = 
REMARK  10 active torsions:
REMARK  status: ('A' for Active; 'I' for Inactive)
REMARK    1  A    between atoms: C_1  and  C_2
REMARK    2  A    between atoms: C_2  and  C_3
REMARK    3  A    between atoms: C_3  and  N_4
REMARK    4  A    between atoms: C_3  and  C_27
REMARK    5  A    between atoms: N_4  and  C_5
REMARK    6  A    between atoms: C_5  and  C_6
REMARK    7  A    between atoms: C_9  and  C_10
REMARK    8  A    between atoms: C_10  and  N_11
REMARK    9  A    between atoms: C_12  and  C_14
REMARK   10  A    between atoms: N_20  and  C_21
REMARK                            x       y       z     vdW  Elec       q    Type
REMARK                         _______ _______ _______ _____ _____    ______ ____
ROOT
ATOM      1  C   UNL     1       2.388   0.736  -2.217  0.00  0.00    +0.000 A 
ATOM      2  N   UNL     1       2.860  -0.470  -2.591  0.00  0.00    +0.000 NA
ATOM      3  C   UNL     1       2.405  -0.970  -3.752  0.00  0.00    +0.000 A 
ATOM      4  C   UNL     1       1.488  -0.331  -4.553  0.00  0.00    +0.000 A 
ATOM      5  C   UNL     1       1.050   0.889  -4.076  0.00  0.00    +0.000 A 
ATOM      6  N   UNL     1       1.478   1.444  -2.919  0.00  0.00    +0.000 NA
ENDROOT
BRANCH   1   7
ATOM      7  C   UNL     1       2.809   1.267  -0.855  0.00  0.00    +0.000 C 
BRANCH   7   8
ATOM      8  N   UNL     1       4.268   1.356  -0.650  0.00  0.00    +0.000 NA
ATOM      9  H   UNL     1       4.652   2.008  -1.338  0.00  0.00    +0.000 HD
BRANCH   8  10
ATOM     10  C   UNL     1       4.649   1.811   0.699  0.00  0.00    +0.000 C 
BRANCH  10  11
ATOM     11  C   UNL     1       6.170   1.918   0.795  0.00  0.00    +0.000 A 
ATOM     12  C   UNL     1       6.785   3.135   1.135  0.00  0.00    +0.000 A 
ATOM     13  C   UNL     1       8.169   3.206   1.317  0.00  0.00    +0.000 A 
ATOM     14  C   UNL     1       8.957   2.067   1.159  0.00  0.00    +0.000 A 
ATOM     15  C   UNL     1       8.366   0.861   0.794  0.00  0.00    +0.000 A 
ATOM     16  C   UNL     1       6.985   0.788   0.606  0.00  0.00    +0.000 A 
ENDBRANCH  10  11
BRANCH  10  18
ATOM     17  C   UNL     1       4.413   1.343   3.223  0.00  0.00    +0.000 C 
ATOM     18  C   UNL     1       4.107   0.871   1.808  0.00  0.00    +0.000 C 
ENDBRANCH  10  18
ENDBRANCH   8  10
ENDBRANCH   7   8
ENDBRANCH   1   7
BRANCH   4  19
ATOM     19  C   UNL     1       1.030  -0.918  -5.843  0.00  0.00    +0.000 C 
BRANCH  19  20
ATOM     20  N   UNL     1      -0.089  -1.815  -5.691  0.00  0.00    +0.000 N 
ATOM     21  C   UNL     1      -0.648  -2.383  -6.812  0.00  0.00    +0.000 C 
ATOM     22  O   UNL     1      -0.192  -2.155  -7.930  0.00  0.00    +0.000 OA
ATOM     23  H   UNL     1      -0.294  -2.211  -4.775  0.00  0.00    +0.000 HD
BRANCH  21  24
ATOM     24  C   UNL     1      -1.865  -3.185  -6.638  0.00  0.00    +0.000 A 
ATOM     25  C   UNL     1      -2.513  -3.690  -7.758  0.00  0.00    +0.000 A 
ATOM     26  S   UNL     1      -4.060  -4.318  -7.418  0.00  0.00    +0.000 S 
ATOM     27  C   UNL     1      -3.879  -3.993  -5.759  0.00  0.00    +0.000 A 
ATOM     28  N   UNL     1      -4.900  -4.194  -4.890  0.00  0.00    +0.000 NA
ATOM     29  C   UNL     1      -4.587  -4.010  -3.649  0.00  0.00    +0.000 A 
ATOM     30  N   UNL     1      -3.332  -3.675  -3.179  0.00  0.00    +0.000 N 
ATOM     31  C   UNL     1      -3.062  -3.742  -1.759  0.00  0.00    +0.000 C 
ATOM     32  C   UNL     1      -2.270  -3.436  -4.049  0.00  0.00    +0.000 A 
ATOM     33  O   UNL     1      -1.124  -3.199  -3.674  0.00  0.00    +0.000 OA
ATOM     34  C   UNL     1      -2.611  -3.538  -5.457  0.00  0.00    +0.000 A 
ENDBRANCH  21  24
ENDBRANCH  19  20
ENDBRANCH   4  19
TORSDOF 8
