REMARK  Name = 
REMARK  5 active torsions:
REMARK  status: ('A' for Active; 'I' for Inactive)
REMARK    1  A    between atoms: C_2  and  C_4
REMARK    2  A    between atoms: C_7  and  N_8
REMARK    3  A    between atoms: N_8  and  C_9
REMARK    4  A    between atoms: C_9  and  C_10
REMARK    5  A    between atoms: C_14  and  C_15
REMARK                            x       y       z     vdW  Elec       q    Type
REMARK                         _______ _______ _______ _____ _____    ______ ____
ROOT
ATOM      1  N   UNL     1       2.920  -5.561   2.946  0.00  0.00    +0.000 N 
ATOM      2  H   UNL     1       2.535  -5.471   3.882  0.00  0.00    +0.000 HD
ENDROOT
BRANCH   1   6
ATOM      3  C   UNL     1       0.611  -3.483   0.261  0.00  0.00    +0.000 A 
ATOM      4  C   UNL     1       1.980  -3.277   0.319  0.00  0.00    +0.000 A 
ATOM      5  N   UNL     1       2.784  -3.933   1.201  0.00  0.00    +0.000 NA
ATOM      6  C   UNL     1       2.177  -4.803   2.036  0.00  0.00    +0.000 A 
ATOM      7  C   UNL     1       0.789  -4.998   1.956  0.00  0.00    +0.000 A 
ATOM      8  N   UNL     1      -0.031  -4.350   1.089  0.00  0.00    +0.000 NA
BRANCH   3  10
ATOM      9  N   UNL     1      -1.557  -2.997  -0.697  0.00  0.00    +0.000 N 
ATOM     10  C   UNL     1      -0.211  -2.749  -0.739  0.00  0.00    +0.000 C 
ATOM     11  O   UNL     1       0.280  -1.975  -1.550  0.00  0.00    +0.000 OA
ATOM     12  H   UNL     1      -2.170  -2.538  -1.355  0.00  0.00    +0.000 HD
ATOM     13  H   UNL     1      -1.932  -3.645  -0.013  0.00  0.00    +0.000 HD
ENDBRANCH   3  10
ENDBRANCH   1   6
BRANCH   1  14
ATOM     14  C   UNL     1       4.360  -5.328   2.939  0.00  0.00    +0.000 C 
BRANCH  14  15
ATOM     15  C   UNL     1       4.996  -6.225   3.982  0.00  0.00    +0.000 A 
ATOM     16  C   UNL     1       5.802  -5.689   4.991  0.00  0.00    +0.000 A 
ATOM     17  C   UNL     1       6.366  -6.525   5.952  0.00  0.00    +0.000 A 
ATOM     18  C   UNL     1       6.112  -7.898   5.924  0.00  0.00    +0.000 A 
ATOM     19  C   UNL     1       5.282  -8.474   4.946  0.00  0.00    +0.000 A 
ATOM     20  C   UNL     1       4.762  -7.615   3.961  0.00  0.00    +0.000 A 
BRANCH  19  21
ATOM     21  C   UNL     1       4.913  -9.909   4.998  0.00  0.00    +0.000 A 
ATOM     22  C   UNL     1       4.693 -10.548   6.227  0.00  0.00    +0.000 A 
ATOM     23  C   UNL     1       4.304 -11.879   6.250  0.00  0.00    +0.000 A 
ATOM     24  N   UNL     1       4.111 -12.621   5.143  0.00  0.00    +0.000 NA
ATOM     25  C   UNL     1       4.319 -12.002   3.963  0.00  0.00    +0.000 A 
ATOM     26  C   UNL     1       4.715 -10.678   3.842  0.00  0.00    +0.000 A 
ENDBRANCH  19  21
ENDBRANCH  14  15
ENDBRANCH   1  14
TORSDOF 5
