REMARK  Name = 
REMARK  7 active torsions:
REMARK  status: ('A' for Active; 'I' for Inactive)
REMARK    1  A    between atoms: C_2  and  C_5
REMARK    2  A    between atoms: N_3  and  O_4
REMARK    3  A    between atoms: C_8  and  O_9
REMARK    4  A    between atoms: O_9  and  C_10
REMARK    5  A    between atoms: C_10  and  C_11
REMARK    6  A    between atoms: C_11  and  C_14
REMARK    7  A    between atoms: C_18  and  C_19
REMARK                            x       y       z     vdW  Elec       q    Type
REMARK                         _______ _______ _______ _____ _____    ______ ____
ROOT
ATOM      1  C   UNL     1       5.714   7.181   0.532  0.00  0.00    +0.000 C 
ATOM      2  F   UNL     1       6.998   6.738   0.668  0.00  0.00    +0.000 F 
ATOM      3  F   UNL     1       5.603   7.597  -0.764  0.00  0.00    +0.000 F 
ENDROOT
BRANCH   1   4
ATOM      4  C   UNL     1       5.392   8.295   1.515  0.00  0.00    +0.000 A 
ATOM      5  C   UNL     1       4.514   9.325   1.149  0.00  0.00    +0.000 A 
ATOM      6  C   UNL     1       4.176  10.321   2.062  0.00  0.00    +0.000 A 
ATOM      7  C   UNL     1       4.699  10.291   3.355  0.00  0.00    +0.000 A 
ATOM      8  C   UNL     1       5.577   9.276   3.753  0.00  0.00    +0.000 A 
ATOM      9  C   UNL     1       5.923   8.286   2.820  0.00  0.00    +0.000 A 
BRANCH   8  10
ATOM     10  C   UNL     1       6.047   9.162   5.143  0.00  0.00    +0.000 C 
ATOM     11  C   UNL     1       6.223  10.140   6.043  0.00  0.00    +0.000 C 
ATOM     12  C   UNL     1       6.590  10.155   7.507  0.00  0.00    +0.000 C 
ATOM     13  N   UNL     1       6.931  11.575   7.305  0.00  0.00    +0.000 NA
ATOM     14  C   UNL     1       6.136  11.644   6.064  0.00  0.00    +0.000 C 
ATOM     15  H   UNL     1       7.926  11.700   7.123  0.00  0.00    +0.000 HD
ENDBRANCH   8  10
ENDBRANCH   1   4
BRANCH   1  16
ATOM     16  C   UNL     1       4.755   5.995   0.751  0.00  0.00    +0.000 C 
BRANCH  16  17
ATOM     17  O   UNL     1       5.007   4.939  -0.192  0.00  0.00    +0.000 OA
BRANCH  17  21
ATOM     18  C   UNL     1       2.678   1.550  -0.237  0.00  0.00    +0.000 A 
ATOM     19  C   UNL     1       2.396   2.487   0.751  0.00  0.00    +0.000 A 
ATOM     20  C   UNL     1       3.167   3.648   0.807  0.00  0.00    +0.000 A 
ATOM     21  C   UNL     1       4.186   3.847  -0.119  0.00  0.00    +0.000 A 
ATOM     22  C   UNL     1       4.397   2.844  -1.064  0.00  0.00    +0.000 A 
ATOM     23  N   UNL     1       3.675   1.696  -1.151  0.00  0.00    +0.000 NA
BRANCH  18  25
ATOM     24  O   UNL     1       0.870   0.125   0.398  0.00  0.00    +0.000 OA
ATOM     25  C   UNL     1       1.844   0.315  -0.326  0.00  0.00    +0.000 C 
ATOM     26  N   UNL     1       2.242  -0.586  -1.279  0.00  0.00    +0.000 N 
ATOM     27  H   UNL     1       3.036  -0.434  -1.893  0.00  0.00    +0.000 HD
BRANCH  26  28
ATOM     28  O   UNL     1       1.464  -1.755  -1.429  0.00  0.00    +0.000 OA
ATOM     29  H   UNL     1       0.758  -1.620  -0.763  0.00  0.00    +0.000 HD
ENDBRANCH  26  28
ENDBRANCH  18  25
ENDBRANCH  17  21
ENDBRANCH  16  17
ENDBRANCH   1  16
TORSDOF 7
