REMARK  Name = 
REMARK  4 active torsions:
REMARK  status: ('A' for Active; 'I' for Inactive)
REMARK    1  A    between atoms: C_2  and  C_4
REMARK    2  A    between atoms: C_7  and  N_8
REMARK    3  A    between atoms: N_8  and  C_9
REMARK    4  A    between atoms: C_9  and  C_10
REMARK                            x       y       z     vdW  Elec       q    Type
REMARK                         _______ _______ _______ _____ _____    ______ ____
ROOT
ATOM      1  C   UNL     1       2.924   1.483  -0.276  0.00  0.00    +0.000 A 
ATOM      2  N   UNL     1       3.250   1.718   1.016  0.00  0.00    +0.000 NA
ATOM      3  C   UNL     1       4.091   2.755   1.213  0.00  0.00    +0.000 A 
ATOM      4  C   UNL     1       4.637   3.544   0.209  0.00  0.00    +0.000 A 
ATOM      5  C   UNL     1       4.185   3.217  -1.059  0.00  0.00    +0.000 A 
ATOM      6  N   UNL     1       3.348   2.197  -1.336  0.00  0.00    +0.000 NA
ENDROOT
BRANCH   1   8
ATOM      7  N   UNL     1       1.571  -0.366   0.581  0.00  0.00    +0.000 N 
ATOM      8  C   UNL     1       1.987   0.326  -0.536  0.00  0.00    +0.000 C 
ATOM      9  O   UNL     1       1.601  -0.007  -1.650  0.00  0.00    +0.000 OA
ATOM     10  H   UNL     1       0.930  -1.137   0.465  0.00  0.00    +0.000 HD
ATOM     11  H   UNL     1       1.882  -0.082   1.502  0.00  0.00    +0.000 HD
ENDBRANCH   1   8
BRANCH   4  12
ATOM     12  N   UNL     1       5.467   4.618   0.534  0.00  0.00    +0.000 N 
ATOM     13  H   UNL     1       4.912   5.407   0.871  0.00  0.00    +0.000 HD
BRANCH  12  14
ATOM     14  C   UNL     1       6.420   5.080  -0.484  0.00  0.00    +0.000 C 
BRANCH  14  15
ATOM     15  C   UNL     1       7.555   5.832   0.170  0.00  0.00    +0.000 A 
ATOM     16  C   UNL     1       8.356   5.224   1.131  0.00  0.00    +0.000 A 
ATOM     17  C   UNL     1       9.396   5.950   1.692  0.00  0.00    +0.000 A 
ATOM     18  C   UNL     1       9.584   7.247   1.261  0.00  0.00    +0.000 A 
ATOM     19  N   UNL     1       8.800   7.823   0.329  0.00  0.00    +0.000 NA
ATOM     20  N   UNL     1       7.774   7.108  -0.222  0.00  0.00    +0.000 NA
ENDBRANCH  14  15
ENDBRANCH  12  14
ENDBRANCH   4  12
TORSDOF 4
