REMARK  Name = 
REMARK  9 active torsions:
REMARK  status: ('A' for Active; 'I' for Inactive)
REMARK    1  A    between atoms: N_1  and  C_2
REMARK    2  A    between atoms: C_2  and  C_3
REMARK    3  A    between atoms: C_3  and  N_4
REMARK    4  A    between atoms: C_3  and  C_25
REMARK    5  A    between atoms: N_4  and  C_5
REMARK    6  A    between atoms: C_5  and  C_6
REMARK    7  A    between atoms: C_9  and  C_10
REMARK    8  A    between atoms: C_10  and  N_11
REMARK    9  A    between atoms: C_12  and  C_14
REMARK                            x       y       z     vdW  Elec       q    Type
REMARK                         _______ _______ _______ _____ _____    ______ ____
ROOT
ATOM      1  C   UNL     1       0.441   1.812   3.277  0.00  0.00    +0.000 A 
ATOM      2  C   UNL     1       0.099   0.696   4.037  0.00  0.00    +0.000 A 
ATOM      3  C   UNL     1      -0.296   0.867   5.359  0.00  0.00    +0.000 A 
ATOM      4  C   UNL     1      -0.315   2.153   5.895  0.00  0.00    +0.000 A 
ATOM      5  N   UNL     1       0.046   3.249   5.185  0.00  0.00    +0.000 NA
ATOM      6  C   UNL     1       0.402   3.054   3.895  0.00  0.00    +0.000 A 
ENDROOT
BRANCH   1   7
ATOM      7  C   UNL     1       0.898   1.676   1.848  0.00  0.00    +0.000 C 
BRANCH   7   8
ATOM      8  N   UNL     1      -0.117   1.037   1.006  0.00  0.00    +0.000 NA
ATOM      9  H   UNL     1      -0.260   0.089   1.357  0.00  0.00    +0.000 HD
BRANCH   8  10
ATOM     10  C   UNL     1       0.307   0.893  -0.405  0.00  0.00    +0.000 C 
BRANCH  10  11
ATOM     11  C   UNL     1       0.485   2.248  -1.079  0.00  0.00    +0.000 A 
ATOM     12  C   UNL     1      -0.644   2.944  -1.543  0.00  0.00    +0.000 A 
ATOM     13  C   UNL     1      -0.520   4.229  -2.075  0.00  0.00    +0.000 A 
ATOM     14  C   UNL     1       0.730   4.841  -2.141  0.00  0.00    +0.000 A 
ATOM     15  C   UNL     1       1.859   4.164  -1.690  0.00  0.00    +0.000 A 
ATOM     16  C   UNL     1       1.738   2.877  -1.169  0.00  0.00    +0.000 A 
ENDBRANCH  10  11
BRANCH  10  17
ATOM     17  C   UNL     1       1.516  -0.081  -0.594  0.00  0.00    +0.000 C 
BRANCH  17  18
ATOM     18  N   UNL     1       1.319  -1.406   0.016  0.00  0.00    +0.000 NA
ATOM     19  H   UNL     1       2.175  -1.949  -0.119  0.00  0.00    +0.000 HD
ATOM     20  H   UNL     1       0.598  -1.908  -0.503  0.00  0.00    +0.000 HD
ENDBRANCH  17  18
ENDBRANCH  10  17
ENDBRANCH   8  10
ENDBRANCH   7   8
ENDBRANCH   1   7
BRANCH   4  21
ATOM     21  C   UNL     1      -0.732   2.376   7.327  0.00  0.00    +0.000 C 
BRANCH  21  22
ATOM     22  N   UNL     1       0.362   2.203   8.260  0.00  0.00    +0.000 N 
ATOM     23  C   UNL     1       0.599   0.967   8.799  0.00  0.00    +0.000 C 
ATOM     24  O   UNL     1      -0.047  -0.020   8.440  0.00  0.00    +0.000 OA
ATOM     25  H   UNL     1       1.002   2.966   8.410  0.00  0.00    +0.000 HD
BRANCH  23  26
ATOM     26  C   UNL     1       1.579   0.876   9.874  0.00  0.00    +0.000 A 
ATOM     27  C   UNL     1       2.396   1.856  10.422  0.00  0.00    +0.000 A 
ATOM     28  N   UNL     1       3.003   1.328  11.541  0.00  0.00    +0.000 N 
ATOM     29  C   UNL     1       2.597   0.035  11.727  0.00  0.00    +0.000 A 
ATOM     30  N   UNL     1       2.925  -0.737  12.780  0.00  0.00    +0.000 NA
ATOM     31  C   UNL     1       2.373  -1.975  12.711  0.00  0.00    +0.000 A 
ATOM     32  C   UNL     1       1.606  -2.470  11.664  0.00  0.00    +0.000 A 
ATOM     33  C   UNL     1       1.312  -1.629  10.599  0.00  0.00    +0.000 A 
ATOM     34  C   UNL     1       1.791  -0.308  10.652  0.00  0.00    +0.000 A 
ATOM     35  H   UNL     1       3.620   1.810  12.178  0.00  0.00    +0.000 HD
ENDBRANCH  23  26
ENDBRANCH  21  22
ENDBRANCH   4  21
TORSDOF 9
