REMARK  Name = 
REMARK  8 active torsions:
REMARK  status: ('A' for Active; 'I' for Inactive)
REMARK    1  A    between atoms: C_1  and  C_2
REMARK    2  A    between atoms: C_2  and  C_3
REMARK    3  A    between atoms: C_2  and  N_4
REMARK    4  A    between atoms: C_2  and  C_5
REMARK    5  A    between atoms: C_5  and  C_6
REMARK    6  A    between atoms: C_9  and  C_10
REMARK    7  A    between atoms: C_10  and  N_11
REMARK    8  A    between atoms: C_17  and  C_18
REMARK                            x       y       z     vdW  Elec       q    Type
REMARK                         _______ _______ _______ _____ _____    ______ ____
ROOT
ATOM      1  C   UNL     1       8.850   0.900  -0.814  0.00  0.00    +0.000 C 
ENDROOT
BRANCH   1   2
ATOM      2  N   UNL     1       9.644   1.659  -1.769  0.00  0.00    +0.000 N 
ATOM      3  C   UNL     1       9.321   2.820  -2.413  0.00  0.00    +0.000 A 
ATOM      4  N   UNL     1      10.365   3.362  -3.001  0.00  0.00    +0.000 NA
ATOM      5  C   UNL     1      11.404   2.515  -2.735  0.00  0.00    +0.000 A 
ATOM      6  N   UNL     1      12.692   2.707  -3.098  0.00  0.00    +0.000 NA
ATOM      7  C   UNL     1      13.544   1.731  -2.687  0.00  0.00    +0.000 A 
ATOM      8  C   UNL     1      13.198   0.583  -1.975  0.00  0.00    +0.000 A 
ATOM      9  C   UNL     1      11.857   0.401  -1.623  0.00  0.00    +0.000 A 
ATOM     10  C   UNL     1      10.979   1.415  -2.004  0.00  0.00    +0.000 A 
BRANCH   8  11
ATOM     11  C   UNL     1      14.168  -0.456  -1.550  0.00  0.00    +0.000 C 
ATOM     12  N   UNL     1      15.500  -0.271  -1.791  0.00  0.00    +0.000 N 
ATOM     13  O   UNL     1      13.788  -1.471  -0.972  0.00  0.00    +0.000 OA
ATOM     14  H   UNL     1      15.923   0.538  -2.211  0.00  0.00    +0.000 HD
ATOM     15  H   UNL     1      16.120  -1.001  -1.458  0.00  0.00    +0.000 HD
ENDBRANCH   8  11
ENDBRANCH   1   2
BRANCH   1  19
ATOM     16  C   UNL     1       4.612   1.034  -1.043  0.00  0.00    +0.000 A 
ATOM     17  C   UNL     1       5.258   1.982  -0.254  0.00  0.00    +0.000 A 
ATOM     18  C   UNL     1       6.649   1.977  -0.198  0.00  0.00    +0.000 A 
ATOM     19  C   UNL     1       7.366   1.036  -0.941  0.00  0.00    +0.000 A 
ATOM     20  C   UNL     1       6.640   0.172  -1.750  0.00  0.00    +0.000 A 
ATOM     21  N   UNL     1       5.292   0.151  -1.813  0.00  0.00    +0.000 NA
BRANCH  16  22
ATOM     22  C   UNL     1       3.109   0.891  -1.003  0.00  0.00    +0.000 C 
BRANCH  22  24
ATOM     23  C   UNL     1       2.959   0.318   1.492  0.00  0.00    +0.000 C 
ATOM     24  C   UNL     1       2.584  -0.112   0.065  0.00  0.00    +0.000 C 
ATOM     25  C   UNL     1       3.082  -1.545  -0.188  0.00  0.00    +0.000 C 
BRANCH  24  26
ATOM     26  N   UNL     1       1.106  -0.126   0.000  0.00  0.00    +0.000 NA
ATOM     27  H   UNL     1       0.746  -0.867   0.602  0.00  0.00    +0.000 HD
ATOM     28  H   UNL     1       0.809  -0.371  -0.945  0.00  0.00    +0.000 HD
ENDBRANCH  24  26
ENDBRANCH  22  24
ENDBRANCH  16  22
ENDBRANCH   1  19
TORSDOF 6
